# generated using pymatgen
data_DyH7C8SNO7
_symmetry_space_group_name_H-M   'P 1'
_cell_length_a   7.01138396
_cell_length_b   10.43187109
_cell_length_c   10.43190759
_cell_angle_alpha   66.10032493
_cell_angle_beta   70.05732113
_cell_angle_gamma   70.05892390
_symmetry_Int_Tables_number   1
_chemical_formula_structural   DyH7C8SNO7
_chemical_formula_sum   'Dy2 H14 C16 S2 N2 O14'
_cell_volume   637.22343614
_cell_formula_units_Z   2
loop_
 _symmetry_equiv_pos_site_id
 _symmetry_equiv_pos_as_xyz
  1  'x, y, z'
loop_
 _atom_site_type_symbol
 _atom_site_label
 _atom_site_symmetry_multiplicity
 _atom_site_fract_x
 _atom_site_fract_y
 _atom_site_fract_z
 _atom_site_occupancy
 _atom_site_hle17_bader_spin_density
 _atom_site_hle17_ddec_charge
 _atom_site_hle17_ddec_spin_density
 _atom_site_hle17_ddec_sum_bond_order
 _atom_site_hle17_magmom
 _atom_site_hse06_10hf_bader_spin_density
 _atom_site_hse06_10hf_ddec_charge
 _atom_site_hse06_10hf_ddec_spin_density
 _atom_site_hse06_10hf_ddec_sum_bond_order
 _atom_site_hse06_10hf_magmom
 _atom_site_hse06_bader_spin_density
 _atom_site_hse06_ddec_charge
 _atom_site_hse06_ddec_spin_density
 _atom_site_hse06_ddec_sum_bond_order
 _atom_site_hse06_magmom
 _atom_site_pbe_bader_spin_density
 _atom_site_pbe_cm5_charge
 _atom_site_pbe_ddec_charge
 _atom_site_pbe_ddec_spin_density
 _atom_site_pbe_ddec_sum_bond_order
 _atom_site_pbe_magmom
Dy  Dy0  1  0.87167152  0.82302900  0.82302714  1  0  2.094665  0  1.814416  0  0  2.009914  0  2.175216  0  0  2.061526  0  2.128335  0  0  1.413511  1.97041  0  2.211986  0
Dy  Dy1  1  0.12835267  0.17696386  0.17695946  1  0  2.094707  0  1.81421  0  0  2.010021  0  2.174915  0  0  2.061593  0  2.128092  0  0  1.413372  1.970558  0  2.211652  0
H  H2  1  0.75771833  0.63974071  0.27505850  1  0  0.110628  0  0.957793  0  0  0.120776  0  1.016059  0  0  0.124484  0  1.012419  0  0  0.129801  0.118164  0  1.018511  0
H  H3  1  0.24230079  0.72494620  0.36029591  1  0  0.110577  0  0.957869  0  0  0.120806  0  1.016002  0  0  0.124514  0  1.01236  0  0  0.129848  0.118122  0  1.018549  0
H  H4  1  0.24226156  0.36022851  0.72496420  1  0  0.110652  0  0.957884  0  0  0.120814  0  1.016131  0  0  0.124519  0  1.012493  0  0  0.129806  0.118204  0  1.01857  0
H  H5  1  0.75770930  0.27505385  0.63976086  1  0  0.110646  0  0.957769  0  0  0.120849  0  1.015977  0  0  0.124559  0  1.012333  0  0  0.129817  0.118227  0  1.018431  0
H  H6  1  0.68360861  0.80175820  0.42100609  1  0  0.130885  0  0.915309  0  0  0.143704  0  0.965513  0  0  0.147735  0  0.964011  0  0  0.117409  0.140563  0  0.967199  0
H  H7  1  0.31640656  0.57901807  0.19826177  1  0  0.130882  0  0.915299  0  0  0.143703  0  0.965538  0  0  0.147728  0  0.964034  0  0  0.117379  0.140562  0  0.96721  0
H  H8  1  0.31639671  0.19824120  0.57898197  1  0  0.130828  0  0.915157  0  0  0.143648  0  0.965377  0  0  0.147668  0  0.963896  0  0  0.117408  0.140504  0  0.967057  0
H  H9  1  0.68359083  0.42102201  0.80176271  1  0  0.130843  0  0.915251  0  0  0.143665  0  0.965463  0  0  0.147683  0  0.963978  0  0  0.117404  0.140521  0  0.96714  0
H  H10  1  0.79613885  0.39200911  0.39202551  1  0  0.319511  0  0.891798  0  0  0.295479  0  0.959723  0  0  0.305086  0  0.951283  0  0  0.31966  0.288518  0  0.966031  0
H  H11  1  0.20383782  0.60796097  0.60803590  1  0  0.319503  0  0.891762  0  0  0.295483  0  0.959674  0  0  0.305087  0  0.951234  0  0  0.319646  0.288514  0  0.965983  0
H  H12  1  0.15989686  0.91043086  0.91043732  1  0  0.465198  0  0.798378  0  0  0.435635  0  0.862868  0  0  0.446496  0  0.846572  0  0  0.32105  0.427685  0  0.874862  0
H  H13  1  0.84007404  0.08957937  0.08956630  1  0  0.465372  0  0.798234  0  0  0.435797  0  0.862661  0  0  0.44666  0  0.846359  0  0  0.321081  0.427851  0  0.874652  0
H  H14  1  0.30641865  0.81316578  0.81316441  1  0  0.432264  0  0.869109  0  0  0.402111  0  0.932277  0  0  0.41267  0  0.917235  0  0  0.276107  0.394557  0  0.943068  0
H  H15  1  0.69359354  0.18684637  0.18684398  1  0  0.432339  0  0.869029  0  0  0.402206  0  0.93215  0  0  0.412767  0  0.91711  0  0  0.276229  0.394655  0  0.942938  0
C  C16  1  0.74139551  0.59955329  0.39148920  1  0  0.129714  0  3.655801  0  0  0.088543  0  3.912797  0  0  0.098091  0  3.9283  0  0  0.054705  0.082454  0  3.901965  0
C  C17  1  0.25861564  0.60851413  0.40047762  1  0  0.129968  0  3.655838  0  0  0.088842  0  3.912737  0  0  0.098401  0  3.928223  0  0  0.05495  0.082798  0  3.90193  0
C  C18  1  0.25859303  0.40043098  0.60852473  1  0  0.129509  0  3.656153  0  0  0.088317  0  3.913201  0  0  0.097873  0  3.928697  0  0  0.054716  0.082234  0  3.902351  0
C  C19  1  0.74139070  0.39148923  0.59956810  1  0  0.129769  0  3.655708  0  0  0.088553  0  3.91272  0  0  0.098101  0  3.92822  0  0  0.054777  0.082473  0  3.901873  0
C  C20  1  0.70173472  0.68569183  0.47300414  1  0  -0.165507  0  3.665452  0  0  -0.183137  0  3.918127  0  0  -0.193252  0  3.93641  0  0  -0.082265  -0.176619  0  3.906023  0
C  C21  1  0.29827394  0.52700764  0.31433006  1  0  -0.165675  0  3.665503  0  0  -0.183414  0  3.918232  0  0  -0.193503  0  3.936522  0  0  -0.082336  -0.176883  0  3.906093  0
C  C22  1  0.29826256  0.31431726  0.52698852  1  0  -0.165256  0  3.665357  0  0  -0.182918  0  3.918027  0  0  -0.193015  0  3.936332  0  0  -0.08222  -0.17639  0  3.905901  0
C  C23  1  0.70173070  0.47301630  0.68569062  1  0  -0.165548  0  3.665553  0  0  -0.183198  0  3.918294  0  0  -0.193306  0  3.93657  0  0  -0.082336  -0.176676  0  3.906164  0
C  C24  1  0.68151661  0.62440604  0.62439899  1  0  0.225843  0  3.752115  0  0  0.233863  0  4.012385  0  0  0.248358  0  4.02832  0  0  0.022481  0.224027  0  4.001054  0
C  C25  1  0.31848280  0.37561376  0.37559857  1  0  0.225725  0  3.752  0  0  0.233865  0  4.012112  0  0  0.248288  0  4.028169  0  0  0.02238  0.224025  0  4.000787  0
C  C26  1  0.08004710  0.93275128  0.48427944  1  0  0.563707  0  3.932445  0  0  0.519967  0  4.237027  0  0  0.550265  0  4.226727  0  0  0.219492  0.499373  0  4.242698  0
C  C27  1  0.91994184  0.51571169  0.06725246  1  0  0.563637  0  3.932533  0  0  0.519887  0  4.237103  0  0  0.550196  0  4.226795  0  0  0.219429  0.499284  0  4.242787  0
C  C28  1  0.91993460  0.06725148  0.51570564  1  0  0.563916  0  3.932644  0  0  0.520193  0  4.237171  0  0  0.550513  0  4.226854  0  0  0.219597  0.499596  0  4.242848  0
C  C29  1  0.08002847  0.48428239  0.93275575  1  0  0.563597  0  3.932491  0  0  0.519847  0  4.237073  0  0  0.550161  0  4.226757  0  0  0.219367  0.499253  0  4.242744  0
C  C30  1  0.57547068  0.02183462  0.02181388  1  0  0.563085  0  3.926879  0  0  0.521208  0  4.222892  0  0  0.55097  0  4.214296  0  0  0.223436  0.50097  0  4.227837  0
C  C31  1  0.42457787  0.97813579  0.97813131  1  0  0.563645  0  3.927626  0  0  0.521955  0  4.223349  0  0  0.551698  0  4.21477  0  0  0.22393  0.501727  0  4.228282  0
S  S32  1  0.62045155  0.72990677  0.72987179  1  0  -0.603541  0  2.073932  0  0  -0.601629  0  2.402541  0  0  -0.622193  0  2.395627  0  0  -0.2462  -0.585696  0  2.406732  0
S  S33  1  0.37954233  0.27015094  0.27008223  1  0  -0.603504  0  2.073639  0  0  -0.601632  0  2.40214  0  0  -0.622174  0  2.395269  0  0  -0.246153  -0.585696  0  2.406332  0
N  N34  1  0.76092037  0.45547334  0.45548447  1  0  -0.240349  0  3.49497  0  0  -0.170638  0  3.72843  0  0  -0.187273  0  3.745182  0  0  -0.356391  -0.159495  0  3.717191  0
N  N35  1  0.23907346  0.54450649  0.54455023  1  0  -0.240358  0  3.495319  0  0  -0.170751  0  3.728912  0  0  -0.187361  0  3.745617  0  0  -0.356561  -0.1596  0  3.717656  0
O  O36  1  0.09842283  0.81928853  0.59207352  1  0  -0.643015  0  2.109241  0  0  -0.601446  0  2.352521  0  0  -0.625848  0  2.346064  0  0  -0.359343  -0.584359  0  2.35659  0
O  O37  1  0.90157091  0.40791293  0.18072489  1  0  -0.643075  0  2.108879  0  0  -0.601517  0  2.352183  0  0  -0.625894  0  2.345667  0  0  -0.359391  -0.584441  0  2.356267  0
O  O38  1  0.90155913  0.18070996  0.40790360  1  0  -0.643188  0  2.108869  0  0  -0.601675  0  2.352225  0  0  -0.626033  0  2.345657  0  0  -0.359449  -0.584604  0  2.356319  0
O  O39  1  0.09840097  0.59207685  0.81928085  1  0  -0.642995  0  2.109065  0  0  -0.6014  0  2.352329  0  0  -0.625789  0  2.345827  0  0  -0.359292  -0.584319  0  2.356403  0
O  O40  1  0.17818928  0.94639321  0.35427133  1  0  -0.65992  0  2.05746  0  0  -0.625602  0  2.297001  0  0  -0.64948  0  2.287827  0  0  -0.373905  -0.608504  0  2.302351  0
O  O41  1  0.82181743  0.64571459  0.05361338  1  0  -0.659733  0  2.05746  0  0  -0.625394  0  2.296992  0  0  -0.649278  0  2.287813  0  0  -0.373712  -0.608304  0  2.302346  0
O  O42  1  0.82183570  0.05361584  0.64570486  1  0  -0.659887  0  2.0579  0  0  -0.625562  0  2.297437  0  0  -0.649448  0  2.288251  0  0  -0.373802  -0.608475  0  2.302792  0
O  O43  1  0.17815277  0.35427201  0.94638631  1  0  -0.659759  0  2.057318  0  0  -0.625429  0  2.296855  0  0  -0.649307  0  2.287673  0  0  -0.373761  -0.608347  0  2.302209  0
O  O44  1  0.76946233  0.97592928  0.97590942  1  0  -0.631181  0  1.987535  0  0  -0.587799  0  2.214948  0  0  -0.611443  0  2.204425  0  0  -0.349534  -0.57105  0  2.22201  0
O  O45  1  0.23057813  0.02404221  0.02404090  1  0  -0.631624  0  1.987887  0  0  -0.588298  0  2.215134  0  0  -0.611943  0  2.204632  0  0  -0.349724  -0.571559  0  2.222205  0
O  O46  1  0.49219698  0.10097020  0.10094093  1  0  -0.649654  0  2.148871  0  0  -0.599208  0  2.392162  0  0  -0.623673  0  2.383799  0  0  -0.377668  -0.581925  0  2.397551  0
O  O47  1  0.50784883  0.89900659  0.89901862  1  0  -0.64963  0  2.149546  0  0  -0.599216  0  2.392809  0  0  -0.62368  0  2.384453  0  0  -0.377805  -0.581919  0  2.398159  0
O  O48  1  0.15778202  0.85473745  0.85472120  1  0  -0.909004  0  1.90174  0  0  -0.864784  0  2.09001  0  0  -0.884785  0  2.056795  0  0  -0.658425  -0.850374  0  2.114011  0
O  O49  1  0.84222306  0.14528024  0.14526446  1  0  -0.909216  0  1.901586  0  0  -0.865006  0  2.089746  0  0  -0.88501  0  2.056519  0  0  -0.658517  -0.850594  0  2.113742  0
