# generated using pymatgen
data_Zn4H7C24S4NO17
_symmetry_space_group_name_H-M   'P 1'
_cell_length_a   19.63515213
_cell_length_b   19.69607559
_cell_length_c   33.31893519
_cell_angle_alpha   79.15269508
_cell_angle_beta   79.34153333
_cell_angle_gamma   64.03283799
_symmetry_Int_Tables_number   1
_chemical_formula_structural   Zn4H7C24S4NO17
_chemical_formula_sum   'Zn16 H28 C96 S16 N4 O68'
_cell_volume   11300.75342205
_cell_formula_units_Z   4
loop_
 _symmetry_equiv_pos_site_id
 _symmetry_equiv_pos_as_xyz
  1  'x, y, z'
loop_
 _atom_site_type_symbol
 _atom_site_label
 _atom_site_symmetry_multiplicity
 _atom_site_fract_x
 _atom_site_fract_y
 _atom_site_fract_z
 _atom_site_occupancy
 _atom_site_pbe_bader_charge
 _atom_site_pbe_bader_spin_density
 _atom_site_pbe_cm5_charge
 _atom_site_pbe_ddec_charge
 _atom_site_pbe_ddec_spin_density
 _atom_site_pbe_ddec_sum_bond_order
 _atom_site_pbe_magmom
Zn  Zn0  1  0.05742711  0.40093982  0.47827080  1  1.312995  0  0.669035  0.966712  0  2.353383  0
Zn  Zn1  1  0.98327112  0.48368101  0.56020463  1  1.317163  0  0.674168  0.957157  0  2.380736  0
Zn  Zn2  1  0.06029435  0.56012952  0.48163888  1  1.322252  0  0.677925  0.969969  0  2.356782  0
Zn  Zn3  1  0.89921551  0.55513108  0.48022130  1  1.323877  0  0.678039  0.970204  0  2.356064  0
Zn  Zn4  1  0.69506515  0.34985363  0.27091594  1  1.31737  0  0.670544  0.965708  0  2.365535  0
Zn  Zn5  1  0.69106000  0.18924037  0.26715412  1  1.318286  0  0.670552  0.964699  0  2.364551  0
Zn  Zn6  1  0.76925779  0.26751817  0.18987114  1  1.324345  0  0.678647  0.971805  0  2.349812  0
Zn  Zn7  1  0.84878800  0.19402992  0.27309750  1  1.316759  0  0.673759  0.962007  0  2.371163  0
Zn  Zn8  1  0.26576821  0.76779081  0.68952724  1  1.312918  0  0.67186  0.960533  0  2.379112  0
Zn  Zn9  1  0.34764979  0.69568933  0.77181252  1  1.318671  0  0.672496  0.962024  0  2.373712  0
Zn  Zn10  1  0.19176971  0.84954056  0.77099868  1  1.323645  0  0.676523  0.974816  0  2.347932  0
Zn  Zn11  1  0.19074212  0.68774388  0.76675442  1  1.317405  0  0.673255  0.963489  0  2.366654  0
Zn  Zn12  1  0.56083612  0.06009279  0.98301140  1  1.31647  0  0.672493  0.965703  0  2.367748  0
Zn  Zn13  1  0.40058421  0.05552190  0.97848138  1  1.316344  0  0.672485  0.962258  0  2.370882  0
Zn  Zn14  1  0.55492112  0.90191821  0.97794827  1  1.319506  0  0.670984  0.966905  0  2.367245  0
Zn  Zn15  1  0.48338686  0.98372040  0.06040645  1  1.315702  0  0.672077  0.966344  0  2.364  0
H  H16  1  0.95270738  0.24861514  0.35257887  1  0.109253  0  0.114525  0.121245  0  0.984355  0
H  H17  1  0.74762947  0.45590812  0.35003992  1  0.151855  0  0.1229  0.1407  0  0.973175  0
H  H18  1  0.99951076  0.29796074  0.40111339  1  0.136088  0  0.116178  0.123493  0  0.98308  0
H  H19  1  0.09951617  0.59537294  0.69925197  1  0.077905  0  0.11406  0.120672  0  0.985775  0
H  H20  1  0.20049887  0.70271852  0.59693025  1  0.101406  0  0.122619  0.140858  0  0.97472  0
H  H21  1  0.05184888  0.54864228  0.64979719  1  0.133549  0  0.116692  0.124577  0  0.982844  0
H  H22  1  0.46473630  0.23876855  0.34117845  1  0.116232  0  0.120899  0.145605  0  0.969069  0
H  H23  1  0.47900923  0.70393833  0.60167054  1  0.123476  0  0.123954  0.149464  0  0.965017  0
H  H24  1  0.20159502  0.98035540  0.60054278  1  0.118151  0  0.123073  0.149118  0  0.965538  0
H  H25  1  0.94832132  0.96923733  0.34984390  1  0.126156  0  0.122497  0.147265  0  0.966668  0
H  H26  1  0.54929271  0.05195097  0.15271160  1  0.121404  0  0.114773  0.121521  0  0.985003  0
H  H27  1  0.65459327  0.15174051  0.04871650  1  0.159329  0  0.122695  0.140733  0  0.973493  0
H  H28  1  0.59828203  0.10124734  0.20007969  1  0.119117  0  0.116567  0.124031  0  0.982449  0
H  H29  1  0.54626733  0.77084075  0.14837533  1  0.120579  0  0.122779  0.14793  0  0.966405  0
H  H30  1  0.16182396  0.13959674  0.04086631  1  0.147585  0  0.123253  0.148328  0  0.965059  0
H  H31  1  0.50090455  0.79795105  0.89764767  1  0.141668  0  0.114518  0.121106  0  0.98513  0
H  H32  1  0.29389794  0.00328288  0.89967349  1  0.144053  0  0.123205  0.141253  0  0.97336  0
H  H33  1  0.45069372  0.75201887  0.84915368  1  0.1102  0  0.117029  0.124642  0  0.981951  0
H  H34  1  0.30039134  0.28019277  0.90186831  1  0.123662  0  0.123348  0.148305  0  0.965396  0
H  H35  1  0.78853595  0.00883554  0.90941053  1  0.145182  0  0.123449  0.148441  0  0.964178  0
H  H36  1  0.32564101  0.54109176  0.39920222  1  0.611002  0  0.345092  0.370296  0  0.862506  0
H  H37  1  0.75569014  0.53925527  0.68529370  1  0.596561  0  0.339735  0.364404  0  0.870955  0
H  H38  1  0.04045657  0.25623738  0.68368586  1  0.59794  0  0.341362  0.366744  0  0.86768  0
H  H39  1  0.74415122  0.81180185  0.38759552  1  0.611448  0  0.343079  0.366819  0  0.866774  0
H  H40  1  0.70947218  0.49243312  0.06633618  1  0.626717  0  0.343989  0.36856  0  0.864197  0
H  H41  1  0.14820322  0.07599963  0.22126144  1  0.61494  0  0.342305  0.367794  0  0.866428  0
H  H42  1  0.50685902  0.43378478  0.86199094  1  0.602021  0  0.34194  0.367588  0  0.86711  0
H  H43  1  0.92446180  0.70724310  0.85162563  1  0.593389  0  0.341782  0.367248  0  0.866833  0
C  C44  1  0.06298512  0.31705816  0.56172523  1  1.55736  0  0.211883  0.621986  0  4.217124  0
C  C45  1  0.06997728  0.56920861  0.56803256  1  1.612503  0  0.230499  0.607037  0  4.17649  0
C  C46  1  0.18439983  0.43859590  0.43741341  1  1.569325  0  0.213588  0.622879  0  4.218496  0
C  C47  1  0.93655779  0.68306902  0.43926676  1  1.572261  0  0.214076  0.622841  0  4.213915  0
C  C48  1  0.93046388  0.43005769  0.43228378  1  1.599931  0  0.230601  0.608525  0  4.173817  0
C  C49  1  0.81607663  0.56092465  0.56325898  1  1.532381  0  0.212537  0.620071  0  4.220179  0
C  C50  1  0.56637922  0.31089639  0.31051665  1  1.569594  0  0.217105  0.610218  0  4.218531  0
C  C51  1  0.68091026  0.18235090  0.18105833  1  1.602262  0  0.230555  0.607301  0  4.172046  0
C  C52  1  0.69184653  0.43470872  0.18833562  1  1.59819  0  0.213389  0.622369  0  4.218749  0
C  C53  1  0.93516775  0.18495474  0.19003248  1  1.542448  0  0.21428  0.622934  0  4.215523  0
C  C54  1  0.81869469  0.32021309  0.31985652  1  1.583044  0  0.231098  0.603459  0  4.168538  0
C  C55  1  0.81121909  0.06554777  0.31280417  1  1.581827  0  0.21669  0.607861  0  4.220875  0
C  C56  1  0.43286564  0.69146209  0.68869343  1  1.547985  0  0.216186  0.606519  0  4.221508  0
C  C57  1  0.31785336  0.82106745  0.81817328  1  1.599511  0  0.230746  0.608119  0  4.172379  0
C  C58  1  0.18573072  0.93413424  0.68751410  1  1.565994  0  0.21734  0.607504  0  4.221967  0
C  C59  1  0.06707486  0.80852664  0.81226891  1  1.579167  0  0.213437  0.621277  0  4.217886  0
C  C60  1  0.18132454  0.68014124  0.68005262  1  1.562322  0  0.230824  0.603573  0  4.167828  0
C  C61  1  0.31387960  0.56475830  0.81059734  1  1.569566  0  0.21321  0.620787  0  4.221691  0
C  C62  1  0.43795493  0.18391412  0.93864042  1  1.541294  0  0.218188  0.610048  0  4.218244  0
C  C63  1  0.42970985  0.93151775  0.93032515  1  1.582324  0  0.231289  0.603464  0  4.167424  0
C  C64  1  0.68405341  0.93921019  0.93820649  1  1.559198  0  0.217335  0.608758  0  4.218928  0
C  C65  1  0.56058845  0.81671575  0.06135366  1  1.612945  0  0.21684  0.608997  0  4.219988  0
C  C66  1  0.57011202  0.06986811  0.06925571  1  1.592055  0  0.231188  0.60432  0  4.166417  0
C  C67  1  0.31557785  0.06227407  0.06146012  1  1.6005  0  0.21695  0.607972  0  4.220397  0
C  C68  1  0.90117175  0.40412113  0.40233277  1  0.023466  0  -0.001169  -0.0692  0  3.91978  0
C  C69  1  0.84752978  0.34921390  0.34847414  1  -0.045857  0  -0.005982  -0.010313  0  3.956426  0
C  C70  1  0.83038453  0.44796776  0.38733947  1  0.152486  0  0.090208  0.070987  0  3.913815  0
C  C71  1  0.91872276  0.30456425  0.36268060  1  0.037325  0  -0.073409  -0.087544  0  3.953758  0
C  C72  1  0.80301093  0.42130709  0.36102840  1  0.017251  0  -0.06982  -0.142446  0  3.923456  0
C  C73  1  0.94468886  0.33193919  0.38937725  1  -0.024098  0  -0.070287  -0.073763  0  3.955164  0
C  C74  1  0.09795113  0.60013115  0.59613150  1  0.000643  0  -0.001093  -0.068277  0  3.921424  0
C  C75  1  0.15257741  0.65186550  0.65104752  1  -0.070218  0  -0.005959  -0.009864  0  3.958345  0
C  C76  1  0.13975929  0.64399411  0.58185717  1  0.175026  0  0.090771  0.070342  0  3.917415  0
C  C77  1  0.11057800  0.60853478  0.66612135  1  0.073663  0  -0.073897  -0.089421  0  3.95691  0
C  C78  1  0.16762278  0.66928203  0.60860418  1  0.087315  0  -0.069798  -0.142217  0  3.926058  0
C  C79  1  0.08406331  0.58293488  0.63882171  1  -0.02836  0  -0.070356  -0.073406  0  3.954041  0
C  C80  1  0.30454105  0.45457520  0.40005726  1  0.599517  0  0.085675  0.275406  0  4.102269  0
C  C81  1  0.44736175  0.29579124  0.34881308  1  0.06193  0  -0.085993  -0.12768  0  3.957183  0
C  C82  1  0.25916354  0.41439357  0.41302033  1  -0.102969  0  -0.038569  -0.237204  0  3.930024  0
C  C83  1  0.49196295  0.33587033  0.33570573  1  -0.181867  0  -0.024568  -0.114769  0  3.978035  0
C  C84  1  0.37931045  0.33854331  0.37247987  1  -0.17067  0  -0.022543  0.010686  0  4.099133  0
C  C85  1  0.37340254  0.41075814  0.37680864  1  -0.155605  0  -0.038356  -0.156843  0  4.109535  0
C  C86  1  0.72586118  0.57565653  0.63109897  1  0.558505  0  0.082432  0.272346  0  4.106017  0
C  C87  1  0.52370443  0.67495885  0.62183307  1  -0.018948  0  -0.083085  -0.123859  0  3.950089  0
C  C88  1  0.74197249  0.58564470  0.58836104  1  -0.065192  0  -0.037829  -0.23833  0  3.932973  0
C  C89  1  0.50791999  0.66558560  0.66421722  1  -0.139661  0  -0.024526  -0.111385  0  3.975863  0
C  C90  1  0.60302951  0.64260405  0.60959724  1  -0.10881  0  -0.021647  0.007094  0  4.099064  0
C  C91  1  0.64610214  0.60867669  0.64312909  1  -0.149655  0  -0.039075  -0.156002  0  4.118859  0
C  C92  1  0.07687598  0.22665437  0.62955825  1  0.595572  0  0.083704  0.274934  0  4.100515  0
C  C93  1  0.17257140  0.02489914  0.62058606  1  0.130982  0  -0.085519  -0.129441  0  3.953271  0
C  C94  1  0.08693800  0.24293058  0.58679898  1  -0.080087  0  -0.03942  -0.238915  0  3.93237  0
C  C95  1  0.16175652  0.00911135  0.66292903  1  -0.214811  0  -0.023039  -0.110406  0  3.975399  0
C  C96  1  0.14132870  0.10408266  0.60824408  1  -0.161767  0  -0.021611  0.01127  0  4.098244  0
C  C97  1  0.10786268  0.14698222  0.64166842  1  -0.188704  0  -0.038893  -0.158734  0  4.117749  0
C  C98  1  0.84224160  0.79927401  0.39760049  1  0.593364  0  0.08548  0.274872  0  4.09969  0
C  C99  1  0.90389955  0.94884721  0.35395551  1  0.052701  0  -0.083918  -0.124395  0  3.952609  0
C  C100  1  0.91097409  0.75755509  0.41457644  1  -0.083986  0  -0.037591  -0.237981  0  3.927563  0
C  C101  1  0.83561810  0.99053363  0.33738510  1  -0.185336  0  -0.025556  -0.114198  0  3.977245  0
C  C102  1  0.90657517  0.87923532  0.37593270  1  -0.124532  0  -0.022463  0.006721  0  4.100746  0
C  C103  1  0.83998679  0.86914375  0.37550832  1  -0.224879  0  -0.038475  -0.155101  0  4.110738  0
C  C104  1  0.65460329  0.15261281  0.15147701  1  0.03775  0  -0.000405  -0.067504  0  3.916491  0
C  C105  1  0.59905260  0.09872490  0.09792266  1  -0.022594  0  -0.005759  -0.009214  0  3.955418  0
C  C106  1  0.67012242  0.16581362  0.10860103  1  0.179716  0  0.09089  0.070667  0  3.913144  0
C  C107  1  0.58323049  0.08422454  0.14062548  1  -0.062228  0  -0.072904  -0.088656  0  3.954315  0
C  C108  1  0.64245234  0.14022486  0.08188153  1  0.026465  0  -0.069488  -0.142334  0  3.922356  0
C  C109  1  0.61050995  0.11130237  0.16682211  1  -0.024899  0  -0.069294  -0.07152  0  3.949583  0
C  C110  1  0.67575283  0.52424815  0.12021333  1  0.549978  0  0.085513  0.275245  0  4.102868  0
C  C111  1  0.57555977  0.72616871  0.12841856  1  0.013214  0  -0.083902  -0.124551  0  3.951898  0
C  C112  1  0.66618072  0.50861381  0.16304315  1  -0.08812  0  -0.037781  -0.238254  0  3.931094  0
C  C113  1  0.58552585  0.74176523  0.08601748  1  -0.141937  0  -0.024934  -0.114579  0  3.976456  0
C  C114  1  0.60798690  0.64709366  0.14098996  1  -0.174898  0  -0.021493  0.008818  0  4.099836  0
C  C115  1  0.64225625  0.60382240  0.10773391  1  -0.148963  0  -0.037764  -0.153046  0  4.107686  0
C  C116  1  0.08212250  0.12255657  0.17894418  1  0.592653  0  0.083619  0.272438  0  4.104477  0
C  C117  1  0.16969460  0.12368000  0.07330841  1  0.06712  0  -0.083747  -0.124316  0  3.948642  0
C  C118  1  0.00986715  0.16005917  0.16548841  1  -0.108655  0  -0.037049  -0.236768  0  3.926832  0
C  C119  1  0.24122748  0.08646602  0.08670306  1  -0.207455  0  -0.024601  -0.113674  0  3.975601  0
C  C120  1  0.11150853  0.13694385  0.10676084  1  -0.180147  0  -0.020877  0.008104  0  4.09572  0
C  C121  1  0.14018865  0.10947814  0.14513905  1  -0.21411  0  -0.039113  -0.155668  0  4.114212  0
C  C122  1  0.34445471  0.85040424  0.84778275  1  -0.002374  0  -0.00036  -0.068876  0  3.917725  0
C  C123  1  0.40048462  0.90320444  0.90155413  1  -0.03143  0  -0.005639  -0.009521  0  3.956961  0
C  C124  1  0.30100138  0.92100117  0.86263842  1  0.240437  0  0.09133  0.072794  0  3.912571  0
C  C125  1  0.44477580  0.83219298  0.88747697  1  0.018164  0  -0.073101  -0.088162  0  3.953639  0
C  C126  1  0.32826550  0.94804164  0.88881645  1  -0.015437  0  -0.069556  -0.142272  0  3.9232  0
C  C127  1  0.41694373  0.80668970  0.86077130  1  -0.038794  0  -0.070025  -0.072565  0  3.95082  0
C  C128  1  0.40795949  0.44853413  0.85244896  1  0.52365  0  0.084011  0.274628  0  4.102621  0
C  C129  1  0.34503553  0.30035667  0.89738940  1  0.122572  0  -0.083732  -0.124748  0  3.948733  0
C  C130  1  0.33910334  0.49065055  0.83568803  1  -0.085588  0  -0.038461  -0.237352  0  3.93089  0
C  C131  1  0.41351627  0.25864144  0.91375694  1  -0.181476  0  -0.023786  -0.113001  0  3.975233  0
C  C132  1  0.34269704  0.36958929  0.87502670  1  -0.156968  0  -0.020984  0.01102  0  4.096842  0
C  C133  1  0.40974316  0.37913271  0.87490738  1  -0.156295  0  -0.038678  -0.156522  0  4.114426  0
C  C134  1  0.94601649  0.79379273  0.84929517  1  0.617716  0  0.083618  0.273938  0  4.102805  0
C  C135  1  0.80494870  0.95231547  0.90131235  1  0.051194  0  -0.08299  -0.123424  0  3.947461  0
C  C136  1  0.99262919  0.83275316  0.83705469  1  -0.136276  0  -0.038076  -0.239452  0  3.929252  0
C  C137  1  0.75887939  0.91361089  0.91343448  1  -0.182209  0  -0.024206  -0.112271  0  3.973598  0
C  C138  1  0.87322507  0.90892927  0.87799099  1  -0.172414  0  -0.021215  0.00761  0  4.098599  0
C  C139  1  0.87765352  0.83772985  0.87276827  1  -0.158624  0  -0.038186  -0.155458  0  4.113744  0
S  S140  1  0.30081956  0.32387419  0.39714565  1  0.261144  0  0.069567  0.113637  0  2.752671  0
S  S141  1  0.45171781  0.42577262  0.35201197  1  0.23843  0  0.070631  0.117146  0  2.76816  0
S  S142  1  0.66021789  0.63476102  0.56327329  1  0.272549  0  0.084614  0.136319  0  2.744194  0
S  S143  1  0.58915949  0.61714731  0.68963394  1  0.241052  0  0.060873  0.102172  0  2.776655  0
S  S144  1  0.13402358  0.16132888  0.56185159  1  0.267857  0  0.072916  0.11893  0  2.750793  0
S  S145  1  0.11401517  0.09005843  0.68817714  1  0.228782  0  0.072638  0.119443  0  2.771308  0
S  S146  1  0.97183883  0.80355791  0.40368201  1  0.273427  0  0.08143  0.132121  0  2.747881  0
S  S147  1  0.77407779  0.94543462  0.34829598  1  0.244423  0  0.063488  0.107063  0  2.771368  0
S  S148  1  0.61633995  0.59044783  0.18759499  1  0.278502  0  0.075928  0.123326  0  2.749071  0
S  S149  1  0.63438165  0.66048376  0.06105623  1  0.2334  0  0.06626  0.109972  0  2.76976  0
S  S150  1  0.01328722  0.17863441  0.11199923  1  0.320415  0  0.084936  0.13684  0  2.740922  0
S  S151  1  0.23849039  0.06730763  0.14005641  1  0.262764  0  0.06534  0.108946  0  2.772519  0
S  S152  1  0.27730967  0.44565095  0.84753857  1  0.266864  0  0.075586  0.122333  0  2.74838  0
S  S153  1  0.47557092  0.30307578  0.90222999  1  0.241058  0  0.068344  0.113096  0  2.773753  0
S  S154  1  0.95302337  0.92207039  0.85429817  1  0.283569  0  0.084534  0.136865  0  2.742643  0
S  S155  1  0.79802577  0.82416713  0.89657170  1  0.238107  0  0.064507  0.107681  0  2.771  0
N  N156  1  0.78115242  0.52651500  0.39722138  1  0.407297  0  0.05881  0.520962  0  4.240816  0
N  N157  1  0.15483599  0.66865056  0.53752107  1  0.440491  0  0.059183  0.522128  0  4.238474  0
N  N158  1  0.71894882  0.20564983  0.08877642  1  0.430067  0  0.059166  0.521225  0  4.24138  0
N  N159  1  0.22222885  0.97036469  0.85267557  1  0.41941  0  0.059818  0.521647  0  4.239842  0
O  O160  1  0.00032232  0.49942018  0.49989633  1  -1.233212  0  -0.571095  -1.033009  0  2.526816  0
O  O161  1  0.07408217  0.31582565  0.52257988  1  -1.171612  0  -0.325017  -0.55566  0  2.325021  0
O  O162  1  0.02323817  0.54052160  0.58493256  1  -1.170048  0  -0.307366  -0.532993  0  2.329534  0
O  O163  1  0.15280895  0.50692867  0.44599013  1  -1.159283  0  -0.311798  -0.52333  0  2.335408  0
O  O164  1  0.03364675  0.37586508  0.58068946  1  -1.151306  0  -0.313892  -0.525968  0  2.331264  0
O  O165  1  0.15711325  0.38835462  0.44788841  1  -1.16395  0  -0.326697  -0.556614  0  2.322493  0
O  O166  1  0.09609867  0.57336356  0.53022710  1  -1.163884  0  -0.303423  -0.530104  0  2.359844  0
O  O167  1  0.00120251  0.65950720  0.45292498  1  -1.170409  0  -0.321673  -0.549044  0  2.331928  0
O  O168  1  0.88286665  0.48805626  0.44938651  1  -1.167897  0  -0.304603  -0.531927  0  2.363747  0
O  O169  1  0.89333929  0.64820835  0.44498343  1  -1.141365  0  -0.311309  -0.524191  0  2.332569  0
O  O170  1  0.00007589  0.39084370  0.43824210  1  -1.167029  0  -0.308027  -0.534981  0  2.3191  0
O  O171  1  0.87522478  0.52137132  0.58178631  1  -1.160882  0  -0.31324  -0.525273  0  2.329003  0
O  O172  1  0.81444881  0.58159501  0.52441811  1  -1.156134  0  -0.320281  -0.546411  0  2.329453  0
O  O173  1  0.75056585  0.25006204  0.25035482  1  -1.235189  0  -0.570125  -1.031526  0  2.523682  0
O  O174  1  0.59813804  0.35720008  0.30328434  1  -1.157587  0  -0.31985  -0.546191  0  2.334382  0
O  O175  1  0.67156690  0.15776110  0.21894446  1  -1.163277  0  -0.307813  -0.535314  0  2.322618  0
O  O176  1  0.73184853  0.37594607  0.16989729  1  -1.162081  0  -0.311872  -0.523915  0  2.332907  0
O  O177  1  0.59247798  0.24549565  0.29813403  1  -1.171886  0  -0.319192  -0.543397  0  2.313195  0
O  O178  1  0.67167843  0.43598254  0.22725292  1  -1.178591  0  -0.325109  -0.55464  0  2.327061  0
O  O179  1  0.70907087  0.22998359  0.16581129  1  -1.162928  0  -0.30353  -0.530627  0  2.361335  0
O  O180  1  0.87724358  0.21676273  0.16960610  1  -1.171213  0  -0.32091  -0.548226  0  2.33016  0
O  O181  1  0.86136162  0.25353851  0.31022997  1  -1.176281  0  -0.310233  -0.540822  0  2.337962  0
O  O182  1  0.93390429  0.17340615  0.22911090  1  -1.135367  0  -0.314479  -0.52898  0  2.332595  0
O  O183  1  0.75411585  0.36470072  0.30762758  1  -1.170115  0  -0.310533  -0.538506  0  2.332031  0
O  O184  1  0.74447911  0.09341271  0.30124467  1  -1.170092  0  -0.322703  -0.550554  0  2.336175  0
O  O185  1  0.85830470  0.09632315  0.30515268  1  -1.179509  0  -0.315755  -0.537695  0  2.312995  0
O  O186  1  0.24895406  0.75043904  0.74980455  1  -1.223867  0  -0.570505  -1.030523  0  2.525876  0
O  O187  1  0.37470145  0.72384229  0.66886186  1  -1.179858  0  -0.315666  -0.536337  0  2.315786  0
O  O188  1  0.35835222  0.75216139  0.81167764  1  -1.168325  0  -0.30727  -0.533956  0  2.326423  0
O  O189  1  0.16607778  0.93393463  0.72636323  1  -1.16296  0  -0.318809  -0.544042  0  2.336712  0
O  O190  1  0.43288878  0.67907492  0.72787348  1  -1.144125  0  -0.322139  -0.549744  0  2.337087  0
O  O191  1  0.22383619  0.87620901  0.66805512  1  -1.167305  0  -0.31678  -0.539107  0  2.314355  0
O  O192  1  0.25817914  0.86754093  0.80184865  1  -1.166028  0  -0.304735  -0.532414  0  2.361553  0
O  O193  1  0.09846871  0.85535580  0.80612263  1  -1.176288  0  -0.321764  -0.548909  0  2.330714  0
O  O194  1  0.16666054  0.66177779  0.71835869  1  -1.162332  0  -0.309218  -0.539454  0  2.334567  0
O  O195  1  0.09404282  0.74400435  0.79894404  1  -1.157874  0  -0.313581  -0.526858  0  2.331726  0
O  O196  1  0.21786501  0.72032930  0.66380998  1  -1.164788  0  -0.31149  -0.540452  0  2.337892  0
O  O197  1  0.36011430  0.59647671  0.80191893  1  -1.158248  0  -0.314779  -0.526373  0  2.332612  0
O  O198  1  0.24675878  0.59121351  0.79954682  1  -1.167857  0  -0.323776  -0.552645  0  2.330663  0
O  O199  1  0.49994457  0.00031432  0.99996550  1  -1.227484  0  -0.569965  -1.029373  0  2.523309  0
O  O200  1  0.50455998  0.15661168  0.95025625  1  -1.173868  0  -0.321297  -0.549623  0  2.337528  0
O  O201  1  0.38598590  0.99668652  0.94171104  1  -1.169466  0  -0.310638  -0.539913  0  2.333775  0
O  O202  1  0.65219856  0.89288365  0.94562239  1  -1.159693  0  -0.321982  -0.549706  0  2.336263  0
O  O203  1  0.39094566  0.15307742  0.94636870  1  -1.161048  0  -0.316599  -0.538375  0  2.314195  0
O  O204  1  0.65757681  0.00494619  0.95015365  1  -1.173717  0  -0.31607  -0.538502  0  2.312127  0
O  O205  1  0.49574775  0.88791967  0.94097724  1  -1.173979  0  -0.309746  -0.539858  0  2.334914  0
O  O206  1  0.57589372  0.81680614  0.02224650  1  -1.178538  0  -0.321291  -0.548658  0  2.337498  0
O  O207  1  0.53154599  0.03179952  0.08575809  1  -1.169629  0  -0.309714  -0.541359  0  2.335236  0
O  O208  1  0.52618364  0.87480266  0.08096466  1  -1.177615  0  -0.317074  -0.540288  0  2.313457  0
O  O209  1  0.58665503  0.08576194  0.03083555  1  -1.174056  0  -0.310499  -0.53966  0  2.332704  0
O  O210  1  0.31498460  0.07732087  0.02247017  1  -1.17902  0  -0.316808  -0.538961  0  2.314577  0
O  O211  1  0.37442367  0.02801004  0.08097049  1  -1.175224  0  -0.321522  -0.549535  0  2.336725  0
O  O212  1  0.80128585  0.57689525  0.37954728  1  -0.423432  0  -0.130328  -0.319446  0  1.86805  0
O  O213  1  0.72162681  0.53574727  0.42037042  1  -0.42549  0  -0.134061  -0.324701  0  1.849306  0
O  O214  1  0.10084200  0.72050170  0.52104483  1  -0.446937  0  -0.130299  -0.320692  0  1.867298  0
O  O215  1  0.22129388  0.63838374  0.52136981  1  -0.439158  0  -0.134234  -0.324364  0  1.84811  0
O  O216  1  0.78838610  0.16931038  0.08961269  1  -0.426918  0  -0.128883  -0.318368  0  1.868088  0
O  O217  1  0.68640137  0.27033806  0.07092533  1  -0.437995  0  -0.135509  -0.325697  0  1.850377  0
O  O218  1  0.17158295  0.95081734  0.87066740  1  -0.42956  0  -0.129909  -0.319733  0  1.867264  0
O  O219  1  0.21322923  0.02927914  0.82899811  1  -0.436262  0  -0.135103  -0.325648  0  1.848546  0
O  O220  1  0.28392219  0.52576355  0.40898181  1  -1.100622  0  -0.326976  -0.390661  0  2.279512  0
O  O221  1  0.78030147  0.53931214  0.65708341  1  -1.084906  0  -0.333932  -0.39861  0  2.272341  0
O  O222  1  0.04153003  0.28082964  0.65546526  1  -1.101215  0  -0.332341  -0.3982  0  2.271698  0
O  O223  1  0.78627448  0.77482126  0.40247430  1  -1.099732  0  -0.326538  -0.388859  0  2.283122  0
O  O224  1  0.71238291  0.46940261  0.09488725  1  -1.115437  0  -0.327458  -0.391053  0  2.280298  0
O  O225  1  0.09361621  0.10194420  0.21919000  1  -1.100614  0  -0.332015  -0.397384  0  2.273435  0
O  O226  1  0.46475108  0.47204875  0.84751461  1  -1.086517  0  -0.331952  -0.398143  0  2.27421  0
O  O227  1  0.96501789  0.72329862  0.83962155  1  -1.081531  0  -0.332461  -0.398183  0  2.273245  0
