# generated using pymatgen
data_NiH22C22(NO2)4
_symmetry_space_group_name_H-M   'P 1'
_cell_length_a   8.14259577
_cell_length_b   13.42915460
_cell_length_c   13.64600000
_cell_angle_alpha   110.92065005
_cell_angle_beta   96.70411884
_cell_angle_gamma   96.36289735
_symmetry_Int_Tables_number   1
_chemical_formula_structural   NiH22C22(NO2)4
_chemical_formula_sum   'Ni2 H44 C44 N8 O16'
_cell_volume   1365.43068233
_cell_formula_units_Z   2
loop_
 _symmetry_equiv_pos_site_id
 _symmetry_equiv_pos_as_xyz
  1  'x, y, z'
loop_
 _atom_site_type_symbol
 _atom_site_label
 _atom_site_symmetry_multiplicity
 _atom_site_fract_x
 _atom_site_fract_y
 _atom_site_fract_z
 _atom_site_occupancy
 _atom_site_hle17_ddec_charge
 _atom_site_hle17_ddec_spin_density
 _atom_site_hle17_ddec_sum_bond_order
 _atom_site_hle17_magmom
 _atom_site_hse06_10hf_ddec_charge
 _atom_site_hse06_10hf_ddec_spin_density
 _atom_site_hse06_10hf_ddec_sum_bond_order
 _atom_site_hse06_10hf_magmom
 _atom_site_hse06_ddec_charge
 _atom_site_hse06_ddec_spin_density
 _atom_site_hse06_ddec_sum_bond_order
 _atom_site_hse06_magmom
 _atom_site_pbe_bader_charge
 _atom_site_pbe_bader_spin_density
 _atom_site_pbe_cm5_charge
 _atom_site_pbe_ddec_charge
 _atom_site_pbe_ddec_spin_density
 _atom_site_pbe_ddec_sum_bond_order
 _atom_site_pbe_magmom
Ni  Ni0  1  0.49999327  0.00000242  0.50000126  1  0.588896  0.000723  2.190874  0.0  0.540822  0.000293  2.657709  0.0  0.626366  0.000149  2.573127  0.0  0.941476  0.000109  0.581471  0.495371  0.000523  2.709855  0.0
Ni  Ni1  1  0.50000290  0.50000257  0.99999946  1  0.852478  -1.780832  1.89348  -1.513  0.847347  -1.830748  2.282599  -1.64  0.943249  -1.885269  2.206143  -1.726  1.174519  -1.574639  0.61493  0.776799  -1.784509  2.339404  -1.564
H  H2  1  0.29489392  0.15904081  0.47846810  1  0.100361  3.9e-05  0.927778  0.0  0.107937  -2e-06  0.987845  0.0  0.110519  2e-06  0.98472  0.0  0.11989  -6e-06  0.126611  0.105699  -5e-06  0.990549  0.0
H  H3  1  0.73711194  0.55849442  0.85861684  1  0.095523  -0.000503  0.943824  -0.001  0.102395  -0.000382  1.005541  -0.001  0.105145  -0.000242  1.002668  -0.001  0.146435  -0.001564  0.121213  0.100102  -0.000523  1.008139  -0.001
H  H4  1  0.70509353  0.84096513  0.52151956  1  0.100334  3.9e-05  0.927739  0.0  0.107867  -2e-06  0.98787  0.0  0.110447  2e-06  0.984745  0.0  0.11977  -6e-06  0.126545  0.105629  -6e-06  0.990575  0.0
H  H5  1  0.26290003  0.44151556  0.14138860  1  0.095544  -0.000503  0.943746  -0.001  0.102319  -0.000382  1.005564  -0.001  0.105066  -0.000242  1.002706  -0.001  0.146492  -0.001565  0.12123  0.100029  -0.000523  1.008157  -0.001
H  H6  1  0.29000782  0.28103535  0.38082593  1  0.1174  -6.1e-05  0.934983  0.0  0.130122  -2.5e-05  0.986721  0.0  0.133207  -1.6e-05  0.985692  0.0  0.109012  -6.4e-05  0.117067  0.12782  -3.3e-05  0.987729  0.0
H  H7  1  0.74377495  0.66563425  0.74732575  1  0.113462  -0.000263  0.950797  0.0  0.123953  -0.000308  1.009333  0.0  0.127521  -0.000217  1.007313  0.0  0.090166  -0.000866  0.111465  0.121314  -0.000403  1.011077  0.0
H  H8  1  0.70999777  0.71896897  0.61916242  1  0.117372  -6.2e-05  0.93503  0.0  0.130079  -2.5e-05  0.986754  0.0  0.133161  -1.7e-05  0.985724  0.0  0.108966  -6.4e-05  0.117009  0.127778  -3.4e-05  0.987763  0.0
H  H9  1  0.25624156  0.33436927  0.25267627  1  0.113386  -0.000263  0.950912  0.0  0.123876  -0.000308  1.009458  0.0  0.127455  -0.000217  1.007401  0.0  0.090024  -0.000866  0.111415  0.121239  -0.000403  1.011203  0.0
H  H10  1  0.74760733  0.17911973  0.27562366  1  0.109212  -5.3e-05  0.985727  0.0  0.117537  -2.6e-05  1.049842  0.0  0.11992  -1.6e-05  1.050175  0.0  0.117481  -6.5e-05  0.107444  0.115739  -3.5e-05  1.049848  0.0
H  H11  1  0.22221681  0.69085089  0.77501111  1  0.110466  -0.000219  0.962875  0.0  0.120748  -0.000271  1.022754  0.0  0.123984  -0.00019  1.021693  0.0  0.102017  -0.000761  0.107892  0.118194  -0.000358  1.023998  0.0
H  H12  1  0.25240444  0.82087975  0.72438174  1  0.109196  -5.3e-05  0.985794  0.0  0.11753  -2.6e-05  1.049908  0.0  0.119911  -1.6e-05  1.050239  0.0  0.117596  -6.5e-05  0.107466  0.115735  -3.5e-05  1.049908  0.0
H  H13  1  0.77779249  0.30914374  0.22497410  1  0.110521  -0.000219  0.962964  0.0  0.120823  -0.000271  1.022823  0.0  0.124066  -0.00019  1.021726  0.0  0.102069  -0.000761  0.107919  0.118311  -0.000358  1.024012  0.0
H  H14  1  0.73440269  0.06296928  0.37921460  1  0.091292  3.2e-05  0.96178  0.0  0.096265  -2e-06  1.030973  0.0  0.098845  0.0  1.027861  0.0  0.112387  -3e-06  0.119132  0.093935  -5e-06  1.033928  0.0
H  H15  1  0.24121087  0.58588674  0.88907971  1  0.100409  -0.000537  0.955991  -0.002  0.104902  -0.000376  1.021303  -0.001  0.107816  -0.000235  1.01852  -0.001  0.152268  -0.001527  0.12037  0.102557  -0.000522  1.023666  -0.001
H  H16  1  0.26559280  0.93703424  0.62079475  1  0.091253  3.2e-05  0.961731  0.0  0.096214  -2e-06  1.030991  0.0  0.098798  0.0  1.027869  0.0  0.112359  -3e-06  0.119112  0.093883  -5e-06  1.033948  0.0
H  H17  1  0.75879884  0.41410951  0.11090975  1  0.100383  -0.000538  0.95616  -0.002  0.104886  -0.000377  1.021476  -0.001  0.107801  -0.000236  1.0187  -0.001  0.152217  -0.001528  0.120344  0.102538  -0.000523  1.023845  -0.001
H  H18  1  0.96165353  0.96991019  0.41518075  1  0.100737  1e-06  0.946354  0.0  0.109773  0.0  1.015745  0.0  0.112764  -0.0  1.012578  0.0  0.123924  -2e-06  0.11193  0.10772  -2e-06  1.01788  0.0
H  H19  1  0.07519173  0.58450310  0.03355795  1  0.113467  0.000194  0.951254  0.0  0.12318  -3.8e-05  1.017555  0.0  0.126318  -6e-06  1.014714  0.0  0.134676  -1.5e-05  0.115001  0.12086  -8.1e-05  1.019633  0.0
H  H20  1  0.03833866  0.03009009  0.58482724  1  0.100657  1e-06  0.946475  0.0  0.109723  -0.0  1.015864  0.0  0.112694  -0.0  1.012689  0.0  0.124359  -2e-06  0.111912  0.107671  -2e-06  1.017991  0.0
H  H21  1  0.92480582  0.41549395  0.96644634  1  0.113475  0.000194  0.951162  0.0  0.123185  -3.8e-05  1.017522  0.0  0.126323  -6e-06  1.014682  0.0  0.134686  -1.5e-05  0.114989  0.120866  -8.1e-05  1.019598  0.0
H  H22  1  0.95193703  0.82937716  0.34334271  1  0.10522  2e-06  0.88997  0.0  0.125462  4e-06  0.936549  0.0  0.126249  2e-06  0.93665  0.0  0.074269  -2e-06  0.124311  0.124855  4e-06  0.936634  0.0
H  H23  1  0.08275084  0.66290011  0.16989722  1  0.099174  0.000389  0.893186  0.0  0.119249  0.000209  0.940851  0.0  0.120844  0.000188  0.940055  0.0  0.066655  0.000173  0.11932  0.118096  0.000224  0.941579  0.0
H  H24  1  0.04806010  0.17062312  0.65666049  1  0.10513  2e-06  0.88998  0.0  0.125431  4e-06  0.936544  0.0  0.126205  2e-06  0.936637  0.0  0.074065  -1e-06  0.124298  0.124821  4e-06  0.936629  0.0
H  H25  1  0.91724712  0.33709856  0.83010546  1  0.099202  0.000389  0.89316  0.0  0.119304  0.000209  0.940834  0.0  0.120901  0.000188  0.940037  0.0  0.06671  0.000174  0.119353  0.118151  0.000224  0.941563  0.0
H  H26  1  0.70449895  0.86982353  0.07084148  1  0.106885  -3.5e-05  0.96646  0.0  0.117442  -5.6e-05  1.026077  0.0  0.121503  -3.7e-05  1.022699  0.0  0.097805  -9.7e-05  0.10629  0.114428  -7.6e-05  1.0286  0.0
H  H27  1  0.32176170  0.93456276  0.11786950  1  0.102217  -1e-05  0.946605  0.0  0.11301  -2.7e-05  1.006491  0.0  0.116776  -1.7e-05  1.003663  0.0  0.063109  -6.5e-05  0.10635  0.110277  -4e-05  1.008551  0.0
H  H28  1  0.29549139  0.13017433  0.92916626  1  0.10693  -3.6e-05  0.966497  0.0  0.117494  -5.6e-05  1.026097  0.0  0.121549  -3.7e-05  1.022726  0.0  0.097593  -9.7e-05  0.106316  0.114474  -7.6e-05  1.028618  0.0
H  H29  1  0.67823029  0.06542701  0.88212599  1  0.102266  -1e-05  0.946563  0.0  0.113037  -2.7e-05  1.006468  0.0  0.116797  -1.7e-05  1.003641  0.0  0.063427  -6.5e-05  0.106362  0.110305  -3.9e-05  1.008524  0.0
H  H30  1  0.58212457  0.89905369  0.91179177  1  0.085966  4.3e-05  0.965171  0.0  0.095466  2.6e-05  1.025368  0.0  0.09761  2.3e-05  1.026558  0.0  0.067245  1.6e-05  0.097024  0.094081  3.6e-05  1.024599  0.0
H  H31  1  0.41786392  0.10094174  0.08821572  1  0.085954  4.3e-05  0.965242  0.0  0.095428  2.6e-05  1.025462  0.0  0.097573  2.3e-05  1.026644  0.0  0.067178  1.6e-05  0.097025  0.094043  3.6e-05  1.024692  0.0
H  H32  1  0.02401881  0.17971052  0.17826995  1  0.104552  -6e-06  0.959648  0.0  0.107922  -1.7e-05  1.031988  0.0  0.112863  -1e-05  1.027061  0.0  0.103954  -3.7e-05  0.104785  0.104505  -2.5e-05  1.03533  0.0
H  H33  1  0.97597957  0.82028491  0.82172723  1  0.104526  -6e-06  0.959753  0.0  0.107882  -1.7e-05  1.032096  0.0  0.112822  -1e-05  1.027167  0.0  0.10394  -3.7e-05  0.104776  0.104465  -2.5e-05  1.035435  0.0
H  H34  1  0.87669391  0.84875699  0.18384729  1  0.291827  2e-05  0.976048  0.0  0.266847  1e-05  1.052365  0.0  0.275816  6e-06  1.045707  0.0  0.520295  1.8e-05  0.293625  0.260508  1e-05  1.057019  0.0
H  H35  1  0.16485193  0.81635060  0.14258750  1  0.28678  -7.1e-05  0.954424  0.0  0.264975  -8.1e-05  1.026202  0.0  0.273404  -5.4e-05  1.019759  0.0  0.520565  -0.000133  0.297901  0.259076  -0.000113  1.030682  0.0
H  H36  1  0.12330240  0.15124491  0.81615789  1  0.291768  2e-05  0.976087  0.0  0.266828  1e-05  1.05239  0.0  0.275784  6e-06  1.045753  0.0  0.520239  1.8e-05  0.293595  0.260491  1e-05  1.057042  0.0
H  H37  1  0.83515056  0.18364646  0.85741347  1  0.286759  -7.2e-05  0.954526  0.0  0.264956  -8.1e-05  1.026272  0.0  0.273386  -5.4e-05  1.01983  0.0  0.52052  -0.000133  0.297906  0.259061  -0.000113  1.030743  0.0
H  H38  1  0.36466379  0.16807163  0.71372728  1  0.399903  2e-05  0.86215  0.0  0.38104  -1.9e-05  0.926071  0.0  0.389031  -1.2e-05  0.91675  0.0  0.60044  3e-06  0.299759  0.375353  -2.7e-05  0.932743  0.0
H  H39  1  0.53697683  0.32499739  0.82554687  1  0.412319  0.000339  0.859447  0.0  0.39439  -0.000256  0.919459  -0.001  0.405452  -0.000146  0.903511  -0.001  0.621913  -0.000483  0.294714  0.386399  -0.000359  0.928961  -0.001
H  H40  1  0.63532860  0.83193431  0.28627391  1  0.3999  2e-05  0.862222  0.0  0.381045  -1.9e-05  0.926116  0.0  0.389037  -1.2e-05  0.916791  0.0  0.600354  3e-06  0.299779  0.375359  -2.7e-05  0.932783  0.0
H  H41  1  0.46302320  0.67500452  0.17444977  1  0.412268  0.000339  0.85959  0.0  0.394336  -0.000256  0.919539  -0.001  0.405401  -0.000146  0.90359  -0.001  0.621954  -0.000483  0.294684  0.386341  -0.00036  0.929087  -0.001
H  H42  1  0.54952592  0.16151794  0.69676339  1  0.40446  1.1e-05  0.906395  0.0  0.368122  -2.6e-05  0.980722  0.0  0.37938  -1.9e-05  0.963794  0.0  0.643575  2.2e-05  0.277663  0.359877  -3.3e-05  0.993129  0.0
H  H43  1  0.42415965  0.30922617  0.90382487  1  0.394451  0.00113  0.929758  0.002  0.361508  0.00048  0.999294  0.0  0.373596  0.000568  0.982065  0.001  0.633898  0.000334  0.27999  0.353015  0.000346  1.011308  0.0
H  H44  1  0.45046545  0.83848396  0.30324071  1  0.404337  1.1e-05  0.906553  0.0  0.367997  -2.6e-05  0.980893  0.0  0.379256  -1.9e-05  0.963965  0.0  0.64339  2.2e-05  0.277594  0.359751  -3.3e-05  0.993303  0.0
H  H45  1  0.57584738  0.69077896  0.09617633  1  0.394498  0.00113  0.929767  0.002  0.361562  0.00048  0.999227  0.0  0.373649  0.000568  0.982  0.001  0.633788  0.000334  0.280001  0.353069  0.000346  1.011241  0.0
C  C46  1  0.39282821  0.16615782  0.43263213  1  0.146879  -0.000899  3.643448  -0.001  0.114713  -0.000141  3.896631  0.0  0.125919  -0.000207  3.913019  0.0  0.524041  -0.000275  0.056394  0.10696  -0.000119  3.887097  0.0
C  C47  1  0.62412206  0.58763326  0.83707943  1  0.134891  0.013254  3.679286  0.009  0.107366  0.003638  3.935438  0.002  0.11637  0.004586  3.953632  0.003  0.50611  0.002823  0.049013  0.100724  0.003452  3.924319  0.002
C  C48  1  0.60716872  0.83384651  0.56736222  1  0.146761  -0.000904  3.643547  -0.001  0.114565  -0.00014  3.89676  0.0  0.125769  -0.000207  3.913134  0.0  0.523787  -0.000275  0.056306  0.106812  -0.000119  3.887224  0.0
C  C49  1  0.37588621  0.41236703  0.16291575  1  0.134866  0.013247  3.679271  0.009  0.107368  0.003636  3.935415  0.002  0.116408  0.004586  3.95346  0.003  0.505133  0.002821  0.048966  0.100725  0.003451  3.924296  0.002
C  C50  1  0.39226433  0.23484188  0.37692192  1  -0.137386  0.003383  3.674801  0.002  -0.155484  0.000963  3.918434  0.001  -0.16346  0.001054  3.937607  0.001  -0.062146  0.001099  -0.071687  -0.150573  0.001205  3.906214  0.001
C  C51  1  0.62601214  0.64829432  0.77296022  1  -0.148318  -0.008047  3.687273  -0.01  -0.166925  -0.002619  3.932442  -0.004  -0.175188  -0.002593  3.951548  -0.003  -0.046381  -0.005112  -0.078733  -0.162274  -0.002865  3.919965  -0.004
C  C52  1  0.60773941  0.76516002  0.62307058  1  -0.137315  0.003396  3.674788  0.002  -0.15531  0.000963  3.918368  0.001  -0.163319  0.001053  3.937696  0.001  -0.061793  0.0011  -0.071516  -0.150401  0.001206  3.906147  0.001
C  C53  1  0.37400190  0.35170920  0.22703796  1  -0.148253  -0.008044  3.687378  -0.01  -0.166858  -0.002619  3.932519  -0.004  -0.174326  -0.002593  3.952348  -0.003  -0.045956  -0.005111  -0.078697  -0.16221  -0.002865  3.920045  -0.004
C  C54  1  0.51835664  0.24230399  0.31670748  1  0.096382  -0.001407  3.739531  -0.002  0.107524  -0.000199  3.971541  -0.001  0.113502  -0.000299  3.991154  -0.001  0.015774  -0.000439  0.014782  0.10329  -0.000107  3.958686  -0.001
C  C55  1  0.48213575  0.68908255  0.74778812  1  0.07989  0.013405  3.764633  0.009  0.091276  0.004833  3.998457  0.003  0.097844  0.004815  4.015545  0.003  -0.025822  0.005271  0.008255  0.088253  0.00584  3.984981  0.003
C  C56  1  0.48164606  0.75769387  0.68328793  1  0.096411  -0.001412  3.739801  -0.002  0.107469  -0.000199  3.971913  -0.001  0.112693  -0.000298  3.991087  -0.001  0.016225  -0.000439  0.014817  0.103233  -0.000107  3.959059  -0.001
C  C57  1  0.51787767  0.31091854  0.25220843  1  0.079939  0.013398  3.764384  0.009  0.091317  0.004831  3.998181  0.003  0.09536  0.004815  4.018802  0.003  -0.025702  0.005269  0.008298  0.088293  0.005838  3.984713  0.003
C  C58  1  0.64393291  0.17881100  0.31909268  1  -0.152621  0.00322  3.691173  0.002  -0.168293  0.000935  3.930224  0.001  -0.176866  0.00101  3.951071  0.001  -0.007944  0.001045  -0.080275  -0.163041  0.001155  3.917061  0.001
C  C59  1  0.34064964  0.66403805  0.79001749  1  -0.158161  -0.007964  3.692575  -0.01  -0.175737  -0.002551  3.933821  -0.003  -0.184365  -0.002513  3.953735  -0.003  -0.045448  -0.005016  -0.082831  -0.170734  -0.002817  3.920951  -0.004
C  C60  1  0.35607557  0.82119010  0.68091012  1  -0.15243  0.003231  3.69126  0.002  -0.168123  0.000935  3.930375  0.001  -0.176732  0.001009  3.951389  0.001  -0.008468  0.001046  -0.080245  -0.162871  0.001156  3.917207  0.001
C  C61  1  0.65935883  0.33595819  0.20997482  1  -0.158213  -0.007961  3.692407  -0.01  -0.175813  -0.002551  3.933695  -0.003  -0.183646  -0.002513  3.954321  -0.003  -0.045153  -0.005016  -0.082848  -0.17084  -0.002817  3.920807  -0.004
C  C62  1  0.63729751  0.11171747  0.37624972  1  0.120788  -0.000893  3.664439  -0.001  0.091563  -0.000114  3.91352  0.0  0.101884  -0.000191  3.93069  0.0  0.446812  -0.000204  0.045701  0.084327  -7.4e-05  3.903728  0.0
C  C63  1  0.34917329  0.60407770  0.85463422  1  0.138195  0.01403  3.662704  0.009  0.113366  0.004092  3.913518  0.002  0.122043  0.00496  3.931677  0.003  0.451958  0.003327  0.048538  0.106864  0.003997  3.902549  0.002
C  C64  1  0.36270169  0.88828605  0.62375549  1  0.120654  -0.000899  3.664231  -0.001  0.091404  -0.000114  3.913315  0.0  0.101722  -0.000191  3.930473  0.0  0.446902  -0.000204  0.045639  0.084169  -7.4e-05  3.903525  0.0
C  C65  1  0.65083106  0.39592178  0.14535747  1  0.138166  0.014027  3.66291  0.009  0.11326  0.004092  3.913721  0.002  0.121971  0.004961  3.931733  0.003  0.451779  0.003327  0.048552  0.106757  0.003997  3.90276  0.002
C  C66  1  0.19118787  0.92408849  0.36216030  1  0.66805  -2e-06  3.799997  0.0  0.622988  3e-06  4.105751  0.0  0.659442  3e-06  4.100023  0.0  1.536891  -3e-06  0.224057  0.59826  1e-06  4.108967  0.0
C  C67  1  0.84251693  0.63978236  0.07375967  1  0.670718  0.007015  3.823389  0.006  0.622156  0.002208  4.137043  0.002  0.657536  0.002207  4.130142  0.002  1.567017  0.001421  0.219295  0.597587  0.002352  4.140578  0.002
C  C68  1  0.80880742  0.07591422  0.63783923  1  0.668019  -2e-06  3.799836  0.0  0.622924  3e-06  4.105687  0.0  0.659359  3e-06  4.099956  0.0  1.536922  -3e-06  0.223986  0.598194  1e-06  4.1089  0.0
C  C69  1  0.15748556  0.36021954  0.92623934  1  0.670552  0.007015  3.823474  0.006  0.62209  0.002207  4.137032  0.002  0.657476  0.002208  4.130126  0.002  1.567033  0.001421  0.219281  0.597523  0.002351  4.140566  0.002
C  C70  1  0.99899017  0.91056003  0.34601580  1  -0.094912  0.0  3.678065  0.0  -0.156491  4e-06  3.941244  0.0  -0.155786  4e-06  3.946215  0.0  0.317788  -1e-05  -0.059373  -0.156891  1e-06  3.937663  0.0
C  C71  1  0.03467835  0.65583078  0.08849712  1  -0.094517  -0.00522  3.655342  -0.007  -0.155567  -0.002851  3.916311  -0.004  -0.154559  -0.001925  3.920462  -0.003  0.310048  -0.006309  -0.060394  -0.156071  -0.003861  3.913447  -0.005
C  C72  1  0.00100614  0.08944187  0.65398791  1  -0.094579  0.0  3.67776  0.0  -0.156278  4e-06  3.94117  0.0  -0.155495  3e-06  3.946053  0.0  0.31794  -1e-05  -0.059282  -0.156663  0.0  3.937573  0.0
C  C73  1  0.96532518  0.34417031  0.91150534  1  -0.094407  -0.00522  3.655092  -0.007  -0.155593  -0.00285  3.9162  -0.004  -0.154594  -0.001925  3.920366  -0.003  0.310055  -0.006309  -0.060411  -0.156098  -0.003861  3.913335  -0.005
C  C74  1  0.94989515  0.01717344  0.23903381  1  0.523609  1e-06  3.859164  0.0  0.478713  3e-06  4.146778  0.0  0.50716  3e-06  4.147967  0.0  1.374277  -8e-06  0.230165  0.459683  1e-06  4.144954  0.0
C  C75  1  0.07467524  0.76085555  0.97945904  1  0.52901  -0.000115  3.858856  0.0  0.479038  -0.000247  4.151403  0.0  0.508177  -0.000136  4.151753  0.0  1.419549  -0.000609  0.233114  0.459536  -0.000396  4.15031  0.0
C  C76  1  0.05009993  0.98281876  0.76096494  1  0.523517  2e-06  3.859033  0.0  0.478718  2e-06  4.146559  0.0  0.507164  3e-06  4.147751  0.0  1.374223  -8e-06  0.230211  0.459688  1e-06  4.144742  0.0
C  C77  1  0.92532273  0.23913827  0.02054122  1  0.529019  -0.000116  3.858631  0.0  0.479045  -0.000248  4.151254  0.0  0.508196  -0.000136  4.151588  0.0  1.419332  -0.000609  0.233067  0.459544  -0.000396  4.150162  0.0
C  C78  1  0.87411371  0.02356549  0.13635205  1  -0.066448  0.000102  3.781075  0.0  -0.041001  3.4e-05  4.016315  0.0  -0.049171  3.7e-05  4.040539  0.0  -0.068251  2.5e-05  -0.018334  -0.035916  3.8e-05  3.999995  0.0
C  C79  1  0.14019008  0.86583264  0.97131706  1  -0.059485  7.3e-05  3.775765  0.0  -0.032697  4.8e-05  4.009979  0.0  -0.040981  4.3e-05  4.034516  0.0  -0.109515  5e-06  -0.014116  -0.027573  3.9e-05  3.993487  0.0
C  C80  1  0.12587786  0.97643237  0.86365065  1  -0.0665  9.7e-05  3.780823  0.0  -0.041094  3.4e-05  4.01608  0.0  -0.049267  3.8e-05  4.040303  0.0  -0.06885  2.4e-05  -0.0184  -0.03601  3.8e-05  3.999764  0.0
C  C81  1  0.85981716  0.13415876  0.02868078  1  -0.059454  7.7e-05  3.775566  0.0  -0.032816  4.9e-05  4.010024  0.0  -0.041106  4.2e-05  4.03456  0.0  -0.109357  5e-06  -0.014107  -0.027692  3.9e-05  3.993534  0.0
C  C82  1  0.74933555  0.94413751  0.06026931  1  -0.066321  -0.000119  3.697371  0.0  -0.09647  -7.3e-05  3.948955  0.0  -0.094442  -4.7e-05  3.966566  0.0  -0.036426  -0.000206  -0.082905  -0.097382  -0.000117  3.936885  0.0
C  C83  1  0.26482201  0.94564965  0.04689690  1  -0.0646  -0.000104  3.704215  0.0  -0.093927  -7.2e-05  3.954995  0.0  -0.091892  -5e-05  3.972837  0.0  0.017807  -0.000174  -0.079678  -0.09482  -0.000108  3.942691  0.0
C  C84  1  0.25065541  0.05585793  0.93973249  1  -0.066319  -0.000116  3.697287  0.0  -0.096473  -7.3e-05  3.948877  0.0  -0.094437  -4.8e-05  3.96648  0.0  -0.035648  -0.000206  -0.082855  -0.097376  -0.000117  3.936801  0.0
C  C85  1  0.73516916  0.05434659  0.95310299  1  -0.064579  -0.000106  3.704128  0.0  -0.093837  -7.2e-05  3.954973  0.0  -0.091792  -5.1e-05  3.972808  0.0  0.017247  -0.000174  -0.079673  -0.094729  -0.000108  3.942669  0.0
C  C86  1  0.68096402  0.96017623  0.96952962  1  -0.062671  0.000121  3.768948  0.0  -0.072138  4e-05  4.02432  0.0  -0.076384  4.4e-05  4.046083  0.0  -0.031501  3.2e-05  -0.088495  -0.0694  4.5e-05  4.009261  0.0
C  C87  1  0.31903003  0.03982163  0.03047105  1  -0.062634  0.000117  3.768881  0.0  -0.072076  4e-05  4.024266  0.0  -0.076322  4.3e-05  4.046034  0.0  -0.031545  3.2e-05  -0.088534  -0.069337  4.6e-05  4.009203  0.0
C  C88  1  0.92760091  0.11770623  0.11944371  1  -0.082459  -0.000121  3.722425  0.0  -0.117128  -7.4e-05  3.968944  0.0  -0.115132  -5e-05  3.987041  0.0  -0.002408  -0.000209  -0.077526  -0.117884  -0.000114  3.956374  0.0
C  C89  1  0.07239994  0.88228435  0.88055488  1  -0.082277  -0.000118  3.72225  0.0  -0.116956  -7.3e-05  3.968682  0.0  -0.11496  -5.1e-05  3.986772  0.0  -0.002223  -0.000208  -0.077421  -0.11771  -0.000114  3.956109  0.0
N  N90  1  0.51237437  0.10372438  0.43165361  1  -0.239709  0.002806  3.341617  0.002  -0.181612  0.000944  3.626111  0.001  -0.211738  0.000967  3.643417  0.001  -1.186043  0.001146  -0.328498  -0.165011  0.001299  3.616626  0.001
N  N91  1  0.48888308  0.56628385  0.87891726  1  -0.288691  -0.051718  3.244995  -0.081  -0.245606  -0.032567  3.526632  -0.053  -0.273894  -0.025568  3.547371  -0.044  -1.197323  -0.066698  -0.315191  -0.226341  -0.038746  3.513548  -0.06
N  N92  1  0.48762277  0.89628076  0.56834836  1  -0.239571  0.002815  3.341547  0.002  -0.181381  0.000944  3.625954  0.001  -0.211506  0.000966  3.643251  0.001  -1.185746  0.001147  -0.328405  -0.164782  0.001299  3.616468  0.001
N  N93  1  0.51112725  0.43371967  0.12108213  1  -0.288649  -0.051714  3.24518  -0.081  -0.2454  -0.032566  3.526629  -0.053  -0.273676  -0.025567  3.54736  -0.044  -1.196644  -0.066697  -0.315143  -0.226134  -0.038745  3.513542  -0.06
N  N94  1  0.92475691  0.91971128  0.24883620  1  -0.44631  2.7e-05  3.360503  0.0  -0.39161  1.9e-05  3.620363  0.0  -0.414695  1.7e-05  3.630125  0.0  -1.255891  -2e-06  -0.434465  -0.375478  1.1e-05  3.613135  0.0
N  N95  1  0.10497602  0.75291741  0.07538226  1  -0.408748  -0.001555  3.373281  -0.002  -0.354104  -0.000647  3.629949  -0.001  -0.375616  -0.000367  3.638735  0.0  -1.262459  -0.002101  -0.428298  -0.33935  -0.001052  3.623484  -0.001
N  N96  1  0.07523425  0.08028981  0.75117126  1  -0.44637  2.7e-05  3.360153  0.0  -0.391755  1.9e-05  3.620077  0.0  -0.414849  1.5e-05  3.629828  0.0  -1.255583  -2e-06  -0.43453  -0.375632  1.1e-05  3.612853  0.0
N  N97  1  0.89502792  0.24708045  0.92461836  1  -0.408785  -0.001554  3.373286  -0.002  -0.354061  -0.000647  3.629976  -0.001  -0.375577  -0.000368  3.638765  0.0  -1.262238  -0.002101  -0.428244  -0.339309  -0.001052  3.623511  -0.001
O  O98  1  0.26236536  0.96909715  0.46079698  1  -0.547235  -3.5e-05  2.143653  0.0  -0.51133  -8e-06  2.438561  0.0  -0.556673  6e-06  2.428755  0.0  -1.091525  -6.4e-05  -0.293537  -0.481533  -3.5e-05  2.444185  0.0
O  O99  1  0.76485572  0.54336088  0.03640478  1  -0.590504  -0.047341  2.080499  -0.08  -0.559935  -0.029769  2.352819  -0.052  -0.599065  -0.021774  2.344987  -0.041  -1.155147  -0.067296  -0.296064  -0.5305  -0.037555  2.356881  -0.063
O  O100  1  0.73762889  0.03091122  0.53920519  1  -0.547217  -3.5e-05  2.143571  0.0  -0.51127  -8e-06  2.438493  0.0  -0.55661  6e-06  2.428689  0.0  -1.091472  -6.4e-05  -0.293453  -0.481474  -3.5e-05  2.444123  0.0
O  O101  1  0.23514554  0.45664103  0.96359634  1  -0.590441  -0.047337  2.080463  -0.08  -0.559874  -0.029767  2.352698  -0.052  -0.599003  -0.021772  2.344863  -0.041  -1.155138  -0.067289  -0.296042  -0.530442  -0.037551  2.356762  -0.063
O  O102  1  0.26578633  0.89028068  0.28426176  1  -0.605965  -1e-05  2.009567  0.0  -0.548588  -3.5e-05  2.22844  0.0  -0.575435  -2.4e-05  2.219621  0.0  -1.189961  -8.9e-05  -0.294968  -0.53009  -4.7e-05  2.234153  0.0
O  O103  1  0.77289193  0.72388606  0.10121538  1  -0.637677  0.001426  2.062044  0.0  -0.574717  0.001107  2.284359  0.0  -0.601809  0.001338  2.275821  0.001  -1.208714  -8e-06  -0.313687  -0.555643  0.000862  2.289647  0.0
O  O104  1  0.73420957  0.10971960  0.71574135  1  -0.606111  -1e-05  2.009517  0.0  -0.548703  -3.5e-05  2.228377  0.0  -0.575554  -2.4e-05  2.219563  0.0  -1.190072  -8.9e-05  -0.295021  -0.530207  -4.7e-05  2.234093  0.0
O  O105  1  0.22711180  0.27611584  0.89878518  1  -0.637599  0.001426  2.062082  0.0  -0.574669  0.001107  2.284354  0.0  -0.601759  0.001338  2.275814  0.001  -1.208753  -8e-06  -0.313666  -0.555592  0.000862  2.289637  0.0
O  O106  1  0.02881607  0.09928413  0.31396603  1  -0.561053  1.6e-05  1.889745  0.0  -0.521983  7e-06  2.107852  0.0  -0.542699  1e-05  2.102436  0.0  -1.144492  6e-06  -0.310876  -0.50699  1.2e-05  2.110853  0.0
O  O107  1  0.99392523  0.68395695  0.89963559  1  -0.56872  -0.000593  1.90523  -0.001  -0.527366  -0.000335  2.129083  0.0  -0.548498  -0.000191  2.122641  0.0  -1.160412  -0.001004  -0.307729  -0.51217  -0.000543  2.132872  -0.001
O  O108  1  0.97118230  0.90071616  0.68603286  1  -0.560981  1.6e-05  1.889887  0.0  -0.52193  7e-06  2.107951  0.0  -0.542647  1.1e-05  2.102537  0.0  -1.144592  6e-06  -0.310885  -0.506937  1.2e-05  2.110951  0.0
O  O109  1  0.00606531  0.31603687  0.10036781  1  -0.568744  -0.000592  1.905041  -0.001  -0.527388  -0.000335  2.128922  0.0  -0.548522  -0.00019  2.122477  0.0  -1.16031  -0.001004  -0.307781  -0.512192  -0.000543  2.132717  -0.001
O  O110  1  0.45620999  0.20209200  0.69039790  1  -0.808263  -0.001187  1.763107  -0.002  -0.765465  -0.000984  1.91382  -0.001  -0.781967  -0.000591  1.885875  -0.001  -1.256209  -0.002863  -0.590798  -0.753453  -0.001526  1.933496  -0.002
O  O111  1  0.53940956  0.34528805  0.90268673  1  -0.784544  -0.041963  1.949119  -0.069  -0.760947  -0.029182  2.155609  -0.049  -0.792184  -0.021588  2.122616  -0.039  -1.224582  -0.065251  -0.578982  -0.736965  -0.036351  2.176556  -0.058
O  O112  1  0.54378653  0.79791071  0.30960391  1  -0.808162  -0.001187  1.763298  -0.002  -0.76537  -0.000984  1.913967  -0.001  -0.781872  -0.000591  1.886023  -0.001  -1.255949  -0.002862  -0.590764  -0.753359  -0.001525  1.933643  -0.002
O  O113  1  0.46059582  0.65471547  0.09731085  1  -0.784523  -0.041962  1.949274  -0.069  -0.76093  -0.029181  2.15568  -0.049  -0.792182  -0.021587  2.122705  -0.039  -1.224524  -0.065251  -0.578956  -0.736935  -0.036349  2.176667  -0.058
