# generated using pymatgen
data_Zn4H32C44O29
_symmetry_space_group_name_H-M   'P 1'
_cell_length_a   17.78030273
_cell_length_b   18.65565299
_cell_length_c   23.25008315
_cell_angle_alpha   66.40171501
_cell_angle_beta   69.73406294
_cell_angle_gamma   89.98338159
_symmetry_Int_Tables_number   1
_chemical_formula_structural   Zn4H32C44O29
_chemical_formula_sum   'Zn8 H64 C88 O58'
_cell_volume   6543.25259654
_cell_formula_units_Z   2
loop_
 _symmetry_equiv_pos_site_id
 _symmetry_equiv_pos_as_xyz
  1  'x, y, z'
loop_
 _atom_site_type_symbol
 _atom_site_label
 _atom_site_symmetry_multiplicity
 _atom_site_fract_x
 _atom_site_fract_y
 _atom_site_fract_z
 _atom_site_occupancy
 _atom_site_pbe_bader_charge
 _atom_site_pbe_bader_spin_density
 _atom_site_pbe_cm5_charge
 _atom_site_pbe_ddec_charge
 _atom_site_pbe_ddec_spin_density
 _atom_site_pbe_ddec_sum_bond_order
 _atom_site_pbe_magmom
Zn  Zn0  1  0.11936860  0.53531397  0.94352723  1  1.311593  0  0.674489  0.96228  0  2.368772  0
Zn  Zn1  1  0.97408473  0.56209863  0.05029238  1  1.306526  0  0.673802  0.956889  0  2.39387  0
Zn  Zn2  1  0.97871861  0.38870362  0.04845323  1  1.313958  0  0.674961  0.958451  0  2.392272  0
Zn  Zn3  1  0.93494130  0.52605929  0.93864094  1  1.317472  0  0.677203  0.971204  0  2.330635  0
Zn  Zn4  1  0.38502486  0.98293820  0.04894229  1  1.314236  0  0.674114  0.961516  0  2.369563  0
Zn  Zn5  1  0.52972404  0.11698147  0.93875852  1  1.314731  0  0.675815  0.96038  0  2.394255  0
Zn  Zn6  1  0.52333392  0.94389265  0.93996422  1  1.314092  0  0.675467  0.960313  0  2.390642  0
Zn  Zn7  1  0.57003804  0.96995107  0.05011293  1  1.315317  0  0.676472  0.969808  0  2.334403  0
H  H8  1  0.19311951  0.30464665  0.91237400  1  0.053738  0  0.095434  0.096086  0  0.973956  0
H  H9  1  0.12892672  0.23134058  0.99277304  1  0.037873  0  0.094244  0.094151  0  0.979831  0
H  H10  1  0.22285174  0.14610491  0.97856203  1  0.040889  0  0.093482  0.092278  0  0.983427  0
H  H11  1  0.29203753  0.22380848  0.90365818  1  0.015041  0  0.091901  0.087169  0  0.977146  0
H  H12  1  0.21582450  0.13330211  0.09200183  1  0.034048  0  0.091697  0.092648  0  0.985388  0
H  H13  1  0.29107332  0.18746702  0.09894470  1  0.01295  0  0.089216  0.08293  0  0.98276  0
H  H14  1  0.13552785  0.23103383  0.10082916  1  0.058606  0  0.095697  0.104212  0  0.987231  0
H  H15  1  0.21710691  0.29132419  0.09436632  1  0.002436  0  0.09159  0.088613  0  0.973757  0
H  H16  1  0.30596800  0.39421806  0.90510046  1  0.053608  0  0.09404  0.099402  0  0.981002  0
H  H17  1  0.31046636  0.39656628  0.97872699  1  0.021016  0  0.090822  0.088118  0  0.981997  0
H  H18  1  0.39322227  0.29842738  0.99011729  1  0.021644  0  0.089775  0.086562  0  0.978732  0
H  H19  1  0.40003947  0.30648523  0.91048869  1  0.036029  0  0.091279  0.092608  0  0.986183  0
H  H20  1  0.89157034  0.79033088  0.91938012  1  0.031786  0  0.09346  0.090783  0  0.976037  0
H  H21  1  0.87032228  0.77378829  0.00436095  1  0.021297  0  0.094528  0.095373  0  0.979651  0
H  H22  1  0.79203642  0.87567064  0.98661082  1  0.044491  0  0.093969  0.093963  0  0.984991  0
H  H23  1  0.79842115  0.87761754  0.90820104  1  0.000472  0  0.090081  0.084843  0  0.977538  0
H  H24  1  0.69508007  0.76728506  0.09500466  1  0.028217  0  0.093069  0.093815  0  0.980812  0
H  H25  1  0.61495816  0.71105022  0.09519879  1  0.028773  0  0.089709  0.083546  0  0.981742  0
H  H26  1  0.76326314  0.65794243  0.10211495  1  0.05379  0  0.094998  0.104104  0  0.992041  0
H  H27  1  0.69255741  0.61333532  0.08375491  1  0.020844  0  0.091113  0.087991  0  0.97297  0
H  H28  1  0.79203694  0.71851668  0.89562789  1  0.048052  0  0.093325  0.096517  0  0.977443  0
H  H29  1  0.71992799  0.63693998  0.96194352  1  0.026902  0  0.091228  0.089675  0  0.982025  0
H  H30  1  0.62191016  0.71755115  0.98059805  1  0.00348  0  0.090294  0.088551  0  0.977829  0
H  H31  1  0.68725164  0.79448754  0.90456422  1  0.058939  0  0.09017  0.090241  0  0.988582  0
H  H32  1  0.15932962  0.80255028  0.93901877  1  0.021186  0  0.091733  0.086988  0  0.977987  0
H  H33  1  0.24002270  0.76538223  0.89494879  1  0.045666  0  0.09182  0.088894  0  0.985225  0
H  H34  1  0.33629555  0.85313201  0.89243494  1  0.066911  0  0.09718  0.102927  0  0.97716  0
H  H35  1  0.25546006  0.89696616  0.92767480  1  0.025714  0  0.092375  0.087102  0  0.977114  0
H  H36  1  0.39345582  0.74845531  0.96816906  1  0.054897  0  0.094568  0.096117  0  0.987061  0
H  H37  1  0.34157950  0.70784252  0.05720761  1  0.035449  0  0.091381  0.086959  0  0.975611  0
H  H38  1  0.30717011  0.66179383  0.95960410  1  0.031284  0  0.09354  0.095239  0  0.982816  0
H  H39  1  0.26479000  0.61389803  0.04899101  1  0.007955  0  0.090466  0.083833  0  0.980034  0
H  H40  1  0.09783316  0.73620210  0.06881549  1  0.049734  0  0.091729  0.093267  0  0.987832  0
H  H41  1  0.14745831  0.66583682  0.11275659  1  0.011807  0  0.088258  0.083529  0  0.980235  0
H  H42  1  0.22467758  0.77025913  0.10905064  1  0.03218  0  0.092328  0.099372  0  0.989301  0
H  H43  1  0.18431303  0.84059868  0.05584091  1  0.032735  0  0.090786  0.090454  0  0.978769  0
H  H44  1  0.89520146  0.25676611  0.93947551  1  0.015589  0  0.09261  0.087981  0  0.978404  0
H  H45  1  0.85818191  0.33704166  0.89006651  1  0.037123  0  0.092499  0.088947  0  0.981819  0
H  H46  1  0.76329547  0.24985924  0.89058663  1  0.055095  0  0.097203  0.104997  0  0.980384  0
H  H47  1  0.80789266  0.17082317  0.93223951  1  0.03548  0  0.092434  0.087588  0  0.976743  0
H  H48  1  0.63879480  0.28915800  0.95869358  1  0.031379  0  0.095407  0.099758  0  0.986426  0
H  H49  1  0.60609360  0.24737720  0.04803830  1  0.003392  0  0.090222  0.08543  0  0.977979  0
H  H50  1  0.73453319  0.38487777  0.94744677  1  0.046018  0  0.09323  0.094278  0  0.982318  0
H  H51  1  0.69312932  0.34996844  0.03637573  1  0.048762  0  0.089309  0.082896  0  0.980398  0
H  H52  1  0.83453517  0.20243628  0.06898088  1  0.058665  0  0.09196  0.094723  0  0.990995  0
H  H53  1  0.74641501  0.23505530  0.10780176  1  0.00494  0  0.086528  0.080031  0  0.9819  0
H  H54  1  0.66967399  0.13252465  0.10870326  1  0.057171  0  0.09284  0.097141  0  0.982527  0
H  H55  1  0.75743162  0.10848064  0.06053251  1  0.033607  0  0.091781  0.091909  0  0.979006  0
H  H56  1  0.55845025  0.81923266  0.26764494  1  0.615199  0  0.345801  0.382103  0  0.850151  0
H  H57  1  0.19920398  0.91915374  0.24987682  1  0.601144  0  0.345912  0.382566  0  0.850356  0
H  H58  1  0.15537680  0.86771610  0.40431084  1  0.624816  0  0.346874  0.379476  0  0.85508  0
H  H59  1  0.43724016  0.71316756  0.42559621  1  0.618377  0  0.345145  0.382804  0  0.850564  0
H  H60  1  0.35513968  0.77716741  0.58443943  1  0.618388  0  0.345884  0.378834  0  0.856541  0
H  H61  1  0.07442434  0.64436141  0.56416276  1  0.619144  0  0.34568  0.383816  0  0.849216  0
H  H62  1  0.95305634  0.59508450  0.71753639  1  0.613517  0  0.345342  0.381418  0  0.851651  0
H  H63  1  0.31041325  0.67327396  0.74165601  1  0.619211  0  0.345633  0.382275  0  0.851549  0
H  H64  1  0.68199098  0.95860292  0.73222959  1  0.616983  0  0.345667  0.38217  0  0.851608  0
H  H65  1  0.58156882  0.30833660  0.72900332  1  0.60691  0  0.346027  0.383382  0  0.849523  0
H  H66  1  0.63948007  0.35184879  0.56730482  1  0.61792  0  0.34611  0.38422  0  0.847827  0
H  H67  1  0.78865519  0.07302985  0.57699788  1  0.608773  0  0.346501  0.380343  0  0.853611  0
H  H68  1  0.71794765  0.15308336  0.41168509  1  0.636327  0  0.346985  0.380805  0  0.852971  0
H  H69  1  0.86798263  0.43075654  0.41515688  1  0.623178  0  0.345559  0.377649  0  0.856275  0
H  H70  1  0.91859008  0.54394123  0.25770618  1  0.610305  0  0.345283  0.381724  0  0.849588  0
H  H71  1  0.82215393  0.19756950  0.25390462  1  0.609754  0  0.345067  0.381728  0  0.852841  0
C  C72  1  0.14060756  0.64255450  0.00254663  1  1.527277  0  0.236237  0.604514  0  4.097166  0
C  C73  1  0.91289696  0.41128014  0.17408178  1  1.555116  0  0.230294  0.603657  0  4.182477  0
C  C74  1  0.14952624  0.37109242  0.99861489  1  1.553272  0  0.238955  0.606657  0  4.087669  0
C  C75  1  0.85936617  0.36069501  0.99502958  1  1.533695  0  0.235404  0.603545  0  4.097025  0
C  C76  1  0.08709346  0.59249713  0.81637316  1  1.684177  0  0.232781  0.61121  0  4.1657  0
C  C77  1  0.85399246  0.63487766  0.99467596  1  1.51267  0  0.240536  0.60988  0  4.083538  0
C  C78  1  0.36417666  0.14920133  0.99419190  1  1.53658  0  0.236056  0.604963  0  4.093378  0
C  C79  1  0.58812686  0.09156378  0.81470595  1  1.565657  0  0.231712  0.606666  0  4.171185  0
C  C80  1  0.35349086  0.87078721  0.99745473  1  1.540147  0  0.238979  0.605715  0  4.089255  0
C  C81  1  0.63905431  0.85723469  0.99592060  1  1.533746  0  0.235867  0.605579  0  4.094072  0
C  C82  1  0.42036335  0.91360619  0.17461798  1  1.628972  0  0.231006  0.608144  0  4.172002  0
C  C83  1  0.64610327  0.13488626  0.99739386  1  1.538827  0  0.23732  0.603731  0  4.0899  0
C  C84  1  0.38302335  0.87387887  0.25069792  1  0.117801  0  0.004232  -0.044454  0  3.907199  0
C  C85  1  0.43005029  0.87058017  0.28912998  1  -0.026764  0  0.002081  -0.076573  0  3.956093  0
C  C86  1  0.39502992  0.83108026  0.36008231  1  -0.020475  0  -0.001923  -0.11358  0  3.945048  0
C  C87  1  0.31078725  0.80094856  0.39312199  1  0.096983  0  0.006453  0.097243  0  4.089564  0
C  C88  1  0.26332062  0.80753025  0.35382584  1  0.067317  0  -0.003175  -0.11565  0  3.948282  0
C  C89  1  0.30021020  0.84063831  0.28300020  1  -0.148463  0  -0.000279  -0.08054  0  3.964236  0
C  C90  1  0.27357528  0.76499738  0.46477328  1  -0.368672  0  -0.0352  -0.089852  0  4.099184  0
C  C91  1  0.24004848  0.73419887  0.52648380  1  0.041657  0  -0.034519  -0.088077  0  4.098634  0
C  C92  1  0.20175665  0.69865774  0.59806381  1  0.076538  0  0.006921  0.097582  0  4.091072  0
C  C93  1  0.24777983  0.66525280  0.63853543  1  -0.075968  0  -0.003532  -0.115966  0  3.948857  0
C  C94  1  0.20931608  0.62733886  0.70925405  1  0.006225  0  0.000711  -0.079157  0  3.961176  0
C  C95  1  0.12629048  0.62877222  0.74037353  1  0.029548  0  0.004807  -0.043387  0  3.90587  0
C  C96  1  0.08073614  0.66465165  0.70078240  1  -0.003659  0  0.001625  -0.076107  0  3.957947  0
C  C97  1  0.11736056  0.69631245  0.62989904  1  0.040306  0  -0.002723  -0.11497  0  3.945044  0
C  C98  1  0.62750108  0.12948979  0.73893398  1  0.075844  0  0.002633  -0.048374  0  3.916112  0
C  C99  1  0.62990946  0.08414543  0.70264319  1  -0.061796  0  0.001876  -0.074747  0  3.960768  0
C  C100  1  0.66977652  0.11874819  0.63201415  1  0.073063  0  -0.00318  -0.116153  0  3.947444  0
C  C101  1  0.70091740  0.20085857  0.59683046  1  0.112156  0  0.006918  0.096649  0  4.096928  0
C  C102  1  0.69513080  0.24671952  0.63372789  1  0.111246  0  -0.003644  -0.116645  0  3.949103  0
C  C103  1  0.66179778  0.21017634  0.70472833  1  -0.109248  0  0.002411  -0.074457  0  3.959449  0
C  C104  1  0.73728052  0.23666728  0.52528963  1  -0.113394  0  -0.034574  -0.087899  0  4.107122  0
C  C105  1  0.76807738  0.26714681  0.46349105  1  -0.318222  0  -0.03402  -0.087282  0  4.106122  0
C  C106  1  0.80353272  0.30258864  0.39190315  1  0.134197  0  0.007337  0.098374  0  4.094915  0
C  C107  1  0.83493892  0.25585516  0.35651911  1  0.016034  0  -0.002999  -0.116452  0  3.946783  0
C  C108  1  0.87340519  0.29187195  0.28576404  1  0.020479  0  0.001961  -0.074907  0  3.959945  0
C  C109  1  0.87417902  0.37314060  0.24985213  1  0.080564  0  0.001813  -0.049513  0  3.92041  0
C  C110  1  0.83961013  0.41937888  0.28431912  1  -0.108187  0  0.001755  -0.075631  0  3.963979  0
C  C111  1  0.80765959  0.38503256  0.35526694  1  0.055732  0  -0.004379  -0.117859  0  3.95227  0
C  C112  1  0.19104359  0.26428725  0.96290080  1  -0.046655  0  -0.153401  -0.174033  0  3.845464  0
C  C113  1  0.25364998  0.20730481  0.95709312  1  -0.022045  0  -0.154722  -0.168567  0  3.85222  0
C  C114  1  0.30849757  0.21079198  0.99543468  1  0.054157  0  -0.015884  0.019436  0  3.814336  0
C  C115  1  0.25319798  0.19174344  0.06934717  1  -0.023135  0  -0.159489  -0.173262  0  3.874553  0
C  C116  1  0.19974450  0.25687728  0.07072531  1  -0.009217  0  -0.159568  -0.178743  0  3.857465  0
C  C117  1  0.20995363  0.31370348  0.99773075  1  0.040745  0  -0.015471  0.025188  0  3.812447  0
C  C118  1  0.29810601  0.35657819  0.95778324  1  -0.026472  0  -0.163792  -0.181849  0  3.88382  0
C  C119  1  0.35668049  0.29500365  0.96133483  1  -0.012894  0  -0.163509  -0.176767  0  3.883981  0
C  C120  1  0.84217440  0.77576720  0.96861735  1  -0.029268  0  -0.154446  -0.172763  0  3.851723  0
C  C121  1  0.78470087  0.83831881  0.96188067  1  -0.012276  0  -0.155683  -0.169696  0  3.857706  0
C  C122  1  0.69557179  0.79624368  0.99484421  1  0.060491  0  -0.017131  0.017914  0  3.814144  0
C  C123  1  0.67997349  0.73592655  0.06828008  1  -0.029762  0  -0.156854  -0.170785  0  3.865783  0
C  C124  1  0.73149152  0.66928345  0.06720229  1  -0.017071  0  -0.157744  -0.17566  0  3.848111  0
C  C125  1  0.79377228  0.69260360  0.99447463  1  0.072582  0  -0.015869  0.022266  0  3.812317  0
C  C126  1  0.74826756  0.69681280  0.94816251  1  -0.040173  0  -0.163625  -0.181033  0  3.887552  0
C  C127  1  0.68366066  0.75165287  0.95470646  1  -0.019917  0  -0.164359  -0.178343  0  3.888934  0
C  C128  1  0.21618261  0.77925833  0.93901809  1  -0.039355  0  -0.154169  -0.167487  0  3.853245  0
C  C129  1  0.27851033  0.84048984  0.93524377  1  -0.049449  0  -0.155221  -0.171882  0  3.847489  0
C  C130  1  0.29438717  0.80837409  0.00182885  1  0.057625  0  -0.015571  0.022737  0  3.814773  0
C  C131  1  0.33304842  0.73254413  0.00867611  1  -0.052835  0  -0.157182  -0.172714  0  3.854751  0
C  C132  1  0.27766937  0.67165602  0.00521720  1  -0.000831  0  -0.158821  -0.170726  0  3.866884  0
C  C133  1  0.19703813  0.70182001  0.00460359  1  0.045577  0  -0.016035  0.019267  0  3.813329  0
C  C134  1  0.15784895  0.72013918  0.06638417  1  -0.027264  0  -0.164739  -0.177161  0  3.881349  0
C  C135  1  0.21335033  0.78744279  0.06212535  1  -0.006507  0  -0.163422  -0.18222  0  3.877209  0
C  C136  1  0.83973761  0.28138263  0.93650840  1  -0.024319  0  -0.152978  -0.165404  0  3.849922  0
C  C137  1  0.77984627  0.22250716  0.93508507  1  -0.035424  0  -0.154139  -0.172513  0  3.840228  0
C  C138  1  0.70173513  0.19414805  0.00013371  1  0.044266  0  -0.016276  0.022514  0  3.815433  0
C  C139  1  0.66008039  0.26672003  0.00075973  1  1.7e-05  0  -0.159188  -0.178313  0  3.859847  0
C  C140  1  0.72007386  0.33160344  0.99515903  1  -0.049452  0  -0.159169  -0.169527  0  3.870748  0
C  C141  1  0.79898549  0.29969742  0.99875995  1  0.045434  0  -0.016525  0.019385  0  3.812175  0
C  C142  1  0.77821175  0.22237013  0.06386972  1  -0.027563  0  -0.163951  -0.176704  0  3.880257  0
C  C143  1  0.72491458  0.15806968  0.06244227  1  -0.049499  0  -0.163783  -0.180915  0  3.881208  0
C  C144  1  0.51544033  0.91709788  0.25477363  1  1.562494  0  0.234573  0.580925  0  4.14431  0
C  C145  1  0.25295785  0.83161382  0.24241801  1  1.578391  0  0.233779  0.579556  0  4.146311  0
C  C146  1  0.17407430  0.77324566  0.38924209  1  1.561339  0  0.229757  0.565308  0  4.160917  0
C  C147  1  0.44533706  0.82585027  0.40183626  1  1.543619  0  0.228073  0.558707  0  4.168899  0
C  C148  1  0.33728629  0.66578390  0.60460608  1  1.538586  0  0.229232  0.562691  0  4.163651  0
C  C149  1  0.06846663  0.73395447  0.58710755  1  1.551007  0  0.227701  0.558852  0  4.168997  0
C  C150  1  0.99517415  0.67750398  0.73385691  1  1.587223  0  0.233507  0.578713  0  4.147793  0
C  C151  1  0.25528472  0.57770745  0.75107932  1  1.546092  0  0.233802  0.580247  0  4.146364  0
C  C152  1  0.58194610  0.00106676  0.73805720  1  1.577999  0  0.233142  0.58163  0  4.145475  0
C  C153  1  0.67131278  0.25592651  0.74364718  1  1.599202  0  0.232368  0.57901  0  4.150955  0
C  C154  1  0.73047852  0.33373386  0.59636233  1  1.559216  0  0.228187  0.562284  0  4.16497  0
C  C155  1  0.67415001  0.07055937  0.59236014  1  1.555768  0  0.228548  0.560128  0  4.164766  0
C  C156  1  0.83239896  0.16837985  0.39597278  1  1.55164  0  0.229752  0.564548  0  4.16296  0
C  C157  1  0.77194596  0.43396605  0.39334167  1  1.558687  0  0.228383  0.56203  0  4.167382  0
C  C158  1  0.82793626  0.50327677  0.24584527  1  1.597941  0  0.232655  0.578318  0  4.148274  0
C  C159  1  0.92166306  0.24478938  0.24969774  1  1.559571  0  0.233466  0.579906  0  4.147426  0
O  O160  1  0.00167846  0.50366660  0.99405653  1  -1.230609  0  -0.573724  -1.029548  0  2.539984  0
O  O161  1  0.17241840  0.60996559  0.96274471  1  -1.164629  0  -0.317005  -0.55296  0  2.347564  0
O  O162  1  0.94128398  0.48459984  0.14700014  1  -1.164684  0  -0.298184  -0.527578  0  2.357415  0
O  O163  1  0.07637404  0.34108939  0.04003969  1  -1.183412  0  -0.313692  -0.546469  0  2.366098  0
O  O164  1  0.06533931  0.63112953  0.03908503  1  -1.183422  0  -0.313182  -0.544219  0  2.367488  0
O  O165  1  0.17534306  0.44386480  0.95739901  1  -1.176901  0  -0.308319  -0.538249  0  2.361686  0
O  O166  1  0.91369079  0.36660693  0.14466076  1  -1.148522  0  -0.297376  -0.526168  0  2.353031  0
O  O167  1  0.90522310  0.33422111  0.02800766  1  -1.178818  0  -0.315273  -0.547824  0  2.374633  0
O  O168  1  0.01213035  0.56368541  0.84232250  1  -1.168543  0  -0.296806  -0.526854  0  2.332016  0
O  O169  1  0.86186374  0.43363313  0.95773318  1  -1.169957  0  -0.314911  -0.551197  0  2.335597  0
O  O170  1  0.13380817  0.59472572  0.84663076  1  -1.166742  0  -0.300661  -0.533361  0  2.351368  0
O  O171  1  0.88810650  0.62239367  0.03724981  1  -1.178251  0  -0.316073  -0.549655  0  2.369875  0
O  O172  1  0.86729656  0.60482801  0.95222156  1  -1.15552  0  -0.309263  -0.539999  0  2.348386  0
O  O173  1  0.50202166  0.00270953  0.99583329  1  -1.234795  0  -0.574785  -1.031895  0  2.544799  0
O  O174  1  0.33160898  0.07647140  0.03096591  1  -1.171657  0  -0.317439  -0.55361  0  2.346287  0
O  O175  1  0.55851253  0.13717498  0.84226206  1  -1.165022  0  -0.298762  -0.529373  0  2.349495  0
O  O176  1  0.42366811  0.88941405  0.94999059  1  -1.181223  0  -0.315734  -0.55012  0  2.363186  0
O  O177  1  0.43901263  0.17413248  0.95624510  1  -1.182795  0  -0.312054  -0.543414  0  2.368451  0
O  O178  1  0.32918659  0.90029198  0.04036027  1  -1.163619  0  -0.307925  -0.534637  0  2.359543  0
O  O179  1  0.58828857  0.01764566  0.84387844  1  -1.163845  0  -0.297421  -0.52692  0  2.348966  0
O  O180  1  0.59413065  0.86630548  0.96188254  1  -1.178027  0  -0.312698  -0.544619  0  2.374421  0
O  O181  1  0.49502062  0.91073593  0.14734460  1  -1.163318  0  -0.296448  -0.525414  0  2.330559  0
O  O182  1  0.64063123  0.89507406  0.03093065  1  -1.173612  0  -0.317181  -0.554622  0  2.334363  0
O  O183  1  0.37250507  0.94601345  0.14560356  1  -1.166884  0  -0.300739  -0.533852  0  2.348367  0
O  O184  1  0.61776679  0.16268433  0.95064356  1  -1.172202  0  -0.314457  -0.547717  0  2.374447  0
O  O185  1  0.63282515  0.06269485  0.04043079  1  -1.170588  0  -0.308176  -0.537218  0  2.347879  0
O  O186  1  0.57762418  0.87484731  0.25393660  1  -1.093  0  -0.323  -0.456641  0  2.192539  0
O  O187  1  0.52709943  0.98871327  0.23228471  1  -1.046788  0  -0.260034  -0.416744  0  2.037612  0
O  O188  1  0.19369862  0.87658794  0.23654502  1  -1.075246  0  -0.322369  -0.455961  0  2.198097  0
O  O189  1  0.26425834  0.78220256  0.22014336  1  -1.087081  0  -0.258525  -0.416065  0  2.041889  0
O  O190  1  0.12415253  0.81983477  0.41120093  1  -1.10229  0  -0.317155  -0.45049  0  2.231563  0
O  O191  1  0.14756035  0.70858305  0.39737375  1  -1.084636  0  -0.261035  -0.411381  0  2.026156  0
O  O192  1  0.46409748  0.75316836  0.43236419  1  -1.090681  0  -0.317985  -0.454472  0  2.228326  0
O  O193  1  0.46891607  0.88263332  0.40759053  1  -1.073829  0  -0.259675  -0.407474  0  2.030118  0
O  O194  1  0.38672587  0.73545030  0.57996713  1  -1.084978  0  -0.317365  -0.450385  0  2.231644  0
O  O195  1  0.36440757  0.60785846  0.59996797  1  -1.075288  0  -0.260403  -0.4092  0  2.026418  0
O  O196  1  0.04830623  0.69159222  0.55726608  1  -1.094497  0  -0.317681  -0.455454  0  2.231656  0
O  O197  1  0.04687430  0.79749707  0.58023230  1  -1.081982  0  -0.259006  -0.406857  0  2.030684  0
O  O198  1  0.93367298  0.63622502  0.73229200  1  -1.094042  0  -0.322321  -0.455612  0  2.196026  0
O  O199  1  0.98285300  0.72574814  0.75735236  1  -1.085657  0  -0.263265  -0.41791  0  2.031929  0
O  O200  1  0.31448630  0.61695589  0.75691961  1  -1.107091  0  -0.323162  -0.456758  0  2.196157  0
O  O201  1  0.24296093  0.50599369  0.77469604  1  -1.054185  0  -0.262321  -0.419293  0  2.03758  0
O  O202  1  0.62511268  0.94029409  0.74337511  1  -1.104808  0  -0.324583  -0.459549  0  2.195299  0
O  O203  1  0.50863614  0.99004089  0.75676951  1  -1.063052  0  -0.261716  -0.417052  0  2.033351  0
O  O204  1  0.62460942  0.31324597  0.74492177  1  -1.095327  0  -0.324165  -0.459038  0  2.19596  0
O  O205  1  0.72214998  0.24507525  0.76868132  1  -1.093172  0  -0.258027  -0.414556  0  2.04553  0
O  O206  1  0.68636511  0.38223111  0.56461360  1  -1.095015  0  -0.317836  -0.455601  0  2.231609  0
O  O207  1  0.79372515  0.35980598  0.59515095  1  -1.079282  0  -0.260073  -0.409529  0  2.027575  0
O  O208  1  0.74736403  0.04894924  0.56835223  1  -1.081432  0  -0.317106  -0.450302  0  2.233229  0
O  O209  1  0.61611754  0.05107230  0.58283171  1  -1.078851  0  -0.258627  -0.406813  0  2.028461  0
O  O210  1  0.75999482  0.12144895  0.42026131  1  -1.102586  0  -0.317413  -0.451365  0  2.232435  0
O  O211  1  0.89118606  0.14081669  0.40513641  1  -1.079467  0  -0.259608  -0.409093  0  2.028588  0
O  O212  1  0.81891135  0.45525270  0.42102555  1  -1.095365  0  -0.316116  -0.44781  0  2.232658  0
O  O213  1  0.70598072  0.45415924  0.39875683  1  -1.080399  0  -0.26003  -0.409383  0  2.029895  0
O  O214  1  0.87381085  0.56311521  0.24368985  1  -1.09149  0  -0.323773  -0.457487  0  2.195315  0
O  O215  1  0.77577434  0.51576041  0.22219968  1  -1.091827  0  -0.256501  -0.412964  0  2.043893  0
O  O216  1  0.87884638  0.18985094  0.24359057  1  -1.092265  0  -0.323473  -0.458028  0  2.197969  0
O  O217  1  0.99496624  0.25243603  0.23122874  1  -1.061586  0  -0.259212  -0.41431  0  2.036889  0
