# generated using pymatgen
data_ZnH12C16(NO)4
_symmetry_space_group_name_H-M   'P 1'
_cell_length_a   5.71175728
_cell_length_b   12.23943257
_cell_length_c   15.95630824
_cell_angle_alpha   65.24882941
_cell_angle_beta   79.69452889
_cell_angle_gamma   76.48483496
_symmetry_Int_Tables_number   1
_chemical_formula_structural   ZnH12C16(NO)4
_chemical_formula_sum   'Zn2 H24 C32 N8 O8'
_cell_volume   980.79953371
_cell_formula_units_Z   2
loop_
 _symmetry_equiv_pos_site_id
 _symmetry_equiv_pos_as_xyz
  1  'x, y, z'
loop_
 _atom_site_type_symbol
 _atom_site_label
 _atom_site_symmetry_multiplicity
 _atom_site_fract_x
 _atom_site_fract_y
 _atom_site_fract_z
 _atom_site_occupancy
 _atom_site_pbe_bader_charge
 _atom_site_pbe_bader_spin_density
 _atom_site_pbe_cm5_charge
 _atom_site_pbe_ddec_charge
 _atom_site_pbe_ddec_spin_density
 _atom_site_pbe_ddec_sum_bond_order
 _atom_site_pbe_magmom
Zn  Zn0  1  0.85239718  0.74989049  0.25006667  1  1.246982  0  0.696481  0.751915  0  2.418286  0
Zn  Zn1  1  0.14760187  0.25012466  0.74992488  1  1.247014  0  0.696483  0.75187  0  2.418362  0
H  H2  1  0.70416921  0.39219417  0.54081632  1  0.076883  0  0.09762  0.112651  0  1.047449  0
H  H3  1  0.63453854  0.10864467  0.96000077  1  0.100782  0  0.097789  0.112885  0  1.048352  0
H  H4  1  0.29584196  0.60781624  0.45917161  1  0.076661  0  0.09767  0.112734  0  1.0473  0
H  H5  1  0.36546796  0.89137635  0.04000081  1  0.100762  0  0.097842  0.113006  0  1.048219  0
H  H6  1  0.78472321  0.71910672  0.44524021  1  0.143121  0  0.123684  0.098758  0  1.002609  0
H  H7  1  0.94928921  0.78084876  0.05540344  1  0.136125  0  0.123797  0.098616  0  1.002182  0
H  H8  1  0.21530001  0.28088025  0.55476484  1  0.143378  0  0.123621  0.098685  0  1.002639  0
H  H9  1  0.05070592  0.21915732  0.94459333  1  0.136106  0  0.123758  0.098576  0  1.002224  0
H  H10  1  0.96039369  0.77696774  0.54918465  1  0.100759  0  0.116765  0.129084  0  0.975915  0
H  H11  1  0.28628040  0.72345664  0.95105522  1  0.100397  0  0.116653  0.129302  0  0.974837  0
H  H12  1  0.03961870  0.22302469  0.45081805  1  0.100349  0  0.116742  0.129115  0  0.975938  0
H  H13  1  0.71372586  0.27654305  0.04894357  1  0.10036  0  0.116648  0.129283  0  0.974864  0
H  H14  1  0.21047405  0.91257859  0.21493158  1  0.15638  0  0.123303  0.106985  0  1.003136  0
H  H15  1  0.33931574  0.58667407  0.28534804  1  0.147919  0  0.123358  0.107136  0  1.003757  0
H  H16  1  0.78950948  0.08742034  0.78507218  1  0.156273  0  0.123319  0.107039  0  1.003084  0
H  H17  1  0.66066700  0.41332219  0.71465856  1  0.147986  0  0.123361  0.107176  0  1.003767  0
H  H18  1  0.24595429  0.88037362  0.57272338  1  0.111161  0  0.120045  0.08494  0  0.971177  0
H  H19  1  0.69939653  0.62010743  0.92721481  1  0.066009  0  0.12011  0.085188  0  0.970164  0
H  H20  1  0.75404832  0.11963158  0.42727442  1  0.111139  0  0.120035  0.084915  0  0.971165  0
H  H21  1  0.30059491  0.37988424  0.07279275  1  0.066001  0  0.12017  0.08528  0  0.970171  0
H  H22  1  0.40974130  0.97774629  0.30999434  1  0.123756  0  0.115471  0.124665  0  0.994439  0
H  H23  1  0.69826999  0.52167067  0.18994246  1  0.141477  0  0.115229  0.124055  0  0.995272  0
H  H24  1  0.59026242  0.02224516  0.69000679  1  0.124017  0  0.115482  0.12469  0  0.994363  0
H  H25  1  0.30171646  0.47832014  0.81006698  1  0.141415  0  0.115222  0.124012  0  0.995361  0
C  C26  1  0.61531474  0.47695065  0.49046207  1  0.025224  0  -0.091465  -0.173298  0  3.90015  0
C  C27  1  0.58178917  0.02325276  0.00984422  1  0.008195  0  -0.091927  -0.174491  0  3.902304  0
C  C28  1  0.38470342  0.52305963  0.50952165  1  -0.094922  0  -0.091532  -0.173512  0  3.899891  0
C  C29  1  0.41822302  0.97676737  0.99015853  1  -0.123611  0  -0.091915  -0.17466  0  3.902242  0
C  C30  1  0.92021559  0.77805418  0.41797823  1  0.456035  0  0.05743  0.10564  0  3.925084  0
C  C31  1  0.11666159  0.72187960  0.08246898  1  0.509997  0  0.057724  0.105948  0  3.920849  0
C  C32  1  0.07977478  0.22194569  0.58202599  1  0.456848  0  0.057484  0.105754  0  3.924927  0
C  C33  1  0.88334260  0.27813219  0.91753276  1  0.509966  0  0.057702  0.105915  0  3.921026  0
C  C34  1  0.76311800  0.53797168  0.40315412  1  1.534993  0  0.188098  0.594026  0  4.23359  0
C  C35  1  0.70389006  0.96183744  0.09706910  1  1.544985  0  0.189201  0.596549  0  4.234577  0
C  C36  1  0.23688570  0.46202848  0.59683089  1  1.534927  0  0.188295  0.594308  0  4.233334  0
C  C37  1  0.29610589  0.03817259  0.90293506  1  1.545348  0  0.189121  0.596561  0  4.234712  0
C  C38  1  0.19776947  0.88462420  0.43750318  1  0.016524  0  0.009916  0.098725  0  4.013929  0
C  C39  1  0.52017749  0.61540335  0.06263743  1  -0.025183  0  0.009548  0.097605  0  4.013859  0
C  C40  1  0.80222164  0.11537830  0.56249697  1  0.016739  0  0.009961  0.098835  0  4.013806  0
C  C41  1  0.47981115  0.38459099  0.93736691  1  -0.025568  0  0.009495  0.09753  0  4.013776  0
C  C42  1  0.01945390  0.81101224  0.47540552  1  -0.027813  0  -0.069259  -0.151658  0  3.922086  0
C  C43  1  0.30598562  0.68909440  0.02486179  1  -0.025006  0  -0.068426  -0.150771  0  3.917793  0
C  C44  1  0.98057133  0.18897373  0.52459722  1  -0.028676  0  -0.069281  -0.151801  0  3.921987  0
C  C45  1  0.69400650  0.31090542  0.97514107  1  -0.02486  0  -0.068397  -0.150689  0  3.917669  0
C  C46  1  0.16092849  0.88585077  0.28905326  1  0.489689  0  0.058556  0.112922  0  3.898794  0
C  C47  1  0.33658484  0.61361289  0.21126786  1  0.49121  0  0.058751  0.113046  0  3.897906  0
C  C48  1  0.83905805  0.11414448  0.71095091  1  0.490061  0  0.058515  0.112847  0  3.898742  0
C  C49  1  0.66342275  0.38638881  0.78873580  1  0.490778  0  0.058733  0.112908  0  3.89784  0
C  C50  1  0.30361803  0.91794817  0.49808488  1  0.604059  0  0.082071  0.058731  0  3.913351  0
C  C51  1  0.71977652  0.58227167  0.00190655  1  0.659228  0  0.082468  0.059101  0  3.911341  0
C  C52  1  0.69637151  0.08205332  0.50191258  1  0.604096  0  0.082033  0.058696  0  3.913452  0
C  C53  1  0.28022667  0.41772729  0.99809834  1  0.659553  0  0.082329  0.058908  0  3.911475  0
C  C54  1  0.26905381  0.92222578  0.34192891  1  -0.040123  0  -0.068431  -0.143532  0  3.887936  0
C  C55  1  0.53374578  0.57739845  0.15823302  1  -0.055889  0  -0.068285  -0.143005  0  3.88927  0
C  C56  1  0.73094920  0.07776742  0.65806916  1  -0.040485  0  -0.068467  -0.143599  0  3.887936  0
C  C57  1  0.46624711  0.42259411  0.84177350  1  -0.056028  0  -0.068222  -0.142863  0  3.88914  0
N  N58  1  0.98965693  0.81459109  0.32660774  1  -1.249993  0  -0.322169  -0.22519  0  3.561427  0
N  N59  1  0.13152560  0.68514983  0.17382891  1  -1.257122  0  -0.323191  -0.225745  0  3.559168  0
N  N60  1  0.01033732  0.18540227  0.67339528  1  -1.250123  0  -0.322036  -0.22507  0  3.561196  0
N  N61  1  0.86847388  0.31483906  0.82617839  1  -1.25678  0  -0.323132  -0.225617  0  3.559213  0
N  N62  1  0.46112010  0.99003039  0.46547691  1  -0.733723  0  -0.210548  -0.177672  0  3.335327  0
N  N63  1  0.91656757  0.50988475  0.03452080  1  -0.762351  0  -0.210628  -0.177625  0  3.335075  0
N  N64  1  0.53887032  0.00997389  0.53452081  1  -0.758696  0  -0.21056  -0.177669  0  3.335445  0
N  N65  1  0.08343531  0.49010397  0.96548131  1  -0.743535  0  -0.210585  -0.177567  0  3.33511  0
O  O66  1  0.65145385  0.64154664  0.34553276  1  -1.16938  0  -0.346706  -0.57378  0  2.342233  0
O  O67  1  0.63856689  0.85814955  0.15449767  1  -1.185493  0  -0.347141  -0.574437  0  2.343524  0
O  O68  1  0.34853825  0.35845631  0.65445275  1  -1.169201  0  -0.346745  -0.573851  0  2.34218  0
O  O69  1  0.36141350  0.14185730  0.84549423  1  -1.185588  0  -0.347129  -0.57445  0  2.343703  0
O  O70  1  0.97858064  0.49132097  0.38996005  1  -1.168041  0  -0.332577  -0.558105  0  2.066151  0
O  O71  1  0.85949192  0.00841473  0.11031007  1  -1.162773  0  -0.333303  -0.559084  0  2.06587  0
O  O72  1  0.02142935  0.50867644  0.61002546  1  -1.167906  0  -0.332762  -0.55827  0  2.066273  0
O  O73  1  0.14051634  0.99158518  0.88969540  1  -1.162797  0  -0.333269  -0.559104  0  2.065969  0
