# generated using pymatgen
data_Mn2H10C12N4O11
_symmetry_space_group_name_H-M   'P 1'
_cell_length_a   8.58775060
_cell_length_b   10.49601507
_cell_length_c   10.65041213
_cell_angle_alpha   77.18358005
_cell_angle_beta   66.22289748
_cell_angle_gamma   65.84868802
_symmetry_Int_Tables_number   1
_chemical_formula_structural   Mn2H10C12N4O11
_chemical_formula_sum   'Mn4 H20 C24 N8 O22'
_cell_volume   799.75496602
_cell_formula_units_Z   2
loop_
 _symmetry_equiv_pos_site_id
 _symmetry_equiv_pos_as_xyz
  1  'x, y, z'
loop_
 _atom_site_type_symbol
 _atom_site_label
 _atom_site_symmetry_multiplicity
 _atom_site_fract_x
 _atom_site_fract_y
 _atom_site_fract_z
 _atom_site_occupancy
 _atom_site_hle17_ddec_charge
 _atom_site_hle17_ddec_spin_density
 _atom_site_hle17_ddec_sum_bond_order
 _atom_site_hle17_magmom
 _atom_site_hse06_10hf_ddec_charge
 _atom_site_hse06_10hf_ddec_spin_density
 _atom_site_hse06_10hf_ddec_sum_bond_order
 _atom_site_hse06_10hf_magmom
 _atom_site_hse06_ddec_charge
 _atom_site_hse06_ddec_spin_density
 _atom_site_hse06_ddec_sum_bond_order
 _atom_site_hse06_magmom
 _atom_site_pbe_cm5_charge
 _atom_site_pbe_ddec_charge
 _atom_site_pbe_ddec_spin_density
 _atom_site_pbe_ddec_sum_bond_order
 _atom_site_pbe_magmom
Mn  Mn0  1  0.03727963  0.31848661  0.58977995  1  1.207251  4.797026  1.708051  4.687  1.050658  4.713623  2.180894  4.542  1.107201  4.763722  2.111669  4.609  0.602752  1.008781  4.654896  2.231701  4.467
Mn  Mn1  1  0.94589848  0.18158706  0.91003110  1  1.206324  4.793834  1.708282  4.687  1.050272  4.71079  2.180806  4.541  1.106628  4.761136  2.111643  4.609  0.602871  1.008081  4.652671  2.231377  4.467
Mn  Mn2  1  0.96276324  0.68166943  0.41003266  1  1.206952  -4.797099  1.708286  -4.687  1.05038  -4.713431  2.181037  -4.542  1.106928  -4.763538  2.111839  -4.609  0.602705  1.008419  -4.65471  2.231954  -4.467
Mn  Mn3  1  0.05411705  0.81824415  0.09011685  1  1.20622  -4.793763  1.708089  -4.687  1.050215  -4.710996  2.180393  -4.541  1.106551  -4.761328  2.111282  -4.609  0.602854  1.008081  -4.652894  2.230831  -4.467
H  H4  1  0.21005357  0.33534040  0.73977283  1  0.41766  0.000115  0.893779  0.001  0.385218  0.001031  0.959312  0.002  0.397493  0.000704  0.941922  0.002  0.292676  0.376529  0.00134  0.971558  0.003
H  H5  1  0.28512020  0.16468080  0.76043495  1  0.417634  0.000121  0.894059  0.001  0.385008  0.001048  0.959822  0.002  0.397341  0.000716  0.942363  0.002  0.292016  0.376345  0.001344  0.972031  0.003
H  H6  1  0.78995955  0.66461600  0.26017530  1  0.417741  -0.000114  0.893645  -0.001  0.385284  -0.001029  0.959121  -0.002  0.397541  -0.000701  0.941769  -0.002  0.292944  0.376597  -0.001337  0.971363  -0.003
H  H7  1  0.71479167  0.83534069  0.23960663  1  0.417506  -0.000121  0.894238  -0.001  0.384892  -0.001048  0.959979  -0.002  0.397226  -0.000716  0.942523  -0.002  0.292024  0.376232  -0.001344  0.972177  -0.003
H  H8  1  0.58059823  0.35182638  0.35759425  1  0.107758  6.8e-05  0.977513  0.0  0.109258  4.5e-05  1.048387  0.0  0.113518  1.7e-05  1.044389  0.0  0.123634  0.106059  2.7e-05  1.051599  0.0
H  H9  1  0.29052526  0.14819811  0.14233321  1  0.108211  5.7e-05  0.976895  0.0  0.109875  0.0  1.04749  0.0  0.114131  -1.2e-05  1.043494  0.0  0.123365  0.1065  2.8e-05  1.051123  0.0
H  H10  1  0.41946916  0.64821994  0.64230483  1  0.108166  -7.3e-05  0.977567  0.0  0.109579  -4.6e-05  1.048374  0.0  0.113834  -1.7e-05  1.044389  0.0  0.123822  0.10638  -2.7e-05  1.051588  0.0
H  H11  1  0.70947764  0.85178902  0.85779103  1  0.108132  -5.3e-05  0.976905  0.0  0.109904  -1e-06  1.047415  0.0  0.114164  1.1e-05  1.043404  0.0  0.123377  0.106517  -2.9e-05  1.051077  0.0
H  H12  1  0.69198746  0.98437786  0.60831202  1  0.113154  0.000522  0.951967  0.0  0.113204  0.000513  1.02545  0.0  0.117597  0.000515  1.020673  0.0  0.12392  0.109782  0.000489  1.029267  0.0
H  H13  1  0.28495448  0.51570516  0.89177921  1  0.113364  0.000497  0.951891  0.0  0.113631  0.000477  1.025348  0.0  0.118029  0.000489  1.020547  0.0  0.124318  0.110295  0.000485  1.028874  0.0
H  H14  1  0.30781688  0.01579136  0.39179522  1  0.113129  -0.00052  0.952077  0.0  0.113181  -0.000512  1.025532  0.0  0.117594  -0.000515  1.02072  0.0  0.124058  0.109743  -0.000489  1.029398  0.0
H  H15  1  0.71516268  0.48412023  0.10808889  1  0.113312  -0.000497  0.95186  0.0  0.113603  -0.000477  1.025361  0.0  0.118014  -0.00049  1.020526  0.0  0.124212  0.110267  -0.000485  1.028884  0.0
H  H16  1  0.32407038  0.30732443  0.35571822  1  0.428028  6.7e-05  0.870972  0.001  0.394544  0.000707  0.938776  0.002  0.406457  0.000489  0.921646  0.002  0.295433  0.386186  0.000927  0.950758  0.002
H  H17  1  0.98745091  0.19252641  0.14421935  1  0.426551  9.2e-05  0.872966  0.001  0.393959  0.000767  0.939577  0.002  0.405932  0.000527  0.92233  0.002  0.295173  0.385626  0.00092  0.951455  0.002
H  H18  1  0.67605850  0.69258593  0.64423795  1  0.428028  -6.5e-05  0.870517  -0.001  0.394459  -0.000707  0.938779  -0.002  0.406407  -0.000489  0.92161  -0.002  0.295241  0.386085  -0.000927  0.950771  -0.002
H  H19  1  0.01253656  0.80755580  0.85582608  1  0.426892  -9.2e-05  0.872391  -0.001  0.394198  -0.000766  0.939208  -0.002  0.406184  -0.000526  0.92196  -0.002  0.295289  0.385869  -0.000919  0.951078  -0.002
H  H20  1  0.40575758  0.18983734  0.45753913  1  0.398428  6.1e-05  0.896582  0.001  0.358839  0.00076  0.984896  0.002  0.370313  0.000486  0.96838  0.002  0.293419  0.350774  0.000997  0.996481  0.003
H  H21  1  0.05334113  0.31016255  0.04253588  1  0.39829  6.6e-05  0.896906  0.001  0.358774  0.000767  0.984831  0.002  0.370246  0.000493  0.968326  0.002  0.293744  0.350677  0.000998  0.99643  0.003
H  H22  1  0.59430757  0.81014222  0.54246938  1  0.398447  -5.8e-05  0.896514  -0.001  0.358926  -0.000761  0.984789  -0.002  0.370403  -0.000488  0.968265  -0.002  0.293451  0.350857  -0.000999  0.996378  -0.003
H  H23  1  0.94671792  0.68985250  0.95742658  1  0.398381  -6.7e-05  0.896671  -0.001  0.358976  -0.000767  0.984489  -0.002  0.370445  -0.000493  0.967988  -0.002  0.293885  0.350882  -0.000998  0.996086  -0.003
C  C24  1  0.80347537  0.45742282  0.39783819  1  0.634918  -0.00053  3.895821  0.0  0.58073  -0.00025  4.189829  0.0  0.614789  -0.000381  4.184294  0.0  0.229381  0.557588  -0.000228  4.192311  0.0
C  C25  1  0.65912691  0.04258072  0.10191076  1  0.633329  -0.000561  3.897758  0.0  0.57967  -0.000362  4.190403  0.0  0.613758  -0.000446  4.184863  0.0  0.229103  0.556449  -0.000314  4.193455  0.0
C  C26  1  0.19667773  0.54257617  0.60195441  1  0.634718  0.000535  3.896382  0.0  0.58078  0.000269  4.190143  0.0  0.614847  0.000395  4.184591  0.0  0.229213  0.557621  0.000251  4.192662  0.0
C  C27  1  0.34081938  0.95741177  0.89827884  1  0.633949  0.000561  3.896968  0.0  0.579977  0.000377  4.19018  0.0  0.614101  0.000455  4.184617  0.0  0.229281  0.556727  0.000331  4.193243  0.0
C  C28  1  0.76934635  0.32371173  0.45660693  1  0.075844  0.000792  3.718556  0.001  0.079319  0.003248  3.968242  0.003  0.076847  0.002568  3.984733  0.002  0.129169  0.080029  0.003506  3.958073  0.003
C  C29  1  0.55016616  0.17628082  0.04311444  1  0.075568  0.000728  3.721463  0.001  0.079108  0.003022  3.970035  0.003  0.076532  0.002463  3.986769  0.002  0.128826  0.079867  0.003543  3.960422  0.003
C  C30  1  0.23079928  0.67628108  0.54322835  1  0.076165  -0.000787  3.718045  -0.001  0.079621  -0.003255  3.967562  -0.003  0.07715  -0.002592  3.984041  -0.002  0.129176  0.080327  -0.003521  3.957396  -0.003
C  C31  1  0.44980220  0.82373894  0.95709962  1  0.075136  -0.000644  3.721603  -0.001  0.07903  -0.003027  3.970159  -0.003  0.076491  -0.00246  3.986836  -0.002  0.128753  0.079833  -0.003547  3.960499  -0.003
C  C32  1  0.65124019  0.28480204  0.42695478  1  0.100386  -0.0006  3.613071  -0.001  0.061312  0.000523  3.869746  0.0  0.068029  -0.00091  3.881031  -0.001  0.070489  0.0562  0.003196  3.863401  0.002
C  C33  1  0.36347594  0.21520598  0.07288677  1  0.099538  -0.000681  3.614934  -0.001  0.060898  0.000318  3.870192  0.0  0.067542  -0.000988  3.8817  -0.001  0.071025  0.055473  0.003195  3.864451  0.002
C  C34  1  0.34881965  0.71523800  0.57294250  1  0.099259  0.000607  3.613869  0.001  0.06048  -0.000524  3.870297  0.0  0.067196  0.000926  3.881579  0.001  0.069947  0.055366  -0.00319  3.863954  -0.002
C  C35  1  0.63653091  0.78476961  0.92723203  1  0.099673  0.000579  3.614795  0.0  0.060712  -0.000316  3.870331  0.0  0.067355  0.000986  3.881839  0.001  0.070869  0.055267  -0.003196  3.864576  -0.002
C  C36  1  0.71240727  0.08292336  0.56490214  1  0.11617  -3.8e-05  3.590488  0.0  0.077371  0.000574  3.850584  0.0  0.084024  -0.000334  3.862086  0.0  0.074253  0.072521  0.002164  3.844261  0.002
C  C37  1  0.36058781  0.41712947  0.93506862  1  0.115788  0.000141  3.595239  0.0  0.07603  0.000844  3.856641  0.001  0.082764  -0.000141  3.868062  0.0  0.07349  0.071437  0.002145  3.850034  0.002
C  C38  1  0.28749836  0.91719645  0.43510577  1  0.116348  4.1e-05  3.589821  0.0  0.07763  -0.000568  3.850185  0.0  0.084284  0.000352  3.861685  0.0  0.074317  0.072769  -0.002154  3.843861  -0.002
C  C39  1  0.63948496  0.58275686  0.06490698  1  0.116071  -0.000226  3.594812  0.0  0.076191  -0.000835  3.856161  -0.001  0.082926  0.000142  3.867592  0.0  0.073612  0.071593  -0.002142  3.849555  -0.002
C  C40  1  0.82908357  0.12267123  0.59645192  1  0.04867  0.002161  3.709038  0.002  0.05448  0.005288  3.960143  0.004  0.049904  0.0037  3.979856  0.004  0.121746  0.056827  0.007554  3.947922  0.006
C  C41  1  0.54854355  0.37740911  0.90343077  1  0.049764  0.002151  3.707158  0.002  0.055424  0.00506  3.95923  0.004  0.050762  0.003629  3.979016  0.004  0.122059  0.057687  0.007577  3.94719  0.006
C  C42  1  0.17087925  0.87740979  0.40352324  1  0.048938  -0.002182  3.709249  -0.002  0.054338  -0.005283  3.961083  -0.004  0.049759  -0.003719  3.980814  -0.004  0.121678  0.056697  -0.007556  3.948826  -0.006
C  C43  1  0.45148335  0.62252239  0.09662144  1  0.049156  -0.002068  3.707721  -0.002  0.055161  -0.005057  3.959465  -0.004  0.050499  -0.003619  3.97928  -0.004  0.121991  0.057435  -0.007569  3.947391  -0.006
C  C44  1  0.92909564  0.03774392  0.69294122  1  0.632585  0.008712  3.919401  0.008  0.569894  0.01628  4.232314  0.014  0.605322  0.010899  4.22545  0.01  0.219501  0.544787  0.022578  4.236975  0.019
C  C45  1  0.65988029  0.46247536  0.80692642  1  0.631672  0.008539  3.921942  0.008  0.568852  0.015958  4.234856  0.014  0.60432  0.010685  4.228013  0.01  0.218909  0.543551  0.022686  4.239868  0.019
C  C46  1  0.07074993  0.96231847  0.30713601  1  0.632211  -0.008639  3.919912  -0.008  0.569431  -0.016257  4.233132  -0.014  0.604844  -0.01088  4.226271  -0.01  0.219329  0.544338  -0.02255  4.237784  -0.019
C  C47  1  0.34009197  0.53746119  0.19303382  1  0.63234  -0.008532  3.920045  -0.008  0.569424  -0.015932  4.232943  -0.014  0.604868  -0.010664  4.226089  -0.01  0.219515  0.544135  -0.022654  4.237947  -0.019
N  N48  1  0.85470258  0.24401000  0.54299821  1  -0.302817  0.026154  3.263096  0.014  -0.257433  0.030692  3.527065  0.014  -0.26797  0.026174  3.542642  0.01  -0.286871  -0.249803  0.036333  3.517607  0.019
N  N49  1  0.64218679  0.25601461  0.95673762  1  -0.303713  0.025904  3.263006  0.014  -0.258216  0.030126  3.527069  0.014  -0.268814  0.025835  3.542693  0.01  -0.287326  -0.250631  0.036259  3.517434  0.019
N  N50  1  0.14539315  0.75601114  0.45687447  1  -0.302842  -0.02615  3.26285  -0.014  -0.257496  -0.030697  3.527152  -0.014  -0.268032  -0.026147  3.542724  -0.01  -0.286885  -0.249856  -0.036335  3.517685  -0.019
N  N51  1  0.35779775  0.74398623  0.04344103  1  -0.303768  -0.025977  3.264507  -0.014  -0.258513  -0.03012  3.528503  -0.014  -0.269119  -0.025831  3.544118  -0.01  -0.287465  -0.25095  -0.036254  3.518849  -0.019
N  N52  1  0.62010955  0.16591475  0.48292412  1  -0.24348  0.001653  3.044454  0.002  -0.19356  0.003875  3.302879  0.004  -0.202168  0.003065  3.311852  0.003  -0.279922  -0.188738  0.004975  3.298616  0.005
N  N53  1  0.26931464  0.33412924  0.01705201  1  -0.243029  0.001665  3.046218  0.002  -0.193018  0.003856  3.304568  0.004  -0.201659  0.00309  3.313556  0.003  -0.280045  -0.188045  0.005011  3.29994  0.005
N  N54  1  0.37986598  0.83417252  0.51704004  1  -0.243181  -0.001655  3.043928  -0.002  -0.193336  -0.003886  3.302267  -0.004  -0.201945  -0.00308  3.311242  -0.003  -0.27974  -0.188514  -0.004989  3.298007  -0.005
N  N55  1  0.73073776  0.66578754  0.98296850  1  -0.242918  -0.00158  3.045909  -0.002  -0.192926  -0.00386  3.304411  -0.004  -0.201569  -0.003087  3.313406  -0.003  -0.279948  -0.187956  -0.005012  3.299788  -0.005
O  O56  1  0.90543239  0.48281114  0.44244860  1  -0.649098  0.000107  2.122073  0.001  -0.572726  0.001173  2.390469  0.001  -0.60626  0.000872  2.376988  0.001  -0.284551  -0.547453  0.001533  2.398793  0.002
O  O57  1  0.83105152  0.01721835  0.05759276  1  -0.646874  -4.6e-05  2.122917  0.0  -0.570981  0.001129  2.391302  0.001  -0.60449  0.000808  2.377857  0.001  -0.284327  -0.545881  0.001382  2.399801  0.002
O  O58  1  0.09467499  0.51724961  0.55734274  1  -0.64887  -2.6e-05  2.122175  -0.001  -0.572888  -0.001081  2.390793  -0.001  -0.606431  -0.00079  2.377297  -0.001  -0.284584  -0.547587  -0.001435  2.399111  -0.002
O  O59  1  0.16891771  0.98270508  0.94260830  1  -0.647047  0.000119  2.122531  0.0  -0.571155  -0.001053  2.391125  -0.001  -0.604827  -0.000738  2.377821  -0.001  -0.284424  -0.546003  -0.001299  2.399593  -0.001
O  O60  1  0.73018318  0.53304896  0.31273982  1  -0.575811  0.002319  1.975414  0.002  -0.527606  0.00352  2.196387  0.003  -0.553638  0.002922  2.189522  0.003  -0.290769  -0.50888  0.004339  2.200404  0.004
O  O61  1  0.57638674  0.96684335  0.18683009  1  -0.575334  0.002321  1.976584  0.002  -0.52689  0.003502  2.196963  0.003  -0.553008  0.002912  2.190118  0.003  -0.290654  -0.5087  0.004288  2.201483  0.004
O  O62  1  0.26996455  0.46692072  0.68704710  1  -0.57582  -0.002309  1.975365  -0.002  -0.527647  -0.00351  2.196189  -0.003  -0.553682  -0.002913  2.189286  -0.003  -0.290529  -0.50892  -0.004325  2.200234  -0.004
O  O63  1  0.42353241  0.03316273  0.81335140  1  -0.575607  -0.002311  1.976066  -0.002  -0.527058  -0.003492  2.196599  -0.003  -0.553167  -0.002902  2.189721  -0.003  -0.290682  -0.50886  -0.004274  2.201119  -0.004
O  O64  1  0.01220774  0.09928761  0.72080523  1  -0.665117  0.044627  2.132581  0.024  -0.595531  0.055643  2.415468  0.03  -0.628458  0.050671  2.401179  0.026  -0.302087  -0.570971  0.060974  2.42489  0.035
O  O65  1  0.83244687  0.40096399  0.77878023  1  -0.663907  0.04489  2.137215  0.025  -0.594314  0.05597  2.420348  0.03  -0.627359  0.050986  2.406069  0.026  -0.300841  -0.569522  0.06098  2.429353  0.034
O  O66  1  0.98739908  0.90085157  0.27944861  1  -0.665269  -0.044687  2.132625  -0.024  -0.595238  -0.055694  2.415045  -0.03  -0.628155  -0.050722  2.40078  -0.026  -0.302124  -0.570664  -0.061021  2.424406  -0.035
O  O67  1  0.16755391  0.59888092  0.22090473  1  -0.663907  -0.044918  2.135441  -0.025  -0.594583  -0.056039  2.418942  -0.03  -0.627651  -0.051059  2.404771  -0.026  -0.301208  -0.569829  -0.061044  2.428012  -0.035
O  O68  1  0.92534658  0.91735152  0.73751054  1  -0.58641  0.008002  1.997394  0.009  -0.534243  0.014364  2.225175  0.016  -0.558775  0.010583  2.217424  0.012  -0.290169  -0.517485  0.01904  2.230521  0.021
O  O69  1  0.58010001  0.58296707  0.76265802  1  -0.587274  0.007841  1.999009  0.009  -0.533898  0.013955  2.225826  0.015  -0.55861  0.010286  2.218394  0.012  -0.290509  -0.517438  0.019094  2.231458  0.021
O  O70  1  0.07460820  0.08265508  0.26241185  1  -0.586217  -0.008032  1.997129  -0.009  -0.534045  -0.014372  2.224872  -0.016  -0.558647  -0.010594  2.217271  -0.012  -0.290104  -0.517275  -0.019052  2.230189  -0.021
O  O71  1  0.41977764  0.41705991  0.23750545  1  -0.587368  -0.007828  1.999426  -0.009  -0.533873  -0.013961  2.226197  -0.015  -0.558567  -0.01029  2.218752  -0.012  -0.290578  -0.517415  -0.019099  2.231843  -0.021
O  O72  1  0.17703682  0.25000499  0.75004676  1  -0.872937  0.049227  1.999904  0.03  -0.794878  0.062838  2.221738  0.04  -0.824639  0.057136  2.183159  0.035  -0.558026  -0.771542  0.067741  2.24833  0.045
O  O73  1  0.82288245  0.74999026  0.24995684  1  -0.872809  -0.049325  2.000261  -0.031  -0.794684  -0.062919  2.222354  -0.04  -0.824465  -0.05721  2.183809  -0.035  -0.558104  -0.771328  -0.06783  2.248923  -0.045
O  O74  1  0.29526677  0.23423582  0.43056996  1  -0.821362  0.033425  1.906952  0.019  -0.756867  0.041885  2.131503  0.023  -0.782074  0.037495  2.093032  0.019  -0.56252  -0.73678  0.045985  2.157964  0.027
O  O75  1  0.96035941  0.26569718  0.06941791  1  -0.819723  0.033219  1.908502  0.019  -0.755998  0.041654  2.132188  0.023  -0.781274  0.037386  2.093619  0.019  -0.562675  -0.736031  0.046002  2.158294  0.027
O  O76  1  0.70485189  0.76568604  0.56937754  1  -0.821289  -0.033457  1.906854  -0.019  -0.756812  -0.041908  2.13144  -0.023  -0.782055  -0.037511  2.092906  -0.02  -0.562309  -0.736698  -0.046014  2.157948  -0.027
O  O77  1  0.03963045  0.73436299  0.93059612  1  -0.819957  -0.033232  1.907957  -0.019  -0.756287  -0.041674  2.131745  -0.023  -0.781582  -0.037401  2.093111  -0.019  -0.562842  -0.73633  -0.046023  2.157857  -0.027
