# generated using pymatgen
data_CoH3C6SNO2
_symmetry_space_group_name_H-M   'P 1'
_cell_length_a   8.73376765
_cell_length_b   8.73373176
_cell_length_c   11.97356365
_cell_angle_alpha   90.00045129
_cell_angle_beta   90.00095057
_cell_angle_gamma   103.12011720
_symmetry_Int_Tables_number   1
_chemical_formula_structural   CoH3C6SNO2
_chemical_formula_sum   'Co4 H12 C24 S4 N4 O8'
_cell_volume   889.48297165
_cell_formula_units_Z   4
loop_
 _symmetry_equiv_pos_site_id
 _symmetry_equiv_pos_as_xyz
  1  'x, y, z'
loop_
 _atom_site_type_symbol
 _atom_site_label
 _atom_site_symmetry_multiplicity
 _atom_site_fract_x
 _atom_site_fract_y
 _atom_site_fract_z
 _atom_site_occupancy
 _atom_site_pbe_bader_charge
 _atom_site_pbe_bader_spin_density
 _atom_site_pbe_cm5_charge
 _atom_site_pbe_ddec_charge
 _atom_site_pbe_ddec_spin_density
 _atom_site_pbe_ddec_sum_bond_order
 _atom_site_pbe_magmom
Co  Co0  1  0.61538181  0.61539238  0.50000286  1  1.160136  2.526626  0.58852  0.70669  2.835025  2.735495  2.507
Co  Co1  1  0.38460634  0.38461136  0.00000261  1  1.160138  2.526646  0.588596  0.706843  2.835055  2.735428  2.507
Co  Co2  1  0.60558611  0.39442870  0.75000126  1  1.016908  2.380922  0.528138  0.700027  2.614041  2.933448  2.322
Co  Co3  1  0.39442519  0.60558847  0.24999571  1  1.016924  2.381017  0.528028  0.69988  2.614134  2.93309  2.322
H  H4  1  0.98526541  0.63487444  0.80496033  1  0.102971  0.001552  0.111642  0.127367  0.000681  0.986562  0.001
H  H5  1  0.01472655  0.36509117  0.30495963  1  0.103078  0.001553  0.111642  0.127325  0.000682  0.986549  0.001
H  H6  1  0.36511342  0.01474051  0.69503178  1  0.102895  0.001553  0.111683  0.127404  0.000681  0.98644  0.001
H  H7  1  0.63490224  0.98527353  0.19504721  1  0.103112  0.001553  0.111658  0.127322  0.000681  0.986688  0.001
H  H8  1  0.22843908  0.61161646  0.69836749  1  0.093334  5e-05  0.107768  0.114925  -0.000435  1.01152  0.0
H  H9  1  0.77155258  0.38835705  0.19836949  1  0.093111  5e-05  0.107795  0.115007  -0.000435  1.011408  0.0
H  H10  1  0.38836771  0.77156242  0.80162641  1  0.093183  5.1e-05  0.107789  0.114995  -0.000435  1.011416  0.0
H  H11  1  0.61163192  0.22844714  0.30163890  1  0.093428  5e-05  0.107794  0.114958  -0.000435  1.011448  0.0
H  H12  1  0.97824126  0.64440468  0.39260856  1  0.086196  0.00291  0.119417  0.096242  0.001012  0.996746  0.001
H  H13  1  0.02174513  0.35558135  0.89260174  1  0.08611  0.00291  0.119422  0.096228  0.001011  0.996644  0.001
H  H14  1  0.35557755  0.02175891  0.10739048  1  0.086243  0.002911  0.119371  0.096171  0.001012  0.996763  0.001
H  H15  1  0.64442636  0.97824937  0.60739817  1  0.086486  0.002909  0.119433  0.096214  0.001011  0.996778  0.001
C  C16  1  0.85369678  0.64612095  0.65324784  1  0.401107  -0.002181  0.112497  0.251602  -0.008512  4.024262  -0.009
C  C17  1  0.14630117  0.35387971  0.15324868  1  0.401044  -0.002182  0.112474  0.251551  -0.008509  4.024628  -0.009
C  C18  1  0.35388034  0.14631200  0.84674464  1  0.400249  -0.002177  0.112594  0.251677  -0.008509  4.0243  -0.009
C  C19  1  0.64612753  0.85369981  0.34675445  1  0.400775  -0.002182  0.112526  0.251563  -0.008508  4.024462  -0.009
C  C20  1  0.98870211  0.63721272  0.71408516  1  0.030782  0.02318  -0.083112  -0.157251  0.012304  3.936474  0.014
C  C21  1  0.01131247  0.36277611  0.21407939  1  0.030151  0.023184  -0.083105  -0.157187  0.012305  3.936563  0.014
C  C22  1  0.36278472  0.01131953  0.78591447  1  0.030876  0.023185  -0.083155  -0.157277  0.012306  3.936598  0.014
C  C23  1  0.63722151  0.98868895  0.28592327  1  0.031267  0.023182  -0.083055  -0.157078  0.012305  3.936441  0.014
C  C24  1  0.12273845  0.62600119  0.65542813  1  -0.037791  -0.008613  -0.062496  -0.03634  -0.009315  3.936663  -0.007
C  C25  1  0.87725448  0.37397554  0.15542382  1  -0.036964  -0.00862  -0.062481  -0.036392  -0.009321  3.93642  -0.007
C  C26  1  0.37399363  0.87727300  0.84456872  1  -0.037923  -0.008617  -0.062499  -0.036364  -0.009319  3.936595  -0.007
C  C27  1  0.62601196  0.12274632  0.34458580  1  -0.03757  -0.008618  -0.062577  -0.036483  -0.00932  3.936597  -0.007
C  C28  1  0.12334191  0.63167511  0.53823747  1  0.058395  0.038759  -0.01932  -0.092334  0.02079  3.972424  0.026
C  C29  1  0.87664693  0.36830973  0.03823563  1  0.0583  0.038756  -0.019282  -0.092341  0.020788  3.972418  0.026
C  C30  1  0.36832593  0.87666422  0.96175686  1  0.058335  0.038761  -0.019375  -0.092425  0.020791  3.972577  0.026
C  C31  1  0.63168144  0.12334878  0.46176983  1  0.058234  0.038744  -0.019247  -0.092272  0.020782  3.972714  0.026
C  C32  1  0.98439537  0.64164998  0.48355311  1  0.488208  -0.009087  0.058777  0.103713  -0.009764  3.896346  -0.006
C  C33  1  0.01559690  0.35833602  0.98355041  1  0.488339  -0.009094  0.058679  0.103711  -0.00977  3.896186  -0.006
C  C34  1  0.35833738  0.01561182  0.01644095  1  0.488348  -0.009092  0.058791  0.103817  -0.009768  3.89655  -0.006
C  C35  1  0.64166774  0.98440027  0.51645281  1  0.487896  -0.009093  0.058692  0.103714  -0.00977  3.896301  -0.006
C  C36  1  0.26722467  0.62459458  0.47374792  1  1.524775  0.002334  0.220406  0.584576  0.00178  4.174075  0.0
C  C37  1  0.73276621  0.37539331  0.97374489  1  1.524575  0.002335  0.220339  0.584574  0.001782  4.173989  0.0
C  C38  1  0.37540262  0.73278246  0.02624887  1  1.524937  0.002334  0.220298  0.584351  0.001782  4.174162  0.0
C  C39  1  0.62460272  0.26722750  0.52626394  1  1.524658  0.002331  0.220338  0.584487  0.001779  4.17414  0.0
S  S40  1  0.66895510  0.65027206  0.70847506  1  -0.281104  0.223223  -0.170267  -0.378312  0.11981  2.697882  0.138
S  S41  1  0.33104668  0.34973118  0.20847312  1  -0.281268  0.223224  -0.17029  -0.378299  0.11981  2.697754  0.138
S  S42  1  0.34973477  0.33105804  0.79152266  1  -0.280552  0.22322  -0.170336  -0.378357  0.119808  2.697653  0.138
S  S43  1  0.65028344  0.66895762  0.29152227  1  -0.281408  0.223231  -0.170247  -0.378261  0.119806  2.697552  0.138
N  N44  1  0.85300255  0.64523724  0.53986805  1  -1.274711  0.088233  -0.334558  -0.281531  0.048466  3.588113  0.076
N  N45  1  0.14699003  0.35475872  0.03986640  1  -1.274608  0.088218  -0.334518  -0.281506  0.048457  3.587924  0.076
N  N46  1  0.35475294  0.14699980  0.96013028  1  -1.274628  0.088226  -0.334612  -0.281635  0.048461  3.588153  0.076
N  N47  1  0.64525079  0.85300783  0.46013506  1  -1.274744  0.088212  -0.334583  -0.281505  0.048454  3.587936  0.076
O  O48  1  0.38243494  0.59490907  0.52740341  1  -1.153749  0.073751  -0.30544  -0.527543  0.03999  2.421725  0.061
O  O49  1  0.61755382  0.40508824  0.02741198  1  -1.153611  0.073789  -0.305479  -0.527696  0.040009  2.421489  0.061
O  O50  1  0.40508969  0.61756439  0.97258520  1  -1.153739  0.073772  -0.305463  -0.527571  0.040004  2.421444  0.061
O  O51  1  0.59490963  0.38244016  0.47260254  1  -1.153671  0.073776  -0.305526  -0.527716  0.040003  2.421609  0.061
O  O52  1  0.26199039  0.64937330  0.36836413  1  -1.126813  0.112093  -0.313587  -0.508415  0.058637  2.421112  0.089
O  O53  1  0.73798957  0.35061682  0.86836854  1  -1.126809  0.112082  -0.313522  -0.508363  0.058631  2.421332  0.089
O  O54  1  0.35062109  0.73800555  0.13162588  1  -1.126882  0.112065  -0.313461  -0.508196  0.058624  2.421271  0.089
O  O55  1  0.64938460  0.26200109  0.63164373  1  -1.126957  0.112093  -0.313514  -0.508284  0.058635  2.421433  0.089
