# generated using pymatgen
data_CuH4C6IN2
_symmetry_space_group_name_H-M   'P 1'
_cell_length_a   6.83745319
_cell_length_b   12.58847613
_cell_length_c   13.46813774
_cell_angle_alpha   68.84279533
_cell_angle_beta   80.53188146
_cell_angle_gamma   82.15965828
_symmetry_Int_Tables_number   1
_chemical_formula_structural   CuH4C6IN2
_chemical_formula_sum   'Cu6 H24 C36 I6 N12'
_cell_volume   1062.63014981
_cell_formula_units_Z   6
loop_
 _symmetry_equiv_pos_site_id
 _symmetry_equiv_pos_as_xyz
  1  'x, y, z'
loop_
 _atom_site_type_symbol
 _atom_site_label
 _atom_site_symmetry_multiplicity
 _atom_site_fract_x
 _atom_site_fract_y
 _atom_site_fract_z
 _atom_site_occupancy
 _atom_site_hle17_bader_spin_density
 _atom_site_hle17_ddec_charge
 _atom_site_hle17_ddec_spin_density
 _atom_site_hle17_ddec_sum_bond_order
 _atom_site_hle17_magmom
 _atom_site_hse06_10hf_bader_spin_density
 _atom_site_hse06_10hf_ddec_charge
 _atom_site_hse06_10hf_ddec_spin_density
 _atom_site_hse06_10hf_ddec_sum_bond_order
 _atom_site_hse06_10hf_magmom
 _atom_site_hse06_bader_spin_density
 _atom_site_hse06_ddec_charge
 _atom_site_hse06_ddec_spin_density
 _atom_site_hse06_ddec_sum_bond_order
 _atom_site_hse06_magmom
 _atom_site_pbe_bader_spin_density
 _atom_site_pbe_cm5_charge
 _atom_site_pbe_ddec_charge
 _atom_site_pbe_ddec_spin_density
 _atom_site_pbe_ddec_sum_bond_order
 _atom_site_pbe_magmom
Cu  Cu0  1  0.02211250  0.30671232  0.34977546  1  0  0.335263  0  2.123146  0  0  0.243794  0  2.613153  0  0  0.245991  0  2.566717  0  0  0.346378  0.245038  0  2.641444  0
Cu  Cu1  1  0.97788428  0.69328638  0.65022960  1  0  0.335288  0  2.123188  0  0  0.243814  0  2.613198  0  0  0.245998  0  2.566768  0  0  0.346367  0.245052  0  2.641497  0
Cu  Cu2  1  0.36603844  0.36612207  0.23831012  1  0  0.315332  0  2.090192  0  0  0.218666  0  2.585772  0  0  0.229898  0  2.532571  0  0  0.294076  0.215688  0  2.618063  0
Cu  Cu3  1  0.63394761  0.63387835  0.76168415  1  0  0.315415  0  2.089996  0  0  0.218765  0  2.585597  0  0  0.229991  0  2.532396  0  0  0.294103  0.215778  0  2.617887  0
Cu  Cu4  1  0.45208595  0.96699427  0.11778820  1  0  0.334223  0  2.135728  0  0  0.243764  0  2.615783  0  0  0.241642  0  2.575165  0  0  0.362192  0.248185  0  2.639744  0
Cu  Cu5  1  0.54791151  0.03300955  0.88220765  1  0  0.334098  0  2.135675  0  0  0.243676  0  2.615716  0  0  0.241551  0  2.575086  0  0  0.362193  0.248081  0  2.639674  0
H  H6  1  0.28087969  0.50343641  0.01918798  1  0  0.080673  0  0.927921  0  0  0.088214  0  0.993657  0  0  0.0919  0  0.990006  0  0  0.111495  0.085319  0  0.996672  0
H  H7  1  0.71913305  0.49656398  0.98080400  1  0  0.080675  0  0.927907  0  0  0.088206  0  0.993659  0  0  0.09189  0  0.990012  0  0  0.111503  0.085309  0  0.996675  0
H  H8  1  0.13377574  0.47569044  0.87373695  1  0  0.095649  0  1.002426  0  0  0.101711  0  1.071519  0  0  0.105277  0  1.070319  0  0  0.087253  0.098879  0  1.072944  0
H  H9  1  0.86624192  0.52430653  0.12625427  1  0  0.09564  0  1.002442  0  0  0.101706  0  1.071532  0  0  0.105271  0  1.070336  0  0  0.087242  0.098879  0  1.07295  0
H  H10  1  0.04833697  0.27864065  0.89822649  1  0  0.093959  0  0.955056  0  0  0.102381  0  1.019217  0  0  0.1056  0  1.017247  0  0  0.094191  0.099987  0  1.020763  0
H  H11  1  0.95168842  0.72135460  0.10177134  1  0  0.094035  0  0.954948  0  0  0.102415  0  1.019149  0  0  0.105619  0  1.017219  0  0  0.094208  0.100018  0  1.020712  0
H  H12  1  0.12892222  0.11652890  0.06453357  1  0  0.104249  0  0.985219  0  0  0.108264  0  1.059966  0  0  0.11353  0  1.054908  0  0  0.090068  0.104279  0  1.064005  0
H  H13  1  0.87107745  0.88346980  0.93546382  1  0  0.104313  0  0.985198  0  0  0.10833  0  1.059932  0  0  0.113582  0  1.054881  0  0  0.090082  0.104344  0  1.063969  0
H  H14  1  0.57550740  0.70553327  0.17072175  1  0  0.073082  0  0.970086  0  0  0.080288  0  1.037418  0  0  0.083724  0  1.0347  0  0  0.104535  0.077724  0  1.039653  0
H  H15  1  0.42449884  0.29447140  0.82927380  1  0  0.073121  0  0.970011  0  0  0.080313  0  1.037353  0  0  0.083748  0  1.034638  0  0  0.104563  0.077746  0  1.039588  0
H  H16  1  0.64668344  0.54221133  0.33742679  1  0  0.10023  0  0.964072  0  0  0.106198  0  1.032753  0  0  0.110808  0  1.028891  0  0  0.096255  0.102752  0  1.035685  0
H  H17  1  0.35332494  0.45779932  0.66256879  1  0  0.100192  0  0.964138  0  0  0.106202  0  1.032756  0  0  0.110804  0  1.028907  0  0  0.096248  0.102748  0  1.035701  0
H  H18  1  0.58974856  0.57776603  0.51436166  1  0  0.09181  0  0.974258  0  0  0.100898  0  1.039675  0  0  0.104433  0  1.0375  0  0  0.093759  0.098125  0  1.041583  0
H  H19  1  0.41025223  0.42223523  0.48563477  1  0  0.091754  0  0.974261  0  0  0.100815  0  1.039704  0  0  0.104351  0  1.037528  0  0  0.09372  0.098041  0  1.041611  0
H  H20  1  0.44116917  0.77045230  0.51532094  1  0  0.104464  0  0.984619  0  0  0.104792  0  1.066071  0  0  0.109247  0  1.062436  0  0  0.093418  0.101428  0  1.068963  0
H  H21  1  0.55882414  0.22954982  0.48468178  1  0  0.104418  0  0.984548  0  0  0.104779  0  1.065969  0  0  0.109228  0  1.062329  0  0  0.093387  0.101408  0  1.068864  0
H  H22  1  0.26356993  0.94543082  0.62626983  1  0  0.108065  0  0.988822  0  0  0.111636  0  1.063268  0  0  0.115339  0  1.062267  0  0  0.091977  0.109034  0  1.06385  0
H  H23  1  0.73644779  0.05457640  0.37372164  1  0  0.108139  0  0.988836  0  0  0.111736  0  1.06323  0  0  0.115408  0  1.062269  0  0  0.092014  0.109135  0  1.063814  0
H  H24  1  0.13743937  0.00048556  0.78915834  1  0  0.098044  0  0.968948  0  0  0.106173  0  1.036614  0  0  0.111124  0  1.032971  0  0  0.090599  0.102544  0  1.039284  0
H  H25  1  0.86258117  0.99950200  0.21084176  1  0  0.098113  0  0.968851  0  0  0.106217  0  1.036535  0  0  0.111167  0  1.032893  0  0  0.090632  0.102595  0  1.039204  0
H  H26  1  0.96461340  0.19686515  0.76175713  1  0  0.104786  0  0.951723  0  0  0.113324  0  1.016761  0  0  0.118042  0  1.013993  0  0  0.097791  0.109763  0  1.019108  0
H  H27  1  0.03539573  0.80311986  0.23825372  1  0  0.104892  0  0.951621  0  0  0.113404  0  1.016668  0  0  0.118137  0  1.013886  0  0  0.097836  0.109834  0  1.019049  0
H  H28  1  0.92024780  0.32781485  0.57512244  1  0  0.076301  0  0.959588  0  0  0.084561  0  1.025986  0  0  0.088274  0  1.023402  0  0  0.100185  0.081685  0  1.028107  0
H  H29  1  0.07974262  0.67217701  0.42489364  1  0  0.07629  0  0.959505  0  0  0.084552  0  1.025911  0  0  0.088266  0  1.02333  0  0  0.100172  0.081676  0  1.02803  0
C  C30  1  0.24344968  0.41912478  0.02673962  1  0  0.128147  0  3.674364  0  0  0.097638  0  3.926215  0  0  0.104287  0  3.940557  0  0  0.042425  0.093038  0  3.917592  0
C  C31  1  0.75654348  0.58087819  0.97325986  1  0  0.128216  0  3.674242  0  0  0.097749  0  3.926088  0  0  0.104381  0  3.940423  0  0  0.042506  0.093141  0  3.917455  0
C  C32  1  0.16161277  0.40288912  0.94575252  1  0  -0.105398  0  3.723682  0  0  -0.115909  0  3.966815  0  0  -0.120751  0  3.985874  0  0  -0.083702  -0.113364  0  3.955173  0
C  C33  1  0.83838976  0.59711042  0.05424657  1  0  -0.10543  0  3.723687  0  0  -0.115957  0  3.966826  0  0  -0.120797  0  3.985882  0  0  -0.083735  -0.113411  0  3.955184  0
C  C34  1  0.11652618  0.29351121  0.95919151  1  0  -0.003191  0  3.710935  0  0  -0.018118  0  3.953894  0  0  -0.014372  0  3.968748  0  0  -0.071889  -0.020806  0  3.944581  0
C  C35  1  0.88347515  0.70648663  0.04081049  1  0  -0.003213  0  3.710766  0  0  -0.018095  0  3.953733  0  0  -0.014357  0  3.968587  0  0  -0.07187  -0.02079  0  3.944426  0
C  C36  1  0.15904100  0.20354980  0.05198784  1  0  -0.109254  0  3.701502  0  0  -0.132255  0  3.950341  0  0  -0.133592  0  3.964468  0  0  -0.081501  -0.13206  0  3.942032  0
C  C37  1  0.84096168  0.79644889  0.94801300  1  0  -0.109328  0  3.701601  0  0  -0.132335  0  3.950442  0  0  -0.133673  0  3.964552  0  0  -0.081537  -0.132137  0  3.942135  0
C  C38  1  0.23450280  0.22725184  0.13114574  1  0  0.136382  0  3.740415  0  0  0.135781  0  3.974605  0  0  0.137495  0  3.993026  0  0  0.107953  0.134502  0  3.962987  0
C  C39  1  0.76549865  0.77274515  0.86885728  1  0  0.13627  0  3.74047  0  0  0.135699  0  3.974668  0  0  0.137463  0  3.99299  0  0  0.107922  0.13441  0  3.963047  0
C  C40  1  0.26182539  0.13733099  0.23576128  1  0  0.399489  0  3.68216  0  0  0.371094  0  3.933758  0  0  0.392949  0  3.937956  0  0  0.25445  0.356422  0  3.931654  0
C  C41  1  0.73817306  0.86266600  0.76423828  1  0  0.39936  0  3.681907  0  0  0.371018  0  3.933502  0  0  0.392855  0  3.937696  0  0  0.254465  0.356334  0  3.931394  0
C  C42  1  0.36053567  0.95392781  0.33784362  1  0  0.370432  0  3.732015  0  0  0.3419  0  3.993989  0  0  0.367043  0  3.998044  0  0  0.243621  0.325702  0  3.991083  0
C  C43  1  0.63946665  0.04607344  0.66215713  1  0  0.370397  0  3.731797  0  0  0.341966  0  3.993774  0  0  0.367111  0  3.997826  0  0  0.243544  0.325762  0  3.99086  0
C  C44  1  0.44718104  0.83947375  0.34316859  1  0  0.111994  0  3.772021  0  0  0.114746  0  4.00711  0  0  0.113  0  4.028068  0  0  0.105719  0.115725  0  3.992963  0
C  C45  1  0.55281782  0.16053093  0.65683056  1  0  0.11196  0  3.771893  0  0  0.114573  0  4.007183  0  0  0.112824  0  4.028129  0  0  0.105777  0.115548  0  3.993034  0
C  C46  1  0.55398260  0.71661071  0.24842194  1  0  0.129013  0  3.684424  0  0  0.099335  0  3.935891  0  0  0.105501  0  3.947503  0  0  0.040608  0.094972  0  3.928504  0
C  C47  1  0.44602626  0.28339652  0.75157400  1  0  0.128881  0  3.68428  0  0  0.099204  0  3.935827  0  0  0.105375  0  3.947434  0  0  0.040535  0.094838  0  3.928436  0
C  C48  1  0.59019252  0.62572196  0.34212917  1  0  -0.096593  0  3.714689  0  0  -0.108866  0  3.961794  0  0  -0.10946  0  3.976435  0  0  -0.083406  -0.108936  0  3.952274  0
C  C49  1  0.40980117  0.37428785  0.65786944  1  0  -0.096451  0  3.714855  0  0  -0.108734  0  3.961949  0  0  -0.10932  0  3.976595  0  0  -0.083323  -0.108801  0  3.952431  0
C  C50  1  0.55662915  0.64513209  0.43968286  1  0  -0.017023  0  3.702282  0  0  -0.031849  0  3.945788  0  0  -0.030003  0  3.961234  0  0  -0.074222  -0.033072  0  3.935911  0
C  C51  1  0.44336048  0.35487517  0.56031993  1  0  -0.017002  0  3.702507  0  0  -0.031802  0  3.94603  0  0  -0.029959  0  3.961459  0  0  -0.0742  -0.033023  0  3.936145  0
C  C52  1  0.47916474  0.75279553  0.44066633  1  0  -0.102741  0  3.687556  0  0  -0.12469  0  3.936344  0  0  -0.127147  0  3.955116  0  0  -0.076606  -0.123233  0  3.924091  0
C  C53  1  0.52082349  0.24721086  0.55933316  1  0  -0.102739  0  3.687529  0  0  -0.12464  0  3.936275  0  0  -0.127133  0  3.95516  0  0  -0.076645  -0.123174  0  3.924026  0
C  C54  1  0.23606417  0.08254695  0.41959465  1  0  0.379809  0  3.716886  0  0  0.349827  0  3.982749  0  0  0.375359  0  3.984449  0  0  0.245167  0.33347  0  3.981684  0
C  C55  1  0.76394125  0.91745345  0.58040761  1  0  0.379646  0  3.717099  0  0  0.34972  0  3.982868  0  0  0.375249  0  3.98457  0  0  0.245116  0.333371  0  3.981794  0
C  C56  1  0.16048179  0.10848857  0.51731549  1  0  0.131856  0  3.733057  0  0  0.131516  0  3.973829  0  0  0.131784  0  3.992643  0  0  0.10959  0.130777  0  3.96165  0
C  C57  1  0.83951608  0.89151269  0.48268564  1  0  0.131936  0  3.733095  0  0  0.131554  0  3.973853  0  0  0.131823  0  3.992667  0  0  0.109533  0.130815  0  3.961675  0
C  C58  1  0.18766271  0.02926816  0.61909846  1  0  -0.113132  0  3.682267  0  0  -0.137215  0  3.934224  0  0  -0.141742  0  3.954544  0  0  -0.083343  -0.134194  0  3.920778  0
C  C59  1  0.81233281  0.97072883  0.38090432  1  0  -0.113354  0  3.682543  0  0  -0.137431  0  3.934462  0  0  -0.14194  0  3.954799  0  0  -0.083403  -0.134409  0  3.921018  0
C  C60  1  0.11644560  0.05993137  0.70872719  1  0  -0.004981  0  3.687509  0  0  -0.024314  0  3.942899  0  0  -0.021032  0  3.955992  0  0  -0.07531  -0.026531  0  3.934478  0
C  C61  1  0.88355895  0.94006475  0.29127733  1  0  -0.005019  0  3.68755  0  0  -0.024323  0  3.942918  0  0  -0.021042  0  3.956013  0  0  -0.075348  -0.02654  0  3.9345  0
C  C62  1  0.02196905  0.16925646  0.69374902  1  0  -0.089152  0  3.682778  0  0  -0.10625  0  3.937772  0  0  -0.107323  0  3.95192  0  0  -0.081603  -0.106034  0  3.929044  0
C  C63  1  0.97803255  0.83073967  0.30625649  1  0  -0.089182  0  3.682696  0  0  -0.106277  0  3.937705  0  0  -0.107363  0  3.951856  0  0  -0.081592  -0.106065  0  3.928978  0
C  C64  1  0.99597226  0.24246532  0.59000904  1  0  0.125885  0  3.686524  0  0  0.097446  0  3.936767  0  0  0.102771  0  3.951195  0  0  0.04071  0.093799  0  3.92771  0
C  C65  1  0.00402490  0.75753082  0.40999834  1  0  0.126003  0  3.686392  0  0  0.097563  0  3.936605  0  0  0.102884  0  3.951046  0  0  0.04078  0.093923  0  3.927544  0
I  I66  1  0.72990696  0.29753133  0.25359283  1  0  -0.416687  0  1.585806  0  0  -0.360041  0  2.04294  0  0  -0.383594  0  2.007385  0  0  -0.201888  -0.34322  0  2.064801  0
I  I67  1  0.27008634  0.70247079  0.74640841  1  0  -0.416735  0  1.585979  0  0  -0.360058  0  2.043098  0  0  -0.383618  0  2.007551  0  0  -0.201885  -0.343228  0  2.064961  0
I  I68  1  0.14057143  0.50880872  0.30583518  1  0  -0.425644  0  1.509975  0  0  -0.365444  0  1.930321  0  0  -0.391377  0  1.897289  0  0  -0.187063  -0.346694  0  1.950248  0
I  I69  1  0.85942849  0.49118826  0.69416276  1  0  -0.425641  0  1.509868  0  0  -0.365439  0  1.930201  0  0  -0.391379  0  1.897184  0  0  -0.187038  -0.346682  0  1.950124  0
I  I70  1  0.28320229  0.89683832  0.99642157  1  0  -0.432787  0  1.521998  0  0  -0.379905  0  1.942163  0  0  -0.407798  0  1.91496  0  0  -0.203447  -0.360354  0  1.959082  0
I  I71  1  0.71679906  0.10315952  0.00358339  1  0  -0.432779  0  1.521974  0  0  -0.379883  0  1.942113  0  0  -0.407779  0  1.914906  0  0  -0.203432  -0.36034  0  1.959031  0
N  N72  1  0.49099066  0.82244682  0.24774931  1  0  -0.29322  0  3.337877  0  0  -0.231355  0  3.622313  0  0  -0.237218  0  3.629475  0  0  -0.353049  -0.22752  0  3.617172  0
N  N73  1  0.50902154  0.17755784  0.75224796  1  0  -0.293061  0  3.337783  0  0  -0.231166  0  3.622267  0  0  -0.237031  0  3.629429  0  0  -0.353011  -0.227327  0  3.617114  0
N  N74  1  0.32663728  0.03055847  0.23874827  1  0  -0.407192  0  3.185104  0  0  -0.34435  0  3.468364  0  0  -0.356672  0  3.466701  0  0  -0.336883  -0.337404  0  3.469679  0
N  N75  1  0.67335040  0.96944109  0.76124911  1  0  -0.406893  0  3.184723  0  0  -0.34421  0  3.468104  0  0  -0.356536  0  3.466446  0  0  -0.336819  -0.33723  0  3.469382  0
N  N76  1  0.27519493  0.33385594  0.11925130  1  0  -0.291559  0  3.370156  0  0  -0.220579  0  3.647182  0  0  -0.231522  0  3.655283  0  0  -0.356687  -0.214368  0  3.642478  0
N  N77  1  0.72479859  0.66614447  0.88074827  1  0  -0.291581  0  3.370041  0  0  -0.22069  0  3.647154  0  0  -0.231602  0  3.655188  0  0  -0.356745  -0.21445  0  3.64242  0
N  N78  1  0.21625334  0.16814938  0.32371795  1  0  -0.424349  0  3.212946  0  0  -0.35821  0  3.491649  0  0  -0.37055  0  3.487222  0  0  -0.344536  -0.352049  0  3.495366  0
N  N79  1  0.78374597  0.83185188  0.67627934  1  0  -0.424275  0  3.213256  0  0  -0.35815  0  3.491913  0  0  -0.370491  0  3.487492  0  0  -0.34452  -0.351989  0  3.495625  0
N  N80  1  0.06072284  0.21280096  0.50305758  1  0  -0.292014  0  3.334177  0  0  -0.227058  0  3.620722  0  0  -0.234885  0  3.628489  0  0  -0.353588  -0.222398  0  3.615644  0
N  N81  1  0.93927357  0.78720030  0.49694590  1  0  -0.292136  0  3.334284  0  0  -0.227164  0  3.620835  0  0  -0.234999  0  3.628618  0  0  -0.353601  -0.222502  0  3.615756  0
N  N82  1  0.31562416  0.97716117  0.42849950  1  0  -0.404217  0  3.009083  0  0  -0.367568  0  3.278199  0  0  -0.38596  0  3.285282  0  0  -0.295726  -0.356628  0  3.273721  0
N  N83  1  0.68438113  0.02284008  0.57150174  1  0  -0.404234  0  3.00908  0  0  -0.367595  0  3.278126  0  0  -0.38598  0  3.285202  0  0  -0.295708  -0.35666  0  3.273646  0
