# generated using pymatgen
data_Al2H8(CO)11
_symmetry_space_group_name_H-M   'P 1'
_cell_length_a   6.66879103
_cell_length_b   11.11824899
_cell_length_c   16.17238872
_cell_angle_alpha   100.40551156
_cell_angle_beta   90.00504586
_cell_angle_gamma   89.98625329
_symmetry_Int_Tables_number   1
_chemical_formula_structural   Al2H8(CO)11
_chemical_formula_sum   'Al4 H16 C22 O22'
_cell_volume   1179.38586048
_cell_formula_units_Z   2
loop_
 _symmetry_equiv_pos_site_id
 _symmetry_equiv_pos_as_xyz
  1  'x, y, z'
loop_
 _atom_site_type_symbol
 _atom_site_label
 _atom_site_symmetry_multiplicity
 _atom_site_fract_x
 _atom_site_fract_y
 _atom_site_fract_z
 _atom_site_occupancy
 _atom_site_pbe_bader_charge
 _atom_site_pbe_bader_spin_density
 _atom_site_pbe_cm5_charge
 _atom_site_pbe_ddec_charge
 _atom_site_pbe_ddec_spin_density
 _atom_site_pbe_ddec_sum_bond_order
 _atom_site_pbe_magmom
Al  Al0  1  0.99937447  0.50115525  0.49667225  1  2.500704  0  0.398442  1.638116  0  2.590281  0
Al  Al1  1  0.00049483  0.00116395  0.99668074  1  2.500672  0  0.398501  1.63833  0  2.590444  0
Al  Al2  1  0.49823154  0.49709384  0.49845064  1  2.500537  0  0.399974  1.635171  0  2.580775  0
Al  Al3  1  0.50161169  0.99716549  0.99845219  1  2.500243  0  0.399998  1.635009  0  2.581779  0
H  H4  1  0.37601272  0.24646711  0.67841604  1  0.08179  0  0.109217  0.142079  0  1.013243  0
H  H5  1  0.62387315  0.74659146  0.17839734  1  0.081261  0  0.10911  0.141893  0  1.013539  0
H  H6  1  0.94840790  0.18943826  0.81069513  1  0.124046  0  0.12132  0.131542  0  0.982853  0
H  H7  1  0.05120469  0.68970567  0.31094051  1  0.122103  0  0.121348  0.13166  0  0.982905  0
H  H8  1  0.40250393  0.23985648  0.81299603  1  0.093883  0  0.109686  0.120384  0  1.015126  0
H  H9  1  0.59697088  0.73965145  0.31291319  1  0.093979  0  0.109673  0.120407  0  1.014918  0
H  H10  1  0.83963653  0.47048535  0.79463049  1  0.064678  0  0.105243  0.109484  0  0.978483  0
H  H11  1  0.73684378  0.32647071  0.80914252  1  0.035724  0  0.10034  0.097034  0  1.011473  0
H  H12  1  0.62889866  0.40662743  0.73280044  1  0.097623  0  0.110964  0.123817  0  0.996619  0
H  H13  1  0.26177255  0.82723672  0.30963625  1  0.03547  0  0.100405  0.096808  0  1.01173  0
H  H14  1  0.16012638  0.97109581  0.29420737  1  0.059631  0  0.105101  0.108814  0  0.979615  0
H  H15  1  0.37113374  0.90625463  0.23299406  1  0.096448  0  0.110725  0.122874  0  0.996508  0
H  H16  1  0.75608180  0.35461913  0.51956032  1  0.627282  0  0.353945  0.434562  0  0.849515  0
H  H17  1  0.24393939  0.85469142  0.01954331  1  0.628157  0  0.354091  0.434705  0  0.849163  0
H  H18  1  0.25226142  0.64890003  0.55263794  1  0.629034  0  0.354752  0.43647  0  0.846981  0
H  H19  1  0.74762234  0.14892916  0.05260662  1  0.629075  0  0.354784  0.436527  0  0.846803  0
C  C20  1  0.74283961  0.63688520  0.39936623  1  1.580233  0  0.264971  0.680913  0  4.104701  0
C  C21  1  0.25681007  0.13690877  0.89936623  1  1.582451  0  0.2647  0.680355  0  4.105791  0
C  C22  1  0.75289540  0.64413936  0.63032749  1  1.680158  0  0.276347  0.70708  0  4.161198  0
C  C23  1  0.24692188  0.14420317  0.13029315  1  1.68253  0  0.276461  0.70706  0  4.161224  0
C  C24  1  0.24738371  0.35665508  0.59400355  1  1.522194  0  0.2568  0.709202  0  4.10771  0
C  C25  1  0.75260114  0.85671660  0.09399637  1  1.567563  0  0.256521  0.708493  0  4.108522  0
C  C26  1  0.24469446  0.36159586  0.36473806  1  1.714633  0  0.281926  0.702785  0  4.165655  0
C  C27  1  0.75505258  0.86161439  0.86472182  1  1.716961  0  0.282132  0.703293  0  4.165524  0
C  C28  1  0.24888679  0.28430261  0.28231633  1  0.348564  0  -0.012344  -0.113279  0  3.914604  0
C  C29  1  0.75089557  0.78430712  0.78232482  1  0.349062  0  -0.012278  -0.11343  0  3.913972  0
C  C30  1  0.24970388  0.22078513  0.21286927  1  -0.566929  0  -0.017451  -0.126311  0  3.928662  0
C  C31  1  0.75004070  0.72073692  0.71288628  1  -0.566977  0  -0.017403  -0.126085  0  3.927406  0
C  C32  1  0.07543114  0.28291223  0.71441538  1  0.488847  0  0.102864  0.297936  0  4.039053  0
C  C33  1  0.92434356  0.78292750  0.21449473  1  0.490046  0  0.102715  0.29773  0  4.037828  0
C  C34  1  0.23714715  0.28926350  0.66347746  1  0.041085  0  -0.115198  -0.393468  0  3.86683  0
C  C35  1  0.76275508  0.78929132  0.16347933  1  -0.003705  0  -0.11471  -0.392584  0  3.866032  0
C  C36  1  0.08763624  0.22424364  0.78823097  1  -0.06229  0  -0.068444  -0.120654  0  3.956722  0
C  C37  1  0.91201348  0.72440257  0.28837065  1  -0.05721  0  -0.068412  -0.12107  0  3.956737  0
C  C38  1  0.25674624  0.20715967  0.82997398  1  -0.02583  0  -0.078322  -0.202619  0  3.881874  0
C  C39  1  0.74281927  0.70715256  0.32998302  1  -0.028404  0  -0.078088  -0.202109  0  3.88115  0
C  C40  1  0.76846889  0.38537503  0.76282240  1  0.370463  0  -0.130366  -0.178301  0  3.879905  0
C  C41  1  0.23110751  0.88561873  0.26292754  1  0.376967  0  -0.130185  -0.176225  0  3.878787  0
O  O42  1  0.58379591  0.62002568  0.59466647  1  -1.231678  0  -0.228262  -0.587784  0  2.283823  0
O  O43  1  0.41611011  0.12003010  0.09471338  1  -1.232015  0  -0.228144  -0.587632  0  2.283947  0
O  O44  1  0.91029057  0.61831090  0.43282971  1  -1.266587  0  -0.236479  -0.595604  0  2.334706  0
O  O45  1  0.08930825  0.11817781  0.93271427  1  -1.265848  0  -0.236538  -0.595515  0  2.335567  0
O  O46  1  0.07411885  0.40282932  0.39065821  1  -1.221895  0  -0.217163  -0.557373  0  2.283948  0
O  O47  1  0.92561078  0.90272581  0.89070657  1  -1.221639  0  -0.216979  -0.55714  0  2.283192  0
O  O48  1  0.92490998  0.60875278  0.60179288  1  -1.220601  0  -0.225095  -0.57939  0  2.278716  0
O  O49  1  0.07491007  0.10889918  0.10172833  1  -1.222353  0  -0.225008  -0.579034  0  2.27853  0
O  O50  1  0.08578941  0.37853221  0.55704944  1  -1.261527  0  -0.244278  -0.623062  0  2.366741  0
O  O51  1  0.91424834  0.87865049  0.05712777  1  -1.262197  0  -0.244103  -0.622791  0  2.367076  0
O  O52  1  0.57222788  0.60044108  0.42029574  1  -1.242935  0  -0.234143  -0.580706  0  2.298079  0
O  O53  1  0.42749858  0.10064652  0.92041852  1  -1.243642  0  -0.233781  -0.580186  0  2.298374  0
O  O54  1  0.74983425  0.42499840  0.49169961  1  -1.426125  0  -0.445603  -0.985784  0  2.168259  0
O  O55  1  0.25007522  0.92507887  0.99169261  1  -1.427043  0  -0.445582  -0.985906  0  2.168385  0
O  O56  1  0.42357549  0.39002017  0.57481085  1  -1.255569  0  -0.25035  -0.621076  0  2.283457  0
O  O57  1  0.57640220  0.89003587  0.07473872  1  -1.255289  0  -0.250317  -0.620785  0  2.284373  0
O  O58  1  0.41120782  0.38016958  0.40297034  1  -1.235316  0  -0.219019  -0.564316  0  2.290769  0
O  O59  1  0.58852054  0.88030449  0.90292017  1  -1.238035  0  -0.219509  -0.564931  0  2.291167  0
O  O60  1  0.25027863  0.57559899  0.50972076  1  -1.428677  0  -0.447861  -0.991091  0  2.179261  0
O  O61  1  0.74957429  0.07561858  0.00969307  1  -1.428738  0  -0.448083  -0.991394  0  2.179452  0
O  O62  1  0.89392764  0.32611403  0.69510289  1  -1.057327  0  -0.1766  -0.146077  0  2.547944  0
O  O63  1  0.10597063  0.82601549  0.19517555  1  -1.057712  0  -0.176963  -0.146823  0  2.545331  0
