# generated using pymatgen
data_Zn3P2H14C4(NO)10
_symmetry_space_group_name_H-M   'P 1'
_cell_length_a   5.11247778
_cell_length_b   10.45050257
_cell_length_c   14.94800107
_cell_angle_alpha   90.00000649
_cell_angle_beta   91.86311227
_cell_angle_gamma   89.99978938
_symmetry_Int_Tables_number   1
_chemical_formula_structural   Zn3P2H14C4(NO)10
_chemical_formula_sum   'Zn6 P4 H28 C8 N20 O20'
_cell_volume   798.21903750
_cell_formula_units_Z   2
loop_
 _symmetry_equiv_pos_site_id
 _symmetry_equiv_pos_as_xyz
  1  'x, y, z'
loop_
 _atom_site_type_symbol
 _atom_site_label
 _atom_site_symmetry_multiplicity
 _atom_site_fract_x
 _atom_site_fract_y
 _atom_site_fract_z
 _atom_site_occupancy
 _atom_site_hle17_bader_spin_density
 _atom_site_hle17_ddec_charge
 _atom_site_hle17_ddec_spin_density
 _atom_site_hle17_ddec_sum_bond_order
 _atom_site_hle17_magmom
 _atom_site_hse06_10hf_bader_spin_density
 _atom_site_hse06_10hf_ddec_charge
 _atom_site_hse06_10hf_ddec_spin_density
 _atom_site_hse06_10hf_ddec_sum_bond_order
 _atom_site_hse06_10hf_magmom
 _atom_site_hse06_bader_spin_density
 _atom_site_hse06_ddec_charge
 _atom_site_hse06_ddec_spin_density
 _atom_site_hse06_ddec_sum_bond_order
 _atom_site_hse06_magmom
 _atom_site_pbe_bader_spin_density
 _atom_site_pbe_cm5_charge
 _atom_site_pbe_ddec_charge
 _atom_site_pbe_ddec_spin_density
 _atom_site_pbe_ddec_sum_bond_order
 _atom_site_pbe_magmom
Zn  Zn0  1  0.66926538  0.55723298  0.39746332  1  0  1.178903  0  1.823483  0  0  1.001255  0  2.306919  0  0  1.043574  0  2.24694  0  0  0.716048  0.97141  0  2.348515  0
Zn  Zn1  1  0.33073264  0.05723814  0.10253566  1  0  1.178863  0  1.823481  0  0  1.001215  0  2.306893  0  0  1.043538  0  2.246915  0  0  0.716024  0.97137  0  2.348488  0
Zn  Zn2  1  0.33073485  0.44276414  0.60253452  1  0  1.178865  0  1.823476  0  0  1.001227  0  2.306885  0  0  1.043542  0  2.246904  0  0  0.716027  0.971377  0  2.34848  0
Zn  Zn3  1  0.66926563  0.94276377  0.89746417  1  0  1.178848  0  1.823534  0  0  1.001208  0  2.306959  0  0  1.043529  0  2.246978  0  0  0.716015  0.971365  0  2.348563  0
Zn  Zn4  1  0.99999770  0.49999902  0.99999965  1  0  1.128579  0  1.696861  0  0  0.946879  0  2.135737  0  0  0.993034  0  2.083864  0  0  0.686809  0.914651  0  2.17127  0
Zn  Zn5  1  0.00000183  0.00000101  0.50000018  1  0  1.128552  0  1.69687  0  0  0.946836  0  2.135744  0  0  0.992985  0  2.083871  0  0  0.686809  0.914607  0  2.171275  0
P  P6  1  0.17357131  0.68351440  0.48886437  1  0  1.763105  0  4.919556  0  0  1.568589  0  5.440287  0  0  1.627026  0  5.387333  0  0  0.389491  1.527682  0  5.476359  0
P  P7  1  0.82642568  0.18351395  0.01113326  1  0  1.763081  0  4.919536  0  0  1.568566  0  5.44027  0  0  1.627001  0  5.387315  0  0  0.389412  1.527648  0  5.476369  0
P  P8  1  0.82642892  0.31648464  0.51113414  1  0  1.763139  0  4.919491  0  0  1.568609  0  5.440226  0  0  1.62705  0  5.387268  0  0  0.389477  1.527695  0  5.476318  0
P  P9  1  0.17357454  0.81648701  0.98886658  1  0  1.76309  0  4.919599  0  0  1.568577  0  5.440337  0  0  1.627019  0  5.387376  0  0  0.389449  1.527678  0  5.476396  0
H  H10  1  0.51273139  0.66319449  0.07281480  1  0  0.31427  0  0.928743  0  0  0.290741  0  0.995117  0  0  0.299509  0  0.988406  0  0  0.322039  0.284571  0  0.999881  0
H  H11  1  0.48726381  0.16320041  0.42718214  1  0  0.31425  0  0.928818  0  0  0.290638  0  0.995317  0  0  0.299402  0  0.98861  0  0  0.322018  0.28447  0  1.000082  0
H  H12  1  0.48725906  0.33680072  0.92718092  1  0  0.314224  0  0.928867  0  0  0.290581  0  0.995401  0  0  0.299344  0  0.988696  0  0  0.322023  0.284414  0  1.000164  0
H  H13  1  0.51274229  0.83680150  0.57281710  1  0  0.314316  0  0.928766  0  0  0.2908  0  0.995127  0  0  0.299566  0  0.988417  0  0  0.322067  0.284629  0  0.99989  0
H  H14  1  0.13989340  0.45796832  0.30534330  1  0  0.34099  0  0.87693  0  0  0.327179  0  0.935825  0  0  0.333894  0  0.930152  0  0  0.309701  0.32244  0  0.939834  0
H  H15  1  0.86010915  0.95797334  0.19465643  1  0  0.341005  0  0.876868  0  0  0.3272  0  0.935759  0  0  0.333916  0  0.930084  0  0  0.30969  0.322463  0  0.939768  0
H  H16  1  0.86010291  0.54202785  0.69465583  1  0  0.34098  0  0.876928  0  0  0.327177  0  0.935822  0  0  0.333891  0  0.930151  0  0  0.30968  0.322439  0  0.939823  0
H  H17  1  0.13988714  0.04203335  0.80534538  1  0  0.340978  0  0.87694  0  0  0.327163  0  0.935831  0  0  0.33388  0  0.930156  0  0  0.309697  0.322426  0  0.93984  0
H  H18  1  0.21097070  0.41833858  0.19523544  1  0  0.342702  0  0.917951  0  0  0.323321  0  0.983142  0  0  0.331169  0  0.97654  0  0  0.296781  0.317766  0  0.987859  0
H  H19  1  0.78903413  0.91834470  0.30476631  1  0  0.342666  0  0.91798  0  0  0.323282  0  0.983184  0  0  0.331131  0  0.976581  0  0  0.296784  0.317728  0  0.987906  0
H  H20  1  0.78903343  0.58165950  0.80476645  1  0  0.342716  0  0.918018  0  0  0.323337  0  0.983194  0  0  0.33119  0  0.976588  0  0  0.296797  0.317782  0  0.987911  0
H  H21  1  0.21097196  0.08166009  0.69523494  1  0  0.342705  0  0.917951  0  0  0.323313  0  0.983154  0  0  0.331161  0  0.976553  0  0  0.296776  0.317756  0  0.987879  0
H  H22  1  0.30178799  0.71981684  0.30179166  1  0  0.347043  0  0.90599  0  0  0.328095  0  0.968922  0  0  0.335778  0  0.962473  0  0  0.303287  0.322648  0  0.97351  0
H  H23  1  0.69820870  0.21982141  0.19820597  1  0  0.347067  0  0.905934  0  0  0.328123  0  0.968873  0  0  0.335806  0  0.96242  0  0  0.303297  0.322672  0  0.973458  0
H  H24  1  0.69820638  0.28017837  0.69820544  1  0  0.34707  0  0.905917  0  0  0.328122  0  0.968866  0  0  0.335804  0  0.962415  0  0  0.303293  0.322676  0  0.973454  0
H  H25  1  0.30178762  0.78018241  0.80179115  1  0  0.347024  0  0.906026  0  0  0.328088  0  0.968951  0  0  0.335767  0  0.962497  0  0  0.30331  0.322641  0  0.973539  0
H  H26  1  0.26745386  0.78724902  0.19286362  1  0  0.356777  0  0.899923  0  0  0.333514  0  0.969378  0  0  0.341475  0  0.962658  0  0  0.302943  0.32792  0  0.974096  0
H  H27  1  0.73254618  0.28725260  0.30713539  1  0  0.356825  0  0.899852  0  0  0.33352  0  0.969371  0  0  0.341483  0  0.962649  0  0  0.302972  0.327927  0  0.974083  0
H  H28  1  0.73253854  0.21274810  0.80713479  1  0  0.35687  0  0.899814  0  0  0.333566  0  0.969333  0  0  0.341527  0  0.962613  0  0  0.302993  0.327972  0  0.974055  0
H  H29  1  0.26745992  0.71275122  0.69286319  1  0  0.356862  0  0.899804  0  0  0.333559  0  0.969318  0  0  0.341519  0  0.962598  0  0  0.30298  0.327968  0  0.974026  0
H  H30  1  0.23074447  0.30824815  0.06122765  1  0  0.414845  0  0.906988  0  0  0.381583  0  0.975678  0  0  0.392616  0  0.959744  0  0  0.290808  0.37385  0  0.986783  0
H  H31  1  0.76925149  0.80824763  0.43877065  1  0  0.414776  0  0.907073  0  0  0.381483  0  0.975816  0  0  0.392519  0  0.959879  0  0  0.290765  0.373755  0  0.986912  0
H  H32  1  0.76925574  0.69175567  0.93877353  1  0  0.414824  0  0.907001  0  0  0.381547  0  0.975718  0  0  0.392586  0  0.959775  0  0  0.290772  0.373815  0  0.986823  0
H  H33  1  0.23075069  0.19175141  0.56122989  1  0  0.414796  0  0.907047  0  0  0.3815  0  0.975796  0  0  0.392536  0  0.959859  0  0  0.290783  0.373768  0  0.986902  0
H  H34  1  0.48557449  0.39017989  0.05890572  1  0  0.431299  0  0.866386  0  0  0.397935  0  0.939324  0  0  0.408573  0  0.923988  0  0  0.29538  0.390443  0  0.950116  0
H  H35  1  0.51442080  0.89018169  0.44109257  1  0  0.431285  0  0.866394  0  0  0.397927  0  0.939324  0  0  0.408566  0  0.923982  0  0  0.295389  0.390434  0  0.950117  0
H  H36  1  0.51442182  0.60982202  0.94109274  1  0  0.431286  0  0.866388  0  0  0.39791  0  0.939357  0  0  0.408555  0  0.924008  0  0  0.295375  0.390417  0  0.95015  0
H  H37  1  0.48557942  0.10981830  0.55890794  1  0  0.43127  0  0.866416  0  0  0.397911  0  0.939348  0  0  0.408549  0  0.92401  0  0  0.29538  0.390417  0  0.950143  0
C  C38  1  0.89012037  0.52753182  0.21038924  1  0  0.611838  0  3.840626  0  0  0.559894  0  4.129022  0  0  0.586271  0  4.135733  0  0  0.32843  0.542139  0  4.12416  0
C  C39  1  0.10987984  0.02754120  0.28961109  1  0  0.611836  0  3.840591  0  0  0.559797  0  4.129116  0  0  0.586205  0  4.135794  0  0  0.328414  0.542045  0  4.124247  0
C  C40  1  0.10987594  0.47246244  0.78961056  1  0  0.611953  0  3.840474  0  0  0.559958  0  4.128971  0  0  0.586338  0  4.135667  0  0  0.328464  0.542202  0  4.124107  0
C  C41  1  0.89012233  0.97246454  0.71038944  1  0  0.611914  0  3.840504  0  0  0.559838  0  4.129061  0  0  0.586225  0  4.135764  0  0  0.328423  0.542092  0  4.124186  0
C  C42  1  0.56512162  0.66110269  0.21305430  1  0  0.637604  0  3.833109  0  0  0.577368  0  4.116496  0  0  0.605482  0  4.121347  0  0  0.346863  0.558486  0  4.11283  0
C  C43  1  0.43488532  0.16111537  0.28694612  1  0  0.637444  0  3.833317  0  0  0.577206  0  4.116665  0  0  0.605338  0  4.121505  0  0  0.346841  0.55832  0  4.112999  0
C  C44  1  0.43488447  0.33888678  0.78694494  1  0  0.637407  0  3.833419  0  0  0.577218  0  4.116753  0  0  0.60533  0  4.121605  0  0  0.346814  0.558324  0  4.113103  0
C  C45  1  0.56512469  0.83889324  0.71305384  1  0  0.637525  0  3.833295  0  0  0.577323  0  4.116634  0  0  0.605458  0  4.121464  0  0  0.346832  0.558429  0  4.11298  0
N  N46  1  0.72409288  0.58855965  0.26710285  1  0  -0.660466  0  3.093104  0  0  -0.579304  0  3.396398  0  0  -0.605208  0  3.394408  0  0  -0.379829  -0.561721  0  3.397667  0
N  N47  1  0.27590485  0.08856779  0.23290214  1  0  -0.660385  0  3.093246  0  0  -0.579171  0  3.396521  0  0  -0.605104  0  3.394535  0  0  -0.379779  -0.561586  0  3.397784  0
N  N48  1  0.27590536  0.41143652  0.73290165  1  0  -0.660445  0  3.093278  0  0  -0.579298  0  3.396607  0  0  -0.605189  0  3.394603  0  0  -0.379792  -0.561706  0  3.397869  0
N  N49  1  0.72408948  0.91143604  0.76710232  1  0  -0.660457  0  3.093076  0  0  -0.579264  0  3.396398  0  0  -0.605189  0  3.394414  0  0  -0.379847  -0.561683  0  3.397672  0
N  N50  1  0.84099734  0.55837152  0.12459284  1  0  -0.406867  0  3.004534  0  0  -0.358259  0  3.295868  0  0  -0.377298  0  3.305366  0  0  -0.272017  -0.345568  0  3.289471  0
N  N51  1  0.15901241  0.05837892  0.37540560  1  0  -0.406755  0  3.004607  0  0  -0.358111  0  3.29591  0  0  -0.377171  0  3.305422  0  0  -0.271983  -0.345419  0  3.289512  0
N  N52  1  0.15901072  0.44162465  0.87540509  1  0  -0.406798  0  3.004555  0  0  -0.358172  0  3.295907  0  0  -0.377216  0  3.305412  0  0  -0.271996  -0.34548  0  3.289506  0
N  N53  1  0.84099956  0.94162395  0.62459304  1  0  -0.406791  0  3.004398  0  0  -0.358099  0  3.295726  0  0  -0.377138  0  3.305225  0  0  -0.271968  -0.345409  0  3.289323  0
N  N54  1  0.63464062  0.64516847  0.12814626  1  0  -0.292964  0  3.3321  0  0  -0.235473  0  3.569503  0  0  -0.251606  0  3.581322  0  0  -0.304398  -0.224917  0  3.561739  0
N  N55  1  0.36535665  0.14517553  0.37185739  1  0  -0.292998  0  3.33215  0  0  -0.235438  0  3.569574  0  0  -0.251578  0  3.581406  0  0  -0.304409  -0.224887  0  3.561817  0
N  N56  1  0.36535568  0.35482674  0.87185487  1  0  -0.292885  0  3.33219  0  0  -0.235332  0  3.569705  0  0  -0.251468  0  3.58154  0  0  -0.304393  -0.224772  0  3.561938  0
N  N57  1  0.63464746  0.85482638  0.62814718  1  0  -0.293045  0  3.332215  0  0  -0.235626  0  3.569663  0  0  -0.25177  0  3.58148  0  0  -0.304428  -0.225064  0  3.561894  0
N  N58  1  0.07522555  0.44409057  0.24097376  1  0  -0.695533  0  3.031662  0  0  -0.661379  0  3.267414  0  0  -0.680723  0  3.261631  0  0  -0.587846  -0.647807  0  3.271179  0
N  N59  1  0.92477515  0.94409262  0.25902728  1  0  -0.695528  0  3.031543  0  0  -0.661352  0  3.267326  0  0  -0.680703  0  3.261533  0  0  -0.587839  -0.647783  0  3.271095  0
N  N60  1  0.92477271  0.55591134  0.75902673  1  0  -0.695616  0  3.031603  0  0  -0.661465  0  3.267397  0  0  -0.680809  0  3.261603  0  0  -0.587889  -0.647897  0  3.271159  0
N  N61  1  0.07522310  0.05590929  0.74097388  1  0  -0.695594  0  3.031704  0  0  -0.661362  0  3.267472  0  0  -0.680712  0  3.261689  0  0  -0.587844  -0.647795  0  3.271246  0
N  N62  1  0.37677459  0.73951918  0.24068824  1  0  -0.703431  0  3.063712  0  0  -0.667654  0  3.307588  0  0  -0.68785  0  3.301432  0  0  -0.583003  -0.653612  0  3.311692  0
N  N63  1  0.62321017  0.23952771  0.25931327  1  0  -0.703439  0  3.063943  0  0  -0.667645  0  3.307872  0  0  -0.687832  0  3.301687  0  0  -0.583055  -0.653601  0  3.31197  0
N  N64  1  0.62320801  0.26047412  0.75931274  1  0  -0.703474  0  3.06396  0  0  -0.667682  0  3.307871  0  0  -0.687865  0  3.301689  0  0  -0.583041  -0.653642  0  3.311989  0
N  N65  1  0.37677634  0.76047803  0.74068842  1  0  -0.703462  0  3.063682  0  0  -0.667669  0  3.307597  0  0  -0.687857  0  3.301418  0  0  -0.583065  -0.65363  0  3.311697  0
O  O66  1  0.87110637  0.67677636  0.47323880  1  0  -0.919262  0  2.069492  0  0  -0.815815  0  2.364091  0  0  -0.844933  0  2.335642  0  0  -0.388772  -0.7952  0  2.383226  0
O  O67  1  0.12889066  0.17677896  0.02676017  1  0  -0.919284  0  2.069494  0  0  -0.81585  0  2.364096  0  0  -0.844967  0  2.335647  0  0  -0.388775  -0.795226  0  2.383236  0
O  O68  1  0.12889385  0.32322172  0.52676104  1  0  -0.919251  0  2.069433  0  0  -0.815794  0  2.364021  0  0  -0.844915  0  2.335577  0  0  -0.388762  -0.795169  0  2.383157  0
O  O69  1  0.87110759  0.82322583  0.97324166  1  0  -0.919297  0  2.069394  0  0  -0.815862  0  2.363996  0  0  -0.844978  0  2.335541  0  0  -0.388773  -0.795244  0  2.383129  0
O  O70  1  0.25049190  0.82749115  0.49261922  1  0  -0.934651  0  2.00845  0  0  -0.83453  0  2.270634  0  0  -0.864633  0  2.249046  0  0  -0.381119  -0.813006  0  2.284638  0
O  O71  1  0.74949803  0.32749177  0.00737833  1  0  -0.934625  0  2.008334  0  0  -0.834486  0  2.270567  0  0  -0.864569  0  2.24895  0  0  -0.38108  -0.812961  0  2.284582  0
O  O72  1  0.74950440  0.17250789  0.50738124  1  0  -0.934659  0  2.008409  0  0  -0.834523  0  2.270618  0  0  -0.864614  0  2.249009  0  0  -0.381116  -0.812994  0  2.284629  0
O  O73  1  0.25049632  0.67250918  0.99262144  1  0  -0.934628  0  2.008405  0  0  -0.834532  0  2.270643  0  0  -0.864615  0  2.249019  0  0  -0.381099  -0.813007  0  2.284644  0
O  O74  1  0.25489544  0.62149245  0.57970685  1  0  -0.917126  0  2.004273  0  0  -0.812336  0  2.304127  0  0  -0.840643  0  2.275183  0  0  -0.387823  -0.792508  0  2.323813  0
O  O75  1  0.74510963  0.12149029  0.92029186  1  0  -0.917103  0  2.004341  0  0  -0.812324  0  2.304212  0  0  -0.840636  0  2.275274  0  0  -0.387774  -0.792486  0  2.323909  0
O  O76  1  0.74510870  0.37850659  0.42029303  1  0  -0.917148  0  2.004318  0  0  -0.812356  0  2.304179  0  0  -0.840674  0  2.275245  0  0  -0.387824  -0.792525  0  2.323874  0
O  O77  1  0.25489841  0.87850970  0.07970807  1  0  -0.917066  0  2.00438  0  0  -0.812293  0  2.30424  0  0  -0.840609  0  2.275307  0  0  -0.387757  -0.792469  0  2.323933  0
O  O78  1  0.30308204  0.61338848  0.40991717  1  0  -0.940512  0  1.992612  0  0  -0.83823  0  2.289992  0  0  -0.865867  0  2.259754  0  0  -0.390022  -0.818567  0  2.310445  0
O  O79  1  0.69691944  0.11338920  0.09008118  1  0  -0.940496  0  1.992622  0  0  -0.838214  0  2.29001  0  0  -0.865852  0  2.259771  0  0  -0.389984  -0.818543  0  2.310464  0
O  O80  1  0.69692211  0.38661056  0.59008139  1  0  -0.940541  0  1.992596  0  0  -0.838247  0  2.289976  0  0  -0.865885  0  2.259734  0  0  -0.39003  -0.818577  0  2.310433  0
O  O81  1  0.30308274  0.88661079  0.90991801  1  0  -0.940454  0  1.99254  0  0  -0.838177  0  2.289922  0  0  -0.865812  0  2.259678  0  0  -0.390009  -0.818517  0  2.310376  0
O  O82  1  0.29858373  0.39781317  0.07582305  1  0  -0.832851  0  1.919175  0  0  -0.759904  0  2.126989  0  0  -0.783101  0  2.095547  0  0  -0.57035  -0.743751  0  2.148846  0
O  O83  1  0.70141149  0.89781467  0.42417525  1  0  -0.832753  0  1.919207  0  0  -0.759798  0  2.12705  0  0  -0.782979  0  2.095587  0  0  -0.570307  -0.743651  0  2.148904  0
O  O84  1  0.70141453  0.60218970  0.92417611  1  0  -0.832855  0  1.919255  0  0  -0.759842  0  2.127011  0  0  -0.783088  0  2.095623  0  0  -0.570318  -0.74369  0  2.148871  0
O  O85  1  0.29859069  0.10218533  0.57582529  1  0  -0.83277  0  1.919232  0  0  -0.759809  0  2.127078  0  0  -0.782998  0  2.095632  0  0  -0.570308  -0.743653  0  2.148936  0
