# generated using pymatgen
data_Tb2H20C12O13
_symmetry_space_group_name_H-M   'P 1'
_cell_length_a   8.37329053
_cell_length_b   11.40525666
_cell_length_c   11.40526363
_cell_angle_alpha   91.70156914
_cell_angle_beta   107.60770777
_cell_angle_gamma   107.60797850
_symmetry_Int_Tables_number   1
_chemical_formula_structural   Tb2H20C12O13
_chemical_formula_sum   'Tb4 H40 C24 O26'
_cell_volume   980.68352049
_cell_formula_units_Z   2
loop_
 _symmetry_equiv_pos_site_id
 _symmetry_equiv_pos_as_xyz
  1  'x, y, z'
loop_
 _atom_site_type_symbol
 _atom_site_label
 _atom_site_symmetry_multiplicity
 _atom_site_fract_x
 _atom_site_fract_y
 _atom_site_fract_z
 _atom_site_occupancy
 _atom_site_hle17_bader_spin_density
 _atom_site_hle17_ddec_charge
 _atom_site_hle17_ddec_spin_density
 _atom_site_hle17_ddec_sum_bond_order
 _atom_site_hle17_magmom
 _atom_site_hse06_10hf_bader_spin_density
 _atom_site_hse06_10hf_ddec_charge
 _atom_site_hse06_10hf_ddec_spin_density
 _atom_site_hse06_10hf_ddec_sum_bond_order
 _atom_site_hse06_10hf_magmom
 _atom_site_hse06_bader_spin_density
 _atom_site_hse06_ddec_charge
 _atom_site_hse06_ddec_spin_density
 _atom_site_hse06_ddec_sum_bond_order
 _atom_site_hse06_magmom
 _atom_site_pbe_bader_spin_density
 _atom_site_pbe_cm5_charge
 _atom_site_pbe_ddec_charge
 _atom_site_pbe_ddec_spin_density
 _atom_site_pbe_ddec_sum_bond_order
 _atom_site_pbe_magmom
Tb  Tb0  1  0.66321810  0.82387300  0.53906872  1  0  2.301738  0  1.613509  0  0  2.153551  0  2.073148  0  0  2.27206  0  1.897362  0  0  1.524873  2.117744  0  2.10351  0
Tb  Tb1  1  0.16321770  0.53906950  0.82387280  1  0  2.301705  0  1.613498  0  0  2.153502  0  2.073157  0  0  2.272022  0  1.897349  0  0  1.524855  2.117704  0  2.103495  0
Tb  Tb2  1  0.40652436  0.67372669  0.18755945  1  0  2.254546  0  1.686007  0  0  2.110258  0  2.153519  0  0  2.160671  0  2.111595  0  0  1.539091  2.072165  0  2.188583  0
Tb  Tb3  1  0.90652081  0.18755946  0.67372403  1  0  2.25453  0  1.686033  0  0  2.11022  0  2.153579  0  0  2.160652  0  2.111622  0  0  1.539079  2.072133  0  2.188635  0
H  H4  1  0.87955925  0.48696291  0.48918527  1  0  0.146446  0  0.951766  0  0  0.162787  0  1.012871  0  0  0.16557  0  1.01238  0  0  0.104264  0.160735  0  1.013404  0
H  H5  1  0.37956118  0.48918629  0.48696339  1  0  0.146412  0  0.951867  0  0  0.16275  0  1.012968  0  0  0.165532  0  1.012478  0  0  0.104245  0.160698  0  1.0135  0
H  H6  1  0.76503489  0.41900581  0.32948163  1  0  0.125038  0  0.946383  0  0  0.144138  0  1.006318  0  0  0.146309  0  1.005428  0  0  0.093259  0.142569  0  1.006938  0
H  H7  1  0.26503553  0.32948179  0.41900788  1  0  0.125014  0  0.946345  0  0  0.144115  0  1.006284  0  0  0.146286  0  1.005394  0  0  0.09325  0.142546  0  1.006904  0
H  H8  1  0.66781408  0.37344470  0.44568816  1  0  0.145291  0  0.954834  0  0  0.163296  0  1.017175  0  0  0.166071  0  1.016127  0  0  0.103414  0.161348  0  1.017777  0
H  H9  1  0.16781677  0.44568919  0.37344734  1  0  0.145271  0  0.95481  0  0  0.163239  0  1.017206  0  0  0.166014  0  1.016159  0  0  0.103389  0.16129  0  1.01781  0
H  H10  1  0.87782910  0.04300727  0.18650497  1  0  0.137784  0  0.935251  0  0  0.158042  0  0.990327  0  0  0.160095  0  0.989819  0  0  0.101681  0.156557  0  0.990719  0
H  H11  1  0.37781530  0.18650109  0.04300175  1  0  0.137764  0  0.93519  0  0  0.157997  0  0.990296  0  0  0.160051  0  0.989788  0  0  0.101633  0.156513  0  0.990688  0
H  H12  1  0.00315404  0.97018422  0.29769481  1  0  0.138814  0  0.935531  0  0  0.16019  0  0.993132  0  0  0.162013  0  0.993024  0  0  0.106204  0.158897  0  0.993173  0
H  H13  1  0.50314706  0.29769401  0.97018231  1  0  0.138781  0  0.935478  0  0  0.160139  0  0.993099  0  0  0.161963  0  0.99299  0  0  0.106188  0.158848  0  0.993138  0
H  H14  1  0.89326587  0.06110704  0.34798272  1  0  0.164798  0  0.931618  0  0  0.182333  0  0.989027  0  0  0.185996  0  0.986785  0  0  0.11346  0.17975  0  0.990578  0
H  H15  1  0.39325959  0.34798061  0.06110756  1  0  0.164851  0  0.931619  0  0  0.182382  0  0.98903  0  0  0.186044  0  0.986789  0  0  0.113506  0.179796  0  0.990581  0
H  H16  1  0.29146290  0.95815458  0.59179216  1  0  0.16059  0  0.941365  0  0  0.17804  0  0.99868  0  0  0.180876  0  0.998075  0  0  0.109825  0.176044  0  0.998988  0
H  H17  1  0.79146315  0.59179402  0.95815417  1  0  0.160561  0  0.941391  0  0  0.178025  0  0.998688  0  0  0.180864  0  0.99808  0  0  0.109814  0.176024  0  0.998998  0
H  H18  1  0.30044965  0.04179437  0.72842501  1  0  0.15275  0  0.932813  0  0  0.173592  0  0.989284  0  0  0.175715  0  0.988948  0  0  0.111789  0.172113  0  0.98937  0
H  H19  1  0.80044826  0.72842749  0.04179423  1  0  0.152743  0  0.9328  0  0  0.173599  0  0.989253  0  0  0.175721  0  0.988918  0  0  0.111792  0.172119  0  0.989342  0
H  H20  1  0.25902485  0.10803390  0.58745532  1  0  0.144495  0  0.939296  0  0  0.162265  0  0.999234  0  0  0.16481  0  0.998177  0  0  0.106092  0.16046  0  0.999804  0
H  H21  1  0.75902269  0.58745704  0.10803381  1  0  0.144437  0  0.939335  0  0  0.162196  0  0.999283  0  0  0.164739  0  0.998231  0  0  0.106079  0.160393  0  0.999851  0
H  H22  1  0.97109355  0.80816136  0.87829320  1  0  0.154653  0  0.949454  0  0  0.172065  0  1.01105  0  0  0.175548  0  1.009213  0  0  0.10916  0.169607  0  1.012347  0
H  H23  1  0.47109153  0.87828806  0.80816170  1  0  0.154598  0  0.949403  0  0  0.17203  0  1.010987  0  0  0.175513  0  1.009151  0  0  0.109139  0.169571  0  1.012286  0
H  H24  1  0.17333128  0.92963090  0.90858791  1  0  0.154056  0  0.927489  0  0  0.173249  0  0.985758  0  0  0.176186  0  0.984259  0  0  0.109241  0.17118  0  0.986742  0
H  H25  1  0.67333039  0.90858513  0.92962831  1  0  0.154063  0  0.927445  0  0  0.173246  0  0.98574  0  0  0.176182  0  0.984239  0  0  0.109231  0.171177  0  0.986723  0
H  H26  1  0.04764979  0.92619666  0.00929170  1  0  0.134505  0  0.93042  0  0  0.154071  0  0.987136  0  0  0.156414  0  0.986017  0  0  0.099924  0.152355  0  0.987976  0
H  H27  1  0.54764696  0.00928722  0.92619395  1  0  0.134472  0  0.930496  0  0  0.154053  0  0.9872  0  0  0.156396  0  0.986082  0  0  0.099918  0.152337  0  0.988039  0
H  H28  1  0.02105892  0.71395374  0.44235875  1  0  0.153402  0  0.946687  0  0  0.169027  0  1.007156  0  0  0.171959  0  1.006157  0  0  0.106599  0.166985  0  1.007683  0
H  H29  1  0.52105614  0.44235664  0.71395402  1  0  0.153424  0  0.946638  0  0  0.169061  0  1.007102  0  0  0.171993  0  1.006102  0  0  0.106598  0.167017  0  1.007631  0
H  H30  1  0.02996144  0.61029677  0.32331264  1  0  0.149284  0  0.940916  0  0  0.168664  0  0.999336  0  0  0.17086  0  0.998971  0  0  0.109455  0.16708  0  0.999493  0
H  H31  1  0.52996234  0.32331107  0.61029674  1  0  0.149298  0  0.940932  0  0  0.168672  0  0.999373  0  0  0.170867  0  0.99901  0  0  0.109466  0.167089  0  0.999531  0
H  H32  1  0.08185433  0.76978720  0.31071451  1  0  0.155649  0  0.926002  0  0  0.174811  0  0.984106  0  0  0.177426  0  0.982919  0  0  0.112461  0.172962  0  0.984785  0
H  H33  1  0.58185056  0.31071101  0.76978591  1  0  0.155641  0  0.926038  0  0  0.174851  0  0.984085  0  0  0.177459  0  0.982907  0  0  0.112497  0.173011  0  0.984755  0
H  H34  1  0.95177673  0.30166316  0.19368900  1  0  0.134257  0  0.944109  0  0  0.15423  0  1.000713  0  0  0.156355  0  1.000191  0  0  0.09867  0.15269  0  1.001107  0
H  H35  1  0.45177002  0.19368875  0.30166242  1  0  0.134274  0  0.944075  0  0  0.154244  0  1.00068  0  0  0.15637  0  1.000157  0  0  0.098708  0.152705  0  1.001074  0
H  H36  1  0.83455753  0.25404641  0.02904574  1  0  0.151159  0  0.955878  0  0  0.166097  0  1.018749  0  0  0.169843  0  1.016203  0  0  0.097767  0.163428  0  1.020472  0
H  H37  1  0.33455498  0.02904485  0.25404760  1  0  0.15116  0  0.955875  0  0  0.166066  0  1.018782  0  0  0.169812  0  1.016236  0  0  0.097762  0.163398  0  1.020506  0
H  H38  1  0.79198687  0.36858250  0.11359726  1  0  0.128121  0  0.952676  0  0  0.147818  0  1.014478  0  0  0.149629  0  1.014219  0  0  0.09895  0.146544  0  1.014641  0
H  H39  1  0.29197902  0.11359356  0.36858133  1  0  0.128084  0  0.952658  0  0  0.147791  0  1.014453  0  0  0.149602  0  1.014194  0  0  0.098933  0.146517  0  1.014615  0
H  H40  1  0.59838871  0.68917630  0.75927111  1  0  0.452284  0  0.841391  0  0  0.424028  0  0.898932  0  0  0.435231  0  0.882809  0  0  0.305769  0.416365  0  0.91  0
H  H41  1  0.09838963  0.75927211  0.68917691  1  0  0.452308  0  0.841373  0  0  0.424062  0  0.898895  0  0  0.435263  0  0.882774  0  0  0.305786  0.416401  0  0.909959  0
H  H42  1  0.74776272  0.65680164  0.72260160  1  0  0.442201  0  0.858208  0  0  0.413261  0  0.918318  0  0  0.424193  0  0.902555  0  0  0.302513  0.405656  0  0.929385  0
H  H43  1  0.24776179  0.72260100  0.65680192  1  0  0.442231  0  0.858168  0  0  0.41329  0  0.91828  0  0  0.424222  0  0.902515  0  0  0.302521  0.405685  0  0.929346  0
C  C44  1  0.75093597  0.45303239  0.41545696  1  0  -0.462468  0  3.628592  0  0  -0.537892  0  3.856823  0  0  -0.545287  0  3.85857  0  0  -0.24536  -0.532416  0  3.854905  0
C  C45  1  0.25093936  0.41545945  0.45303379  1  0  -0.462398  0  3.628574  0  0  -0.537789  0  3.85678  0  0  -0.545182  0  3.85853  0  0  -0.24533  -0.532312  0  3.854861  0
C  C46  1  0.88304173  0.99740131  0.27002933  1  0  -0.45237  0  3.623747  0  0  -0.526021  0  3.84665  0  0  -0.533119  0  3.847959  0  0  -0.234839  -0.520985  0  3.845411  0
C  C47  1  0.38303122  0.27002888  0.99739842  1  0  -0.452326  0  3.62374  0  0  -0.525938  0  3.846657  0  0  -0.533035  0  3.847961  0  0  -0.234793  -0.520906  0  3.845421  0
C  C48  1  0.04035262  0.95900691  0.60258795  1  0  0.794295  0  3.794506  0  0  0.751051  0  4.090183  0  0  0.785018  0  4.085557  0  0  0.228879  0.72735  0  4.096981  0
C  C49  1  0.54035205  0.60258983  0.95900700  1  0  0.794424  0  3.794385  0  0  0.751095  0  4.090195  0  0  0.785063  0  4.085565  0  0  0.228867  0.727394  0  4.096997  0
C  C50  1  0.18709114  0.79412718  0.03261958  1  0  0.79005  0  3.809539  0  0  0.756217  0  4.096217  0  0  0.790845  0  4.086823  0  0  0.21709  0.733057  0  4.102098  0
C  C51  1  0.68708448  0.03261590  0.79412169  1  0  0.789925  0  3.809831  0  0  0.756142  0  4.09643  0  0  0.790773  0  4.087033  0  0  0.217092  0.732982  0  4.10231  0
C  C52  1  0.72445758  0.88252285  0.24524207  1  0  0.789945  0  3.808075  0  0  0.757166  0  4.093468  0  0  0.79211  0  4.083536  0  0  0.219848  0.733826  0  4.09964  0
C  C53  1  0.22444924  0.24524260  0.88251866  1  0  0.789779  0  3.808191  0  0  0.757011  0  4.093575  0  0  0.791953  0  4.083649  0  0  0.219756  0.733671  0  4.099747  0
C  C54  1  0.03543459  0.43443617  0.07502643  1  0  0.815098  0  3.798203  0  0  0.784621  0  4.080996  0  0  0.819063  0  4.071514  0  0  0.236925  0.761435  0  4.087402  0
C  C55  1  0.53543148  0.07502828  0.43443625  1  0  0.815228  0  3.798213  0  0  0.784637  0  4.081162  0  0  0.819095  0  4.07166  0  0  0.236949  0.761451  0  4.087567  0
C  C56  1  0.23500782  0.02087192  0.62742246  1  0  -0.465263  0  3.609702  0  0  -0.540151  0  3.838931  0  0  -0.547258  0  3.840049  0  0  -0.235859  -0.534654  0  3.837289  0
C  C57  1  0.73500648  0.62742640  0.02087240  1  0  -0.465218  0  3.609612  0  0  -0.540082  0  3.838892  0  0  -0.547193  0  3.840008  0  0  -0.235847  -0.534584  0  3.837257  0
C  C58  1  0.66457555  0.55269132  0.39443700  1  0  0.807618  0  3.803755  0  0  0.775969  0  4.088611  0  0  0.810309  0  4.079272  0  0  0.229954  0.752873  0  4.09494  0
C  C59  1  0.16457727  0.39443596  0.55269336  1  0  0.807638  0  3.803732  0  0  0.776004  0  4.088563  0  0  0.810344  0  4.079225  0  0  0.229974  0.752908  0  4.094894  0
C  C60  1  0.08727613  0.86796341  0.95305213  1  0  -0.452146  0  3.625624  0  0  -0.527247  0  3.856018  0  0  -0.534454  0  3.85648  0  0  -0.237365  -0.522094  0  3.855287  0
C  C61  1  0.58727334  0.95304985  0.86796191  1  0  -0.452027  0  3.625559  0  0  -0.527158  0  3.855937  0  0  -0.534364  0  3.856398  0  0  -0.237327  -0.522005  0  3.855205  0
C  C62  1  0.28324761  0.72472602  0.44274653  1  0  0.813738  0  3.773773  0  0  0.772381  0  4.062744  0  0  0.80676  0  4.05698  0  0  0.232376  0.748277  0  4.070182  0
C  C63  1  0.78324686  0.44274524  0.72472757  1  0  0.813755  0  3.773736  0  0  0.772363  0  4.062787  0  0  0.806728  0  4.05705  0  0  0.232373  0.748277  0  4.0702  0
C  C64  1  0.09064863  0.70277833  0.37786681  1  0  -0.461974  0  3.600672  0  0  -0.535771  0  3.826448  0  0  -0.542831  0  3.827364  0  0  -0.231627  -0.530254  0  3.825018  0
C  C65  1  0.59064853  0.37786558  0.70277740  1  0  -0.462047  0  3.600691  0  0  -0.535881  0  3.826497  0  0  -0.542933  0  3.827423  0  0  -0.231679  -0.530381  0  3.825054  0
C  C66  1  0.89553467  0.33169616  0.10449623  1  0  -0.462927  0  3.64066  0  0  -0.536398  0  3.863326  0  0  -0.543326  0  3.864369  0  0  -0.243713  -0.531376  0  3.862196  0
C  C67  1  0.39552987  0.10449451  0.33169545  1  0  -0.462926  0  3.640626  0  0  -0.536343  0  3.863339  0  0  -0.543277  0  3.864378  0  0  -0.243723  -0.531322  0  3.862208  0
O  O68  1  0.37889504  0.70418430  0.38036471  1  0  -0.843535  0  2.176067  0  0  -0.788214  0  2.449289  0  0  -0.822151  0  2.43814  0  0  -0.461655  -0.769197  0  2.456952  0
O  O69  1  0.87889422  0.38036504  0.70418608  1  0  -0.84351  0  2.176073  0  0  -0.788129  0  2.4492  0  0  -0.822062  0  2.438058  0  0  -0.46163  -0.76912  0  2.456855  0
O  O70  1  0.93080995  0.01868612  0.56277480  1  0  -0.826285  0  2.108477  0  0  -0.772245  0  2.37294  0  0  -0.80488  0  2.362719  0  0  -0.429881  -0.753809  0  2.380135  0
O  O71  1  0.43081022  0.56277578  0.01868608  1  0  -0.826312  0  2.108416  0  0  -0.77226  0  2.37293  0  0  -0.804895  0  2.362708  0  0  -0.429869  -0.753812  0  2.380093  0
O  O72  1  0.69196503  0.82651211  0.33605554  1  0  -0.835228  0  2.102233  0  0  -0.778916  0  2.357475  0  0  -0.81493  0  2.345617  0  0  -0.430189  -0.759942  0  2.363067  0
O  O73  1  0.19196173  0.33605575  0.82650693  1  0  -0.835089  0  2.102109  0  0  -0.778755  0  2.357305  0  0  -0.81477  0  2.345447  0  0  -0.43011  -0.759784  0  2.362896  0
O  O74  1  0.21750532  0.70362090  0.98254013  1  0  -0.851209  0  2.101226  0  0  -0.793698  0  2.358418  0  0  -0.83006  0  2.345688  0  0  -0.441468  -0.774799  0  2.364778  0
O  O75  1  0.71750141  0.98253724  0.70361755  1  0  -0.851201  0  2.101342  0  0  -0.79371  0  2.35852  0  0  -0.830072  0  2.345788  0  0  -0.441508  -0.774809  0  2.364883  0
O  O76  1  0.97868971  0.84646191  0.61909415  1  0  -0.693098  0  2.001168  0  0  -0.630528  0  2.228702  0  0  -0.663585  0  2.218121  0  0  -0.347843  -0.612704  0  2.235045  0
O  O77  1  0.47868940  0.61909481  0.84646228  1  0  -0.693166  0  2.001202  0  0  -0.630551  0  2.228763  0  0  -0.66361  0  2.218181  0  0  -0.347833  -0.612728  0  2.235105  0
O  O78  1  0.15336800  0.51296286  0.16588069  1  0  -0.771213  0  1.989563  0  0  -0.72077  0  2.239503  0  0  -0.746564  0  2.228088  0  0  -0.422813  -0.702311  0  2.246605  0
O  O79  1  0.65336689  0.16588270  0.51295850  1  0  -0.77126  0  1.989609  0  0  -0.720794  0  2.239627  0  0  -0.746595  0  2.228205  0  0  -0.422809  -0.702334  0  2.246728  0
O  O80  1  0.24691665  0.82122140  0.15025079  1  0  -0.70768  0  1.915814  0  0  -0.662693  0  2.146598  0  0  -0.687054  0  2.137007  0  0  -0.375604  -0.645375  0  2.152097  0
O  O81  1  0.74690438  0.15024720  0.82121541  1  0  -0.707569  0  1.915914  0  0  -0.662651  0  2.146758  0  0  -0.687016  0  2.137166  0  0  -0.375557  -0.645332  0  2.152256  0
O  O82  1  0.56521684  0.55187874  0.28396033  1  0  -0.771071  0  1.974942  0  0  -0.722413  0  2.222186  0  0  -0.747285  0  2.21001  0  0  -0.429828  -0.704604  0  2.229798  0
O  O83  1  0.06521866  0.28396108  0.55187998  1  0  -0.771063  0  1.975062  0  0  -0.722404  0  2.222301  0  0  -0.74728  0  2.210128  0  0  -0.429812  -0.704594  0  2.229911  0
O  O84  1  0.02737775  0.43848810  0.96286335  1  0  -0.746  0  2.059358  0  0  -0.698537  0  2.307667  0  0  -0.733059  0  2.295719  0  0  -0.387069  -0.680572  0  2.312813  0
O  O85  1  0.52737216  0.96286294  0.43849262  1  0  -0.746081  0  2.059345  0  0  -0.698556  0  2.307676  0  0  -0.733087  0  2.29573  0  0  -0.387111  -0.680588  0  2.312825  0
O  O86  1  0.35941496  0.76745820  0.55717833  1  0  -0.693316  0  1.986294  0  0  -0.633292  0  2.211426  0  0  -0.665607  0  2.200874  0  0  -0.340009  -0.615743  0  2.218085  0
O  O87  1  0.85941510  0.55717711  0.76746214  1  0  -0.693327  0  1.986218  0  0  -0.633288  0  2.21135  0  0  -0.665598  0  2.200806  0  0  -0.340028  -0.615747  0  2.217999  0
O  O88  1  0.69287291  0.62993433  0.48692029  1  0  -0.74647  0  2.009265  0  0  -0.699859  0  2.263121  0  0  -0.733744  0  2.249432  0  0  -0.391973  -0.682579  0  2.269991  0
O  O89  1  0.19287390  0.48692268  0.62993518  1  0  -0.746488  0  2.009201  0  0  -0.699904  0  2.263075  0  0  -0.733791  0  2.249384  0  0  -0.391979  -0.682624  0  2.269944  0
O  O90  1  0.62342697  0.83810037  0.13463415  1  0  -0.710308  0  1.91959  0  0  -0.661596  0  2.145739  0  0  -0.687002  0  2.137346  0  0  -0.375603  -0.64349  0  2.150377  0
O  O91  1  0.12341793  0.13463561  0.83809943  1  0  -0.710291  0  1.919667  0  0  -0.661582  0  2.145814  0  0  -0.686991  0  2.137423  0  0  -0.37562  -0.643476  0  2.150451  0
O  O92  1  0.68313728  0.71825383  0.71265719  1  0  -0.940028  0  1.863398  0  0  -0.896959  0  2.069566  0  0  -0.925727  0  2.030889  0  0  -0.666825  -0.883139  0  2.092055  0
O  O93  1  0.18313534  0.71265816  0.71825393  1  0  -0.940087  0  1.863388  0  0  -0.897021  0  2.069558  0  0  -0.925789  0  2.03088  0  0  -0.666845  -0.883204  0  2.092046  0
