# generated using pymatgen
data_TbH16C16N10ClO6
_symmetry_space_group_name_H-M   'P 1'
_cell_length_a   8.86026511
_cell_length_b   10.95479129
_cell_length_c   12.90096499
_cell_angle_alpha   115.14137879
_cell_angle_beta   106.18872922
_cell_angle_gamma   89.96929998
_symmetry_Int_Tables_number   1
_chemical_formula_structural   TbH16C16N10ClO6
_chemical_formula_sum   'Tb2 H32 C32 N20 Cl2 O12'
_cell_volume   1078.56030487
_cell_formula_units_Z   2
loop_
 _symmetry_equiv_pos_site_id
 _symmetry_equiv_pos_as_xyz
  1  'x, y, z'
loop_
 _atom_site_type_symbol
 _atom_site_label
 _atom_site_symmetry_multiplicity
 _atom_site_fract_x
 _atom_site_fract_y
 _atom_site_fract_z
 _atom_site_occupancy
 _atom_site_hle17_bader_spin_density
 _atom_site_hle17_ddec_charge
 _atom_site_hle17_ddec_spin_density
 _atom_site_hle17_ddec_sum_bond_order
 _atom_site_hle17_magmom
 _atom_site_hse06_10hf_bader_spin_density
 _atom_site_hse06_10hf_ddec_charge
 _atom_site_hse06_10hf_ddec_spin_density
 _atom_site_hse06_10hf_ddec_sum_bond_order
 _atom_site_hse06_10hf_magmom
 _atom_site_hse06_bader_spin_density
 _atom_site_hse06_ddec_charge
 _atom_site_hse06_ddec_spin_density
 _atom_site_hse06_ddec_sum_bond_order
 _atom_site_hse06_magmom
 _atom_site_pbe_bader_spin_density
 _atom_site_pbe_cm5_charge
 _atom_site_pbe_ddec_charge
 _atom_site_pbe_ddec_spin_density
 _atom_site_pbe_ddec_sum_bond_order
 _atom_site_pbe_magmom
Tb  Tb0  1  0.74982320  0.43906631  0.00016552  1  0  2.276855  0  1.600125  0  0  2.146666  0  2.045867  0  0  2.258101  0  1.882509  0  0  1.409645  2.11016  0  2.080331  0
Tb  Tb1  1  0.25017761  0.56093446  0.99983505  1  0  2.276884  0  1.60004  0  0  2.146693  0  2.045777  0  0  2.258126  0  1.882418  0  0  1.409661  2.110198  0  2.080231  0
H  H2  1  0.48274112  0.27980187  0.99521018  1  0  0.41944  0  0.88417  0  0  0.391411  0  0.94456  0  0  0.401781  0  0.929706  0  0  0.272809  0.384207  0  0.955006  0
H  H3  1  0.01717473  0.28487436  0.00493626  1  0  0.419692  0  0.883647  0  0  0.391968  0  0.943484  0  0  0.402326  0  0.928655  0  0  0.273336  0.384772  0  0.953917  0
H  H4  1  0.51725583  0.72019686  0.00478891  1  0  0.4195  0  0.884099  0  0  0.39148  0  0.944479  0  0  0.401849  0  0.929626  0  0  0.272822  0.384275  0  0.954926  0
H  H5  1  0.98282441  0.71512337  0.99506210  1  0  0.419742  0  0.883592  0  0  0.392021  0  0.943433  0  0  0.402383  0  0.928596  0  0  0.273348  0.384824  0  0.953868  0
H  H6  1  0.64175527  0.23504792  0.06422788  1  0  0.387238  0  0.937935  0  0  0.343489  0  1.022094  0  0  0.355749  0  1.005267  0  0  0.28074  0.334912  0  1.034015  0
H  H7  1  0.85837582  0.17101314  0.93597966  1  0  0.386721  0  0.938729  0  0  0.343262  0  1.022434  0  0  0.355523  0  1.005609  0  0  0.280752  0.33469  0  1.034346  0
H  H8  1  0.35824302  0.76495182  0.93577261  1  0  0.387232  0  0.93794  0  0  0.343473  0  1.022115  0  0  0.355734  0  1.005287  0  0  0.280733  0.334896  0  1.034037  0
H  H9  1  0.14162315  0.82898356  0.06401830  1  0  0.386715  0  0.93872  0  0  0.343264  0  1.022416  0  0  0.355524  0  1.005592  0  0  0.280758  0.334693  0  1.034326  0
H  H10  1  0.52587304  0.71312342  0.35323811  1  0  0.146113  0  0.909077  0  0  0.151093  0  0.978581  0  0  0.154625  0  0.975252  0  0  0.132625  0.148668  0  0.980745  0
H  H11  1  0.97352271  0.35972550  0.64658140  1  0  0.145529  0  0.910265  0  0  0.150983  0  0.978745  0  0  0.154489  0  0.975325  0  0  0.132949  0.148553  0  0.981003  0
H  H12  1  0.47412878  0.28687634  0.64676073  1  0  0.146132  0  0.909066  0  0  0.151101  0  0.978589  0  0  0.154633  0  0.975263  0  0  0.132628  0.148676  0  0.980754  0
H  H13  1  0.02647421  0.64028035  0.35342106  1  0  0.145516  0  0.910334  0  0  0.150961  0  0.978847  0  0  0.154465  0  0.975435  0  0  0.132937  0.148552  0  0.981044  0
H  H14  1  0.46720755  0.53957324  0.31149220  1  0  0.142645  0  0.888213  0  0  0.155812  0  0.943027  0  0  0.158488  0  0.941029  0  0  0.138926  0.153928  0  0.944342  0
H  H15  1  0.03256135  0.22805281  0.68842696  1  0  0.1416  0  0.889389  0  0  0.155232  0  0.943315  0  0  0.157849  0  0.941327  0  0  0.138723  0.153391  0  0.94463  0
H  H16  1  0.53279293  0.46042553  0.68850292  1  0  0.142591  0  0.888304  0  0  0.155782  0  0.943096  0  0  0.158457  0  0.9411  0  0  0.138917  0.153897  0  0.94441  0
H  H17  1  0.96744128  0.77195204  0.31157389  1  0  0.14161  0  0.889441  0  0  0.155243  0  0.943363  0  0  0.15786  0  0.941376  0  0  0.138751  0.153401  0  0.944681  0
H  H18  1  0.00246142  0.94038541  0.61841518  1  0  0.100691  0  0.969872  0  0  0.099416  0  1.052771  0  0  0.102992  0  1.049187  0  0  0.105273  0.096688  0  1.055551  0
H  H19  1  0.49788914  0.32143873  0.38124085  1  0  0.099994  0  0.971142  0  0  0.098788  0  1.054014  0  0  0.102336  0  1.050447  0  0  0.10548  0.096065  0  1.056793  0
H  H20  1  0.99753670  0.05961333  0.38158336  1  0  0.10069  0  0.969891  0  0  0.099406  0  1.05279  0  0  0.102981  0  1.049206  0  0  0.105271  0.096684  0  1.055567  0
H  H21  1  0.50211117  0.67855898  0.61875850  1  0  0.099988  0  0.971112  0  0  0.098791  0  1.05398  0  0  0.102341  0  1.050414  0  0  0.105478  0.096069  0  1.056763  0
H  H22  1  0.24230965  0.09228085  0.78774349  1  0  0.112831  0  0.948962  0  0  0.122694  0  1.005267  0  0  0.126195  0  1.003663  0  0  0.103133  0.120291  0  1.006267  0
H  H23  1  0.25802307  0.30436101  0.21202472  1  0  0.112253  0  0.94945  0  0  0.122435  0  1.00535  0  0  0.125999  0  1.003655  0  0  0.102752  0.11999  0  1.006398  0
H  H24  1  0.75768848  0.90771790  0.21225428  1  0  0.112839  0  0.948947  0  0  0.122712  0  1.00524  0  0  0.126215  0  1.003632  0  0  0.103137  0.120309  0  1.00624  0
H  H25  1  0.74197826  0.69563570  0.78797368  1  0  0.112272  0  0.949439  0  0  0.12244  0  1.005345  0  0  0.126004  0  1.00365  0  0  0.102743  0.119993  0  1.006391  0
H  H26  1  0.40399462  0.00328287  0.92488309  1  0  0.074086  0  0.940612  0  0  0.083767  0  1.004247  0  0  0.086558  0  1.001548  0  0  0.11295  0.081749  0  1.006119  0
H  H27  1  0.09599360  0.07840888  0.07496476  1  0  0.073289  0  0.940687  0  0  0.082885  0  1.004608  0  0  0.085623  0  1.001976  0  0  0.11268  0.080913  0  1.006416  0
H  H28  1  0.59600501  0.99671791  0.07511570  1  0  0.074063  0  0.940632  0  0  0.083741  0  1.004272  0  0  0.086532  0  1.001573  0  0  0.112928  0.081724  0  1.006139  0
H  H29  1  0.90400570  0.92158986  0.92503478  1  0  0.073333  0  0.940671  0  0  0.082937  0  1.004573  0  0  0.085674  0  1.001942  0  0  0.112705  0.080965  0  1.006381  0
H  H30  1  0.12144234  0.62853846  0.73705119  1  0  0.096785  0  0.941556  0  0  0.1012  0  1.01255  0  0  0.104853  0  1.008971  0  0  0.122019  0.098469  0  1.015397  0
H  H31  1  0.37806205  0.89112997  0.26276974  1  0  0.096293  0  0.941725  0  0  0.100373  0  1.01321  0  0  0.10401  0  1.009613  0  0  0.121506  0.097651  0  1.016074  0
H  H32  1  0.87855276  0.37146332  0.26295098  1  0  0.096794  0  0.941624  0  0  0.101239  0  1.01257  0  0  0.104896  0  1.008988  0  0  0.122036  0.098505  0  1.015428  0
H  H33  1  0.62193810  0.10886674  0.73722766  1  0  0.096288  0  0.941778  0  0  0.100369  0  1.013246  0  0  0.104005  0  1.009651  0  0  0.121506  0.097643  0  1.016123  0
C  C34  1  0.60789379  0.57106080  0.21097847  1  0  0.746589  0  3.842211  0  0  0.702292  0  4.138911  0  0  0.73694  0  4.133282  0  0  0.232443  0.678832  0  4.145816  0
C  C35  1  0.89217568  0.36025085  0.78918573  1  0  0.747743  0  3.840641  0  0  0.702894  0  4.137711  0  0  0.737485  0  4.132072  0  0  0.232747  0.679494  0  4.144593  0
C  C36  1  0.39210884  0.42894405  0.78902238  1  0  0.746437  0  3.842488  0  0  0.702166  0  4.139139  0  0  0.736806  0  4.133528  0  0  0.232461  0.678705  0  4.14604  0
C  C37  1  0.10782764  0.63975092  0.21081723  1  0  0.747646  0  3.840846  0  0  0.702815  0  4.137881  0  0  0.737406  0  4.132242  0  0  0.23274  0.679412  0  4.14477  0
C  C38  1  0.56539085  0.61254661  0.32717584  1  0  -0.197036  0  3.590171  0  0  -0.26497  0  3.83028  0  0  -0.265987  0  3.832261  0  0  -0.034498  -0.26377  0  3.827763  0
C  C39  1  0.93424112  0.28531973  0.67279817  1  0  -0.205995  0  3.578112  0  0  -0.262893  0  3.827714  0  0  -0.263658  0  3.829422  0  0  -0.034305  -0.261884  0  3.825394  0
C  C40  1  0.43461113  0.38745417  0.67282340  1  0  -0.19701  0  3.590207  0  0  -0.264961  0  3.83033  0  0  -0.265969  0  3.832302  0  0  -0.034509  -0.26376  0  3.82781  0
C  C41  1  0.06575766  0.71468308  0.32720353  1  0  -0.206015  0  3.578186  0  0  -0.262923  0  3.827748  0  0  -0.263691  0  3.829458  0  0  -0.034316  -0.261905  0  3.825439  0
C  C42  1  0.90434394  0.68386374  0.56914094  1  0  0.253415  0  3.805324  0  0  0.231607  0  4.087278  0  0  0.239627  0  4.10509  0  0  0.219686  0.226342  0  4.075203  0
C  C43  1  0.59555155  0.11427513  0.43071592  1  0  0.252239  0  3.81261  0  0  0.230792  0  4.091181  0  0  0.23876  0  4.109101  0  0  0.219585  0.225633  0  4.078906  0
C  C44  1  0.09565217  0.31613703  0.43086027  1  0  0.253431  0  3.805169  0  0  0.231672  0  4.087133  0  0  0.239676  0  4.104968  0  0  0.219654  0.226409  0  4.075055  0
C  C45  1  0.40444876  0.88572258  0.56928421  1  0  0.25221  0  3.812551  0  0  0.230772  0  4.091106  0  0  0.238741  0  4.109025  0  0  0.219516  0.225616  0  4.078831  0
C  C46  1  0.04448685  0.77229373  0.66413198  1  0  -0.039883  0  3.786253  0  0  -0.016819  0  4.018109  0  0  -0.02327  0  4.042834  0  0  0.000744  -0.012819  0  4.001343  0
C  C47  1  0.45548104  0.10773218  0.33563039  1  0  -0.040136  0  3.784561  0  0  -0.016352  0  4.016495  0  0  -0.022811  0  4.041271  0  0  0.001901  -0.012349  0  3.999677  0
C  C48  1  0.95551059  0.22770805  0.33586987  1  0  -0.039795  0  3.786126  0  0  -0.016877  0  4.018158  0  0  -0.023327  0  4.042891  0  0  0.00077  -0.012876  0  4.001391  0
C  C49  1  0.54452045  0.89226553  0.66436997  1  0  -0.040241  0  3.784499  0  0  -0.016464  0  4.016448  0  0  -0.022924  0  4.041224  0  0  0.001865  -0.012463  0  3.999631  0
C  C50  1  0.07958280  0.90476434  0.67895404  1  0  -0.031432  0  3.676131  0  0  -0.061749  0  3.925979  0  0  -0.05915  0  3.945584  0  0  -0.065232  -0.062934  0  3.912458  0
C  C51  1  0.42063150  0.22539042  0.32071149  1  0  -0.030054  0  3.675566  0  0  -0.060799  0  3.926085  0  0  -0.058172  0  3.945698  0  0  -0.066272  -0.06199  0  3.912524  0
C  C52  1  0.92041432  0.09523541  0.32104699  1  0  -0.031457  0  3.676067  0  0  -0.061722  0  3.925947  0  0  -0.05912  0  3.945549  0  0  -0.06521  -0.062913  0  3.912425  0
C  C53  1  0.57936881  0.77460728  0.67928864  1  0  -0.029978  0  3.675512  0  0  -0.060728  0  3.92601  0  0  -0.058107  0  3.94563  0  0  -0.06621  -0.061925  0  3.912454  0
C  C54  1  0.21096188  0.98869188  0.77235009  1  0  -0.114278  0  3.75035  0  0  -0.125278  0  4.004368  0  0  -0.132537  0  4.026443  0  0  -0.087138  -0.120653  0  3.989147  0
C  C55  1  0.28922738  0.21610175  0.22739703  1  0  -0.114479  0  3.748156  0  0  -0.125584  0  4.002145  0  0  -0.132882  0  4.024162  0  0  -0.086443  -0.120912  0  3.986953  0
C  C56  1  0.78903423  0.01130889  0.22765036  1  0  -0.114254  0  3.750331  0  0  -0.12526  0  4.004311  0  0  -0.132517  0  4.026385  0  0  -0.087141  -0.120634  0  3.98909  0
C  C57  1  0.71077411  0.78389596  0.77260255  1  0  -0.114467  0  3.748175  0  0  -0.125561  0  4.002175  0  0  -0.132861  0  4.024195  0  0  -0.086436  -0.120888  0  3.986979  0
C  C58  1  0.30174851  0.93916955  0.84935876  1  0  0.123924  0  3.716442  0  0  0.088415  0  3.97554  0  0  0.095078  0  3.992974  0  0  0.046309  0.08431  0  3.963326  0
C  C59  1  0.19820981  0.08966126  0.15045451  1  0  0.125191  0  3.712198  0  0  0.089569  0  3.97169  0  0  0.09625  0  3.989097  0  0  0.046675  0.08545  0  3.959486  0
C  C60  1  0.69824978  0.06083020  0.15064173  1  0  0.123943  0  3.716386  0  0  0.088444  0  3.975486  0  0  0.095107  0  3.992922  0  0  0.046347  0.084341  0  3.963267  0
C  C61  1  0.80179051  0.91033646  0.84954408  1  0  0.125078  0  3.712171  0  0  0.089472  0  3.971671  0  0  0.096155  0  3.989076  0  0  0.046625  0.085353  0  3.959464  0
C  C62  1  0.14356177  0.73038704  0.74477247  1  0  0.110164  0  3.648516  0  0  0.066146  0  3.905334  0  0  0.072449  0  3.921212  0  0  0.058742  0.062236  0  3.894424  0
C  C63  1  0.35624220  0.98529127  0.25504337  1  0  0.111332  0  3.646546  0  0  0.067387  0  3.903407  0  0  0.073718  0  3.919253  0  0  0.059662  0.063436  0  3.892543  0
C  C64  1  0.85643685  0.26961475  0.25522805  1  0  0.110123  0  3.648673  0  0  0.066141  0  3.905509  0  0  0.07244  0  3.921394  0  0  0.058721  0.062227  0  3.894602  0
C  C65  1  0.64376063  0.01470746  0.74495761  1  0  0.111342  0  3.646568  0  0  0.067426  0  3.903445  0  0  0.073759  0  3.91929  0  0  0.059683  0.063469  0  3.892583  0
N  N66  1  0.81202667  0.72119846  0.48861213  1  0  -0.274024  0  2.825254  0  0  -0.276265  0  3.084306  0  0  -0.282811  0  3.097132  0  0  -0.188165  -0.271958  0  3.076299  0
N  N67  1  0.68756724  0.23223936  0.51129975  1  0  -0.285798  0  2.817357  0  0  -0.275094  0  3.087604  0  0  -0.281644  0  3.100484  0  0  -0.187855  -0.270799  0  3.079546  0
N  N68  1  0.18797178  0.27880230  0.51138876  1  0  -0.274087  0  2.82522  0  0  -0.276323  0  3.084282  0  0  -0.282867  0  3.097113  0  0  -0.188163  -0.272013  0  3.076273  0
N  N69  1  0.31243122  0.76776141  0.48870037  1  0  -0.285722  0  2.817433  0  0  -0.275  0  3.087653  0  0  -0.281548  0  3.100533  0  0  -0.187792  -0.270706  0  3.0796  0
N  N70  1  0.69616197  0.61758435  0.42623949  1  0  0.204367  0  3.618139  0  0  0.294303  0  3.837725  0  0  0.29092  0  3.859157  0  0  -0.005242  0.296519  0  3.822898  0
N  N71  1  0.80348173  0.19116008  0.57384657  1  0  0.244149  0  3.559543  0  0  0.292908  0  3.837812  0  0  0.28948  0  3.859176  0  0  -0.005291  0.295138  0  3.823088  0
N  N72  1  0.30383868  0.38241540  0.57376067  1  0  0.204495  0  3.618078  0  0  0.294382  0  3.837732  0  0  0.291  0  3.859165  0  0  -0.005193  0.296599  0  3.822902  0
N  N73  1  0.19652025  0.80884068  0.42615422  1  0  0.24407  0  3.559792  0  0  0.292814  0  3.838072  0  0  0.289386  0  3.859437  0  0  -0.005373  0.295041  0  3.823354  0
N  N74  1  0.71271500  0.51909437  0.46263077  1  0  -0.088296  0  2.857692  0  0  -0.097284  0  3.139669  0  0  -0.093908  0  3.148303  0  0  -0.064414  -0.099317  0  3.134236  0
N  N75  1  0.78722543  0.05627152  0.53748710  1  0  -0.100907  0  2.847131  0  0  -0.097238  0  3.13934  0  0  -0.093883  0  3.147995  0  0  -0.064566  -0.099269  0  3.133938  0
N  N76  1  0.28728463  0.48090640  0.53736957  1  0  -0.088304  0  2.857679  0  0  -0.097272  0  3.139672  0  0  -0.093897  0  3.148306  0  0  -0.06444  -0.099305  0  3.134242  0
N  N77  1  0.21277655  0.94372925  0.46251369  1  0  -0.100837  0  2.847249  0  0  -0.097152  0  3.139433  0  0  -0.093797  0  3.148089  0  0  -0.064499  -0.099184  0  3.134034  0
N  N78  1  0.84488028  0.56012584  0.55367311  1  0  -0.260284  0  2.911171  0  0  -0.252461  0  3.213024  0  0  -0.25948  0  3.222981  0  0  -0.194927  -0.247741  0  3.206721  0
N  N79  1  0.65520266  0.00609472  0.44631029  1  0  -0.262102  0  2.916856  0  0  -0.252479  0  3.214148  0  0  -0.259473  0  3.224129  0  0  -0.194967  -0.247793  0  3.2078  0
N  N80  1  0.15511817  0.43987492  0.44632856  1  0  -0.260378  0  2.911114  0  0  -0.252554  0  3.212965  0  0  -0.259567  0  3.222925  0  0  -0.194938  -0.247836  0  3.206664  0
N  N81  1  0.34480151  0.99390502  0.55369055  1  0  -0.262111  0  2.916769  0  0  -0.252501  0  3.214051  0  0  -0.259496  0  3.224034  0  0  -0.194961  -0.247813  0  3.207703  0
N  N82  1  0.26887072  0.81267235  0.83574999  1  0  -0.299182  0  3.204481  0  0  -0.23137  0  3.45228  0  0  -0.245821  0  3.467882  0  0  -0.303288  -0.221493  0  3.441268  0
N  N83  1  0.23095387  0.97676310  0.16410305  1  0  -0.300149  0  3.201597  0  0  -0.232206  0  3.449364  0  0  -0.246658  0  3.464935  0  0  -0.304309  -0.222333  0  3.43838  0
N  N84  1  0.73112807  0.18733046  0.16425170  1  0  -0.2992  0  3.204527  0  0  -0.23141  0  3.45234  0  0  -0.245865  0  3.467947  0  0  -0.303318  -0.221534  0  3.441329  0
N  N85  1  0.76904795  0.02323666  0.83589656  1  0  -0.300086  0  3.201549  0  0  -0.232191  0  3.449359  0  0  -0.246644  0  3.464926  0  0  -0.304322  -0.222319  0  3.438377  0
Cl  Cl86  1  0.75002918  0.68708475  0.00009624  1  0  -0.689208  0  0.848466  0  0  -0.64522  0  1.076975  0  0  -0.668802  0  1.047255  0  0  -0.295926  -0.634423  0  1.089861  0
Cl  Cl87  1  0.24996744  0.31291198  0.99989895  1  0  -0.689185  0  0.848472  0  0  -0.645205  0  1.076973  0  0  -0.668785  0  1.047255  0  0  -0.295908  -0.634407  0  1.089859  0
O  O88  1  0.50467041  0.57733223  0.12354347  1  0  -0.790046  0  2.145293  0  0  -0.738624  0  2.408483  0  0  -0.778102  0  2.399132  0  0  -0.404545  -0.719552  0  2.414904  0
O  O89  1  0.99566214  0.45391674  0.87637015  1  0  -0.790749  0  2.144756  0  0  -0.738587  0  2.408008  0  0  -0.778066  0  2.398805  0  0  -0.405031  -0.719506  0  2.41433  0
O  O90  1  0.49533444  0.42266447  0.87645483  1  0  -0.789972  0  2.145308  0  0  -0.738592  0  2.408552  0  0  -0.77807  0  2.399207  0  0  -0.404594  -0.71951  0  2.414958  0
O  O91  1  0.00433599  0.54608199  0.12362993  1  0  -0.79072  0  2.144693  0  0  -0.738561  0  2.407928  0  0  -0.77804  0  2.398726  0  0  -0.405034  -0.719478  0  2.414252  0
O  O92  1  0.74087342  0.53164733  0.20525672  1  0  -0.704612  0  2.010134  0  0  -0.659916  0  2.260352  0  0  -0.692479  0  2.249745  0  0  -0.37093  -0.642443  0  2.266394  0
O  O93  1  0.75938513  0.32677410  0.79523861  1  0  -0.705809  0  2.010316  0  0  -0.660467  0  2.260421  0  0  -0.693057  0  2.249808  0  0  -0.370828  -0.642948  0  2.266425  0
O  O94  1  0.25913724  0.46836361  0.79474867  1  0  -0.704545  0  2.010397  0  0  -0.659834  0  2.260557  0  0  -0.69239  0  2.24995  0  0  -0.370909  -0.642367  0  2.266616  0
O  O95  1  0.24061166  0.67322360  0.20476240  1  0  -0.705726  0  2.010503  0  0  -0.660392  0  2.260588  0  0  -0.692984  0  2.249986  0  0  -0.37083  -0.642876  0  2.266597  0
O  O96  1  0.59427323  0.26709616  0.99830472  1  0  -0.91359  0  1.928097  0  0  -0.858001  0  2.13218  0  0  -0.887772  0  2.09717  0  0  -0.665024  -0.842707  0  2.153358  0
O  O97  1  0.90572019  0.26899564  0.00191993  1  0  -0.913148  0  1.928608  0  0  -0.858136  0  2.132487  0  0  -0.887781  0  2.097295  0  0  -0.665602  -0.842906  0  2.153785  0
O  O98  1  0.40572656  0.73290563  0.00169680  1  0  -0.91365  0  1.928124  0  0  -0.858058  0  2.132159  0  0  -0.887829  0  2.09715  0  0  -0.665015  -0.842767  0  2.153339  0
O  O99  1  0.09427879  0.73100106  0.99807803  1  0  -0.913196  0  1.92856  0  0  -0.858212  0  2.132407  0  0  -0.887859  0  2.097212  0  0  -0.665626  -0.842985  0  2.153705  0
