# generated using pymatgen
data_Cd3H46C62(N3O8)2
_symmetry_space_group_name_H-M   'P 1'
_cell_length_a   11.81484268
_cell_length_b   16.06252569
_cell_length_c   18.37596173
_cell_angle_alpha   108.35356741
_cell_angle_beta   90.00013697
_cell_angle_gamma   89.99988891
_symmetry_Int_Tables_number   1
_chemical_formula_structural   Cd3H46C62(N3O8)2
_chemical_formula_sum   'Cd6 H92 C124 N12 O32'
_cell_volume   3309.92569615
_cell_formula_units_Z   2
loop_
 _symmetry_equiv_pos_site_id
 _symmetry_equiv_pos_as_xyz
  1  'x, y, z'
loop_
 _atom_site_type_symbol
 _atom_site_label
 _atom_site_symmetry_multiplicity
 _atom_site_fract_x
 _atom_site_fract_y
 _atom_site_fract_z
 _atom_site_occupancy
 _atom_site_pbe_bader_charge
 _atom_site_pbe_bader_spin_density
 _atom_site_pbe_cm5_charge
 _atom_site_pbe_ddec_charge
 _atom_site_pbe_ddec_spin_density
 _atom_site_pbe_ddec_sum_bond_order
 _atom_site_pbe_magmom
Cd  Cd0  1  0.99875998  0.02559710  0.11104818  1  1.287657  0  0.775707  0.879899  0  2.218464  0
Cd  Cd1  1  0.99876075  0.47440286  0.38895165  1  1.287668  0  0.77574  0.879993  0  2.218333  0
Cd  Cd2  1  0.00124033  0.97440295  0.88895031  1  1.287724  0  0.775722  0.879924  0  2.218426  0
Cd  Cd3  1  0.00124041  0.52559522  0.61104846  1  1.287764  0  0.775714  0.879933  0  2.218425  0
Cd  Cd4  1  0.21041023  0.75000009  0.25000026  1  1.296946  0  0.765174  0.932186  0  2.130135  0
Cd  Cd5  1  0.78958416  0.24999996  0.74999987  1  1.296956  0  0.765196  0.932209  0  2.130151  0
H  H6  1  0.16835747  0.57066784  0.26952224  1  0.635322  0  0.28293  0.391567  0  0.94234  0
H  H7  1  0.16835692  0.92933107  0.23047786  1  0.635325  0  0.282913  0.391539  0  0.942389  0
H  H8  1  0.83164115  0.42933221  0.73047789  1  0.635325  0  0.282938  0.391561  0  0.942352  0
H  H9  1  0.83164170  0.07066767  0.76952190  1  0.63533  0  0.282932  0.391557  0  0.942353  0
H  H10  1  0.24048287  0.64259660  0.33449182  1  0.635151  0  0.273297  0.363711  0  0.992723  0
H  H11  1  0.24048228  0.85740224  0.16550837  1  0.635175  0  0.273283  0.363698  0  0.99272  0
H  H12  1  0.75951659  0.35740345  0.66550830  1  0.635152  0  0.273275  0.363665  0  0.992771  0
H  H13  1  0.75951719  0.14259715  0.83449157  1  0.635152  0  0.273264  0.363658  0  0.992806  0
H  H14  1  0.29363818  0.76139568  0.94399687  1  0.099131  0  0.092215  0.087227  0  1.056689  0
H  H15  1  0.29363749  0.73860352  0.55600373  1  0.09913  0  0.092167  0.087128  0  1.056635  0
H  H16  1  0.70636044  0.23860503  0.05600290  1  0.099152  0  0.092175  0.087162  0  1.056653  0
H  H17  1  0.70636283  0.26139587  0.44399784  1  0.099149  0  0.092174  0.087148  0  1.056645  0
H  H18  1  0.41250374  0.90588525  0.04413423  1  0.070192  0  0.110382  0.116008  0  1.01407  0
H  H19  1  0.41250408  0.59411408  0.45586690  1  0.070176  0  0.110391  0.116012  0  1.014079  0
H  H20  1  0.58749826  0.09411480  0.95586644  1  0.070693  0  0.110354  0.115946  0  1.014113  0
H  H21  1  0.58749962  0.40588467  0.54413123  1  0.070661  0  0.110356  0.115957  0  1.014139  0
H  H22  1  0.29503966  0.67302088  0.80398421  1  0.03151  0  0.085738  0.075883  0  1.042294  0
H  H23  1  0.29503841  0.82697831  0.69601693  1  0.031406  0  0.08574  0.075885  0  1.042291  0
H  H24  1  0.70495811  0.32697983  0.19601555  1  0.031521  0  0.085754  0.075934  0  1.042262  0
H  H25  1  0.70495852  0.17302173  0.30398482  1  0.031444  0  0.085733  0.075874  0  1.04232  0
H  H26  1  0.20700204  0.91352425  0.03595390  1  0.12944  0  0.11843  0.098906  0  1.031688  0
H  H27  1  0.20700158  0.58647461  0.46404733  1  0.129177  0  0.118426  0.098903  0  1.031741  0
H  H28  1  0.79300081  0.08647514  0.96404549  1  0.12942  0  0.118415  0.098898  0  1.031765  0
H  H29  1  0.79300297  0.41352545  0.53595062  1  0.129112  0  0.118457  0.098929  0  1.031634  0
H  H30  1  0.23735896  0.51604924  0.76521485  1  0.041937  0  0.090295  0.081641  0  1.036163  0
H  H31  1  0.23735913  0.98395133  0.73478550  1  0.041916  0  0.090283  0.081597  0  1.036196  0
H  H32  1  0.76264220  0.48395081  0.23478473  1  0.041903  0  0.090296  0.081626  0  1.036189  0
H  H33  1  0.76264118  0.01604938  0.26521535  1  0.041954  0  0.090302  0.081631  0  1.036181  0
H  H34  1  0.17955144  0.44923228  0.86393181  1  0.088734  0  0.09466  0.094829  0  1.053679  0
H  H35  1  0.17955239  0.05076691  0.63606787  1  0.088736  0  0.094687  0.094868  0  1.053681  0
H  H36  1  0.82045057  0.55076712  0.13606813  1  0.088738  0  0.094658  0.094809  0  1.053701  0
H  H37  1  0.82045131  0.94923380  0.36393244  1  0.088788  0  0.094663  0.094805  0  1.053707  0
H  H38  1  0.23390519  0.52947356  0.06031090  1  0.07869  0  0.109041  0.092222  0  0.971616  0
H  H39  1  0.23390532  0.97052463  0.43968909  1  0.078688  0  0.109012  0.09218  0  0.971614  0
H  H40  1  0.76609512  0.47052518  0.93968831  1  0.078681  0  0.109034  0.092198  0  0.971593  0
H  H41  1  0.76609669  0.02947476  0.56031085  1  0.078713  0  0.10902  0.092204  0  0.971613  0
H  H42  1  0.09230867  0.55808458  0.04863830  1  0.084574  0  0.107318  0.087938  0  0.995036  0
H  H43  1  0.09230806  0.94191441  0.45136007  1  0.084539  0  0.107324  0.087918  0  0.994997  0
H  H44  1  0.90769249  0.44191482  0.95136110  1  0.084545  0  0.107314  0.087923  0  0.995004  0
H  H45  1  0.90769394  0.05808432  0.54863969  1  0.084557  0  0.107324  0.087941  0  0.994987  0
H  H46  1  0.20087959  0.17796103  0.16053249  1  0.103265  0  0.121007  0.095455  0  0.991144  0
H  H47  1  0.20088143  0.32203905  0.33946561  1  0.103267  0  0.121004  0.095437  0  0.991163  0
H  H48  1  0.79912157  0.82203903  0.83946546  1  0.103191  0  0.121024  0.095456  0  0.991126  0
H  H49  1  0.79912143  0.67795968  0.66053524  1  0.102817  0  0.121022  0.095467  0  0.991156  0
H  H50  1  0.08575960  0.27155720  0.92863925  1  0.074347  0  0.102302  0.116336  0  1.039837  0
H  H51  1  0.08576068  0.22844077  0.57135994  1  0.074365  0  0.102323  0.116383  0  1.039799  0
H  H52  1  0.91423902  0.72844220  0.07135960  1  0.074367  0  0.102289  0.116301  0  1.039839  0
H  H53  1  0.91424132  0.77155863  0.42863891  1  0.074344  0  0.102299  0.116349  0  1.039818  0
H  H54  1  0.11218138  0.49232530  0.13595765  1  0.152883  0  0.111108  0.128245  0  1.024662  0
H  H55  1  0.11218413  0.00767485  0.36404197  1  0.152883  0  0.111133  0.128263  0  1.024651  0
H  H56  1  0.88782063  0.50767409  0.86404121  1  0.152827  0  0.111116  0.12826  0  1.024664  0
H  H57  1  0.88781957  0.99232388  0.63595779  1  0.152894  0  0.111106  0.128282  0  1.024673  0
H  H58  1  0.99611309  0.24402772  0.14788605  1  0.140902  0  0.103647  0.119113  0  1.03457  0
H  H59  1  0.99611176  0.25597094  0.35211288  1  0.140921  0  0.103668  0.119161  0  1.034503  0
H  H60  1  0.00388553  0.75597233  0.85211462  1  0.140911  0  0.10362  0.119075  0  1.03464  0
H  H61  1  0.00388771  0.74402650  0.64788380  1  0.140777  0  0.103634  0.119115  0  1.034567  0
H  H62  1  0.41032802  0.18334826  0.17341292  1  0.072215  0  0.106555  0.109908  0  1.010246  0
H  H63  1  0.41032897  0.31665161  0.32658599  1  0.072372  0  0.106567  0.109937  0  1.010202  0
H  H64  1  0.58967230  0.81665244  0.82658793  1  0.072187  0  0.10657  0.109948  0  1.01021  0
H  H65  1  0.58967304  0.68334515  0.67341376  1  0.072289  0  0.106559  0.109924  0  1.010241  0
H  H66  1  0.56834255  0.89935323  0.08426657  1  0.060836  0  0.112511  0.119156  0  1.004549  0
H  H67  1  0.56834272  0.60064727  0.41573350  1  0.060824  0  0.112516  0.119163  0  1.004565  0
H  H68  1  0.43165861  0.10064746  0.91573591  1  0.060807  0  0.112526  0.11918  0  1.004532  0
H  H69  1  0.43166098  0.39935147  0.58426517  1  0.060782  0  0.112505  0.119172  0  1.004536  0
H  H70  1  0.58717755  0.18245287  0.14759116  1  0.088263  0  0.108767  0.112325  0  1.013653  0
H  H71  1  0.58717606  0.31754749  0.35240816  1  0.088264  0  0.108798  0.112345  0  1.013725  0
H  H72  1  0.41282530  0.81754718  0.85240897  1  0.088218  0  0.108835  0.112424  0  1.013692  0
H  H73  1  0.41282425  0.68245125  0.64758997  1  0.088242  0  0.108786  0.112372  0  1.013727  0
H  H74  1  0.00241232  0.85068057  0.20135413  1  0.155611  0  0.120535  0.100478  0  1.027797  0
H  H75  1  0.00241107  0.64931981  0.29864613  1  0.15562  0  0.120535  0.100464  0  1.027858  0
H  H76  1  0.99758461  0.14932014  0.79864564  1  0.155583  0  0.120524  0.100436  0  1.027825  0
H  H77  1  0.99758332  0.35068023  0.70135454  1  0.155554  0  0.120501  0.100432  0  1.027853  0
H  H78  1  0.79332001  0.85548225  0.20027715  1  0.073942  0  0.107836  0.109544  0  1.023436  0
H  H79  1  0.79331962  0.64451870  0.29972176  1  0.073966  0  0.107837  0.109541  0  1.023478  0
H  H80  1  0.20667692  0.14451847  0.79972153  1  0.073994  0  0.107866  0.109582  0  1.023465  0
H  H81  1  0.20667477  0.35548398  0.70027801  1  0.073964  0  0.107888  0.109636  0  1.023481  0
H  H82  1  0.63115787  0.77782814  0.14245551  1  0.04516  0  0.107753  0.112366  0  1.006111  0
H  H83  1  0.63116427  0.72217296  0.35754319  1  0.045002  0  0.107787  0.112472  0  1.006035  0
H  H84  1  0.36883397  0.22217257  0.85754317  1  0.044969  0  0.107788  0.112439  0  1.006045  0
H  H85  1  0.36883350  0.27782907  0.64245531  1  0.044916  0  0.107767  0.112432  0  1.006084  0
H  H86  1  0.41958418  0.77936239  0.14805162  1  0.140732  0  0.116257  0.091484  0  1.033973  0
H  H87  1  0.41958972  0.72064019  0.35195424  1  0.140716  0  0.11623  0.09148  0  1.033928  0
H  H88  1  0.58040767  0.22063831  0.85194977  1  0.140733  0  0.116249  0.091473  0  1.033948  0
H  H89  1  0.58040721  0.27936247  0.64804988  1  0.140709  0  0.116225  0.091449  0  1.033991  0
H  H90  1  0.77905801  0.89774279  0.08492048  1  0.138059  0  0.117323  0.091484  0  1.026393  0
H  H91  1  0.77905817  0.60225554  0.41507876  1  0.138083  0  0.117339  0.091507  0  1.026391  0
H  H92  1  0.22094399  0.10225725  0.91508127  1  0.138087  0  0.117305  0.091481  0  1.026384  0
H  H93  1  0.22094637  0.39774124  0.58491882  1  0.138043  0  0.117379  0.091495  0  1.026367  0
H  H94  1  0.79666830  0.16787037  0.14996910  1  0.121604  0  0.127007  0.104071  0  0.980069  0
H  H95  1  0.79666761  0.33212848  0.35003012  1  0.121596  0  0.126993  0.104049  0  0.980048  0
H  H96  1  0.20333455  0.83212902  0.85003084  1  0.121321  0  0.127001  0.104049  0  0.980038  0
H  H97  1  0.20333439  0.66786765  0.64996674  1  0.121681  0  0.12699  0.10408  0  0.980088  0
C  C98  1  0.23842893  0.71482913  0.06398903  1  1.568898  0  0.200797  0.572882  0  4.212735  0
C  C99  1  0.23842868  0.78516905  0.43601206  1  1.568936  0  0.200759  0.572936  0  4.212899  0
C  C100  1  0.76156969  0.28516961  0.93601073  1  1.568939  0  0.200812  0.572959  0  4.212787  0
C  C101  1  0.76156994  0.21483099  0.56398970  1  1.568998  0  0.2008  0.572926  0  4.212683  0
C  C102  1  0.23701893  0.65580095  0.98153432  1  -0.024731  0  -0.020178  -0.086192  0  3.913683  0
C  C103  1  0.23701782  0.84419764  0.51846656  1  -0.024623  0  -0.020178  -0.086234  0  3.913797  0
C  C104  1  0.76298139  0.34419778  0.01846598  1  -0.024661  0  -0.020165  -0.08615  0  3.913748  0
C  C105  1  0.76298250  0.15580240  0.48153465  1  -0.024673  0  -0.020171  -0.0862  0  3.91364  0
C  C106  1  0.27000948  0.69235489  0.92483038  1  -0.071286  0  -0.096599  -0.102905  0  4.022122  0
C  C107  1  0.27000868  0.80764564  0.57517056  1  -0.071271  0  -0.096562  -0.102764  0  4.021976  0
C  C108  1  0.72998914  0.30764713  0.07516975  1  -0.071278  0  -0.096551  -0.102833  0  4.02211  0
C  C109  1  0.72999079  0.19235440  0.42483011  1  -0.071298  0  -0.096609  -0.102879  0  4.022115  0
C  C110  1  0.37183199  0.96885862  0.07062685  1  -0.020576  0  -0.076275  -0.153126  0  3.919763  0
C  C111  1  0.37183154  0.53114009  0.42937404  1  -0.020532  0  -0.076281  -0.153087  0  3.919871  0
C  C112  1  0.62817002  0.03114207  0.92937563  1  -0.021071  0  -0.076199  -0.152945  0  3.919677  0
C  C113  1  0.62817047  0.46885604  0.57062172  1  -0.020933  0  -0.076201  -0.152928  0  3.919673  0
C  C114  1  0.27101915  0.64321530  0.84750727  1  -0.024877  0  -0.106684  -0.104141  0  4.058496  0
C  C115  1  0.27101850  0.85678588  0.65249439  1  -0.02486  0  -0.106719  -0.104228  0  4.058539  0
C  C116  1  0.72897863  0.35678606  0.15249376  1  -0.024908  0  -0.106732  -0.104246  0  4.058445  0
C  C117  1  0.72898096  0.14321547  0.34750719  1  -0.024894  0  -0.106685  -0.104132  0  4.058544  0
C  C118  1  0.25488078  0.97222653  0.06558689  1  0.52729  0  0.051754  0.110461  0  3.928441  0
C  C119  1  0.25488120  0.52777163  0.43441531  1  0.527548  0  0.051721  0.110375  0  3.928541  0
C  C120  1  0.74512123  0.02777351  0.93441487  1  0.527156  0  0.051752  0.110404  0  3.928503  0
C  C121  1  0.74512250  0.47222580  0.56558354  1  0.527397  0  0.051702  0.110307  0  3.928401  0
C  C122  1  0.23872171  0.55522251  0.82562869  1  -0.118355  0  -0.09453  -0.060726  0  4.023235  0
C  C123  1  0.23872092  0.94477804  0.67437220  1  -0.118373  0  -0.094465  -0.060586  0  4.023281  0
C  C124  1  0.76127860  0.44477753  0.17437197  1  -0.118348  0  -0.094523  -0.060688  0  4.023183  0
C  C125  1  0.76128024  0.05522397  0.32562901  1  -0.118334  0  -0.094522  -0.06073  0  4.023195  0
C  C126  1  0.20585135  0.51759608  0.88105566  1  0.047468  0  -0.098603  -0.141766  0  3.980294  0
C  C127  1  0.20585025  0.98240451  0.61894465  1  0.047453  0  -0.098668  -0.141877  0  3.980353  0
C  C128  1  0.79415066  0.48240397  0.11894447  1  0.047467  0  -0.098641  -0.14182  0  3.980391  0
C  C129  1  0.79415345  0.01759750  0.38105656  1  0.047453  0  -0.098611  -0.141739  0  3.980244  0
C  C130  1  0.20431607  0.56658556  0.95908782  1  -0.058268  0  0.000731  0.090661  0  3.901169  0
C  C131  1  0.20431566  0.93341307  0.54091194  1  -0.058329  0  0.000777  0.090704  0  3.901094  0
C  C132  1  0.79568593  0.43341120  0.04091248  1  -0.058096  0  0.000758  0.090707  0  3.901164  0
C  C133  1  0.79568720  0.06658764  0.45908837  1  -0.058336  0  0.000775  0.090736  0  3.901076  0
C  C134  1  0.16719666  0.52429621  0.01730484  1  0.413363  0  -0.065124  -0.021824  0  3.911135  0
C  C135  1  0.16719523  0.97570336  0.48269435  1  0.413344  0  -0.065117  -0.021738  0  3.910947  0
C  C136  1  0.83280366  0.47570253  0.98269491  1  0.413111  0  -0.065102  -0.021798  0  3.910957  0
C  C137  1  0.83280508  0.02429604  0.51730451  1  0.41327  0  -0.065099  -0.021829  0  3.910984  0
C  C138  1  0.10521888  0.38759022  0.02652213  1  0.549183  0  0.081423  0.254671  0  4.08387  0
C  C139  1  0.10521838  0.11240863  0.47347820  1  0.549137  0  0.081443  0.254741  0  4.083915  0
C  C140  1  0.89478143  0.61240983  0.97347854  1  0.549175  0  0.081423  0.254648  0  4.083827  0
C  C141  1  0.89478447  0.88759011  0.52652047  1  0.549188  0  0.081455  0.254771  0  4.083736  0
C  C142  1  0.25221166  0.11957989  0.13486615  1  0.550804  0  0.04996  0.099765  0  3.948591  0
C  C143  1  0.25221090  0.38042079  0.36513383  1  0.550804  0  0.049954  0.099815  0  3.948592  0
C  C144  1  0.74779119  0.88042082  0.86513253  1  0.550838  0  0.049934  0.099782  0  3.948537  0
C  C145  1  0.74779111  0.61957794  0.63486756  1  0.551272  0  0.049933  0.099751  0  3.948612  0
C  C146  1  0.07825894  0.29931652  0.99061594  1  -0.065784  0  -0.095132  -0.201194  0  3.937022  0
C  C147  1  0.07825818  0.20068079  0.50938361  1  -0.06581  0  -0.095164  -0.201306  0  3.937094  0
C  C148  1  0.92174137  0.70068287  0.00938346  1  -0.065852  0  -0.095154  -0.201236  0  3.937088  0
C  C149  1  0.92174383  0.79931664  0.49061578  1  -0.065808  0  -0.09513  -0.201286  0  3.937042  0
C  C150  1  0.09344142  0.42383710  0.10603277  1  -0.099875  0  -0.095769  -0.22247  0  3.94176  0
C  C151  1  0.09344326  0.07616242  0.39396719  1  -0.09978  0  -0.095766  -0.222477  0  3.9417  0
C  C152  1  0.90655804  0.57616098  0.89396735  1  -0.099824  0  -0.095777  -0.222508  0  3.941654  0
C  C153  1  0.90656043  0.92383829  0.60603203  1  -0.099863  0  -0.095824  -0.22267  0  3.9417  0
C  C154  1  0.55743204  0.04160212  0.11526203  1  -0.001406  0  0.014606  0.107088  0  3.973536  0
C  C155  1  0.55743199  0.45839892  0.38473906  1  -0.001433  0  0.014577  0.107079  0  3.97355  0
C  C156  1  0.44257081  0.95839858  0.88473936  1  -0.001528  0  0.014594  0.107132  0  3.973529  0
C  C157  1  0.44257086  0.54160048  0.61525979  1  -0.001465  0  0.014602  0.107127  0  3.973508  0
C  C158  1  0.05421888  0.37140347  0.14893125  1  -0.011823  0  -0.020513  -0.005989  0  4.009823  0
C  C159  1  0.05422126  0.12859674  0.35106884  1  -0.01192  0  -0.020505  -0.005975  0  4.009691  0
C  C160  1  0.94578059  0.62859593  0.85106815  1  -0.011793  0  -0.020512  -0.005921  0  4.009662  0
C  C161  1  0.94578159  0.87140330  0.64893129  1  -0.01176  0  -0.020486  -0.00586  0  4.009667  0
C  C162  1  0.43268047  0.04457865  0.10963873  1  -0.034616  0  0.010802  0.097744  0  3.973812  0
C  C163  1  0.43268130  0.45542186  0.39036039  1  -0.034667  0  0.010823  0.097727  0  3.973945  0
C  C164  1  0.56732069  0.95542270  0.89036230  1  -0.034736  0  0.010819  0.097709  0  3.97387  0
C  C165  1  0.56732071  0.54457558  0.60963683  1  -0.034861  0  0.010816  0.097635  0  3.973864  0
C  C166  1  0.03924190  0.24749811  0.03384496  1  0.052902  0  -0.025532  -0.029967  0  4.028389  0
C  C167  1  0.03924185  0.25250147  0.46615438  1  0.053004  0  -0.025487  -0.029862  0  4.028346  0
C  C168  1  0.96075672  0.75250063  0.96615480  1  0.052972  0  -0.025488  -0.029811  0  4.028356  0
C  C169  1  0.96075931  0.74749924  0.53384592  1  0.052925  0  -0.025514  -0.029883  0  4.028369  0
C  C170  1  0.02692698  0.28339823  0.11343994  1  -0.072279  0  -0.090575  -0.139426  0  3.952682  0
C  C171  1  0.02692758  0.21660266  0.38655975  1  -0.072315  0  -0.090616  -0.13953  0  3.952705  0
C  C172  1  0.97307248  0.71660247  0.88656091  1  -0.072278  0  -0.090559  -0.13949  0  3.952784  0
C  C173  1  0.97307527  0.78339674  0.61343856  1  -0.072177  0  -0.09057  -0.139484  0  3.952722  0
C  C174  1  0.01005849  0.15376973  0.99411194  1  1.551349  0  0.205275  0.581948  0  4.184891  0
C  C175  1  0.01006071  0.34623026  0.50589042  1  1.551515  0  0.2053  0.581967  0  4.184692  0
C  C176  1  0.98993844  0.84623161  0.00589126  1  1.55151  0  0.205382  0.582052  0  4.184537  0
C  C177  1  0.98993876  0.65376848  0.49410880  1  1.551513  0  0.205326  0.581984  0  4.184717  0
C  C178  1  0.36955306  0.12171615  0.14183336  1  -0.062131  0  -0.082834  -0.173456  0  3.942352  0
C  C179  1  0.36955312  0.37828443  0.35816405  1  -0.062297  0  -0.082836  -0.173491  0  3.942371  0
C  C180  1  0.63044895  0.87828588  0.85816568  1  -0.061901  0  -0.082865  -0.173545  0  3.942412  0
C  C181  1  0.63044973  0.62171300  0.64183426  1  -0.061883  0  -0.082837  -0.173452  0  3.942411  0
C  C182  1  0.03816206  0.41158044  0.23341553  1  1.517095  0  0.192528  0.559449  0  4.215603  0
C  C183  1  0.03816255  0.08841979  0.26658399  1  1.5171  0  0.192549  0.559529  0  4.21551  0
C  C184  1  0.96184079  0.58842026  0.76658424  1  1.517093  0  0.192545  0.559459  0  4.215537  0
C  C185  1  0.96183946  0.91157895  0.73341522  1  1.517036  0  0.192476  0.559384  0  4.215656  0
C  C186  1  0.61452424  0.96102990  0.09852757  1  -0.071086  0  -0.080159  -0.173125  0  3.949671  0
C  C187  1  0.61452451  0.53897055  0.40147201  1  -0.071102  0  -0.080156  -0.173128  0  3.949711  0
C  C188  1  0.38547862  0.03897079  0.90147491  1  -0.071099  0  -0.080228  -0.173145  0  3.949614  0
C  C189  1  0.38547919  0.46102623  0.59852502  1  -0.071159  0  -0.08017  -0.173126  0  3.949617  0
C  C190  1  0.62479724  0.11748037  0.13489215  1  -0.018245  0  -0.079233  -0.178374  0  3.934049  0
C  C191  1  0.62479563  0.38251996  0.36510613  1  -0.018131  0  -0.079238  -0.178387  0  3.934109  0
C  C192  1  0.37520646  0.88252033  0.86510870  1  -0.017944  0  -0.079309  -0.178556  0  3.93421  0
C  C193  1  0.37520468  0.61748011  0.63489128  1  -0.017945  0  -0.079248  -0.178414  0  3.934132  0
C  C194  1  0.95349575  0.80607283  0.22298036  1  0.557556  0  0.054291  0.107245  0  3.925366  0
C  C195  1  0.95349600  0.69392665  0.27701893  1  0.557553  0  0.054314  0.107215  0  3.925494  0
C  C196  1  0.04650202  0.19392591  0.77701940  1  0.557508  0  0.054294  0.107219  0  3.925455  0
C  C197  1  0.04649923  0.30607340  0.72298065  1  0.557526  0  0.054323  0.107235  0  3.925357  0
C  C198  1  0.83589791  0.80793336  0.22191749  1  -0.069765  0  -0.075441  -0.162869  0  3.926051  0
C  C199  1  0.83589732  0.69206623  0.27808056  1  -0.070163  0  -0.075484  -0.162825  0  3.926051  0
C  C200  1  0.16409902  0.19206538  0.77808064  1  -0.069839  0  -0.075469  -0.162859  0  3.926206  0
C  C201  1  0.16409792  0.30793579  0.72191849  1  -0.069672  0  -0.075515  -0.16301  0  3.926396  0
C  C202  1  0.77419683  0.74999983  0.24999844  1  -0.029536  0  0.014218  0.100821  0  3.98307  0
C  C203  1  0.22579586  0.25000089  0.74999915  1  -0.02994  0  0.014234  0.100917  0  3.983298  0
C  C204  1  0.64941396  0.75000054  0.25000018  1  -0.069978  0  0.014546  0.109587  0  3.990595  0
C  C205  1  0.35058043  0.25000083  0.74999977  1  -0.069942  0  0.01443  0.109339  0  3.990513  0
C  C206  1  0.58774648  0.76667891  0.19088551  1  0.03348  0  -0.080922  -0.174374  0  3.944599  0
C  C207  1  0.58775013  0.73332091  0.30911549  1  0.033574  0  -0.080993  -0.174589  0  3.944669  0
C  C208  1  0.41224452  0.23332114  0.80911516  1  0.033507  0  -0.08095  -0.174431  0  3.944475  0
C  C209  1  0.41224510  0.26668177  0.69088483  1  0.033543  0  -0.080961  -0.174434  0  3.944563  0
C  C210  1  0.47011056  0.76637809  0.19307285  1  0.44861  0  0.051432  0.103864  0  3.9389  0
C  C211  1  0.47011420  0.73362379  0.30693180  1  0.448796  0  0.051487  0.103891  0  3.938994  0
C  C212  1  0.52988044  0.23362326  0.80692872  1  0.448946  0  0.051443  0.103956  0  3.938943  0
C  C213  1  0.52988019  0.26637888  0.69307069  1  0.448906  0  0.051466  0.103932  0  3.938998  0
C  C214  1  0.73190879  0.95922403  0.09945932  1  0.528692  0  0.044625  0.083386  0  3.976938  0
C  C215  1  0.73190821  0.54077566  0.40054023  1  0.528682  0  0.044611  0.083369  0  3.977004  0
C  C216  1  0.26809322  0.04077536  0.90054225  1  0.528726  0  0.044706  0.083381  0  3.976877  0
C  C217  1  0.26809464  0.45922178  0.59945644  1  0.529288  0  0.044655  0.083453  0  3.976872  0
C  C218  1  0.74222751  0.11011862  0.13561927  1  0.469853  0  0.058115  0.106677  0  3.93272  0
C  C219  1  0.74222587  0.38988028  0.36437933  1  0.469761  0  0.058111  0.106721  0  3.932655  0
C  C220  1  0.25777619  0.88988142  0.86438139  1  0.469909  0  0.058127  0.106763  0  3.932644  0
C  C221  1  0.25777613  0.61011716  0.63561789  1  0.46921  0  0.058105  0.106678  0  3.932821  0
N  N222  1  0.01149942  0.75000019  0.25000013  1  -1.230807  0  -0.319851  -0.237603  0  3.48177  0
N  N223  1  0.98849836  0.24999986  0.75000054  1  -1.230848  0  -0.319834  -0.237537  0  3.481679  0
N  N224  1  0.19534170  0.04594197  0.09725909  1  -1.237306  0  -0.323486  -0.238891  0  3.482449  0
N  N225  1  0.19534257  0.45405810  0.40274226  1  -1.237373  0  -0.323468  -0.238888  0  3.482458  0
N  N226  1  0.80466031  0.95405808  0.90274104  1  -1.237263  0  -0.323505  -0.238896  0  3.482462  0
N  N227  1  0.80466113  0.54594129  0.59725822  1  -1.237358  0  -0.323509  -0.238871  0  3.482433  0
N  N228  1  0.41200158  0.75000129  0.25000292  1  -1.217946  0  -0.316174  -0.223372  0  3.454917  0
N  N229  1  0.58799112  0.25000071  0.74999992  1  -1.21803  0  -0.316075  -0.223424  0  3.455065  0
N  N230  1  0.79538698  0.03236513  0.11753280  1  -1.22401  0  -0.317999  -0.225578  0  3.466569  0
N  N231  1  0.79538606  0.46763373  0.38246587  1  -1.223989  0  -0.317993  -0.225616  0  3.466567  0
N  N232  1  0.20461502  0.96763426  0.88246769  1  -1.223954  0  -0.317996  -0.225588  0  3.466493  0
N  N233  1  0.20461680  0.53236305  0.61753170  1  -1.224137  0  -0.318042  -0.2257  0  3.466651  0
O  O234  1  0.27150250  0.79367758  0.07663257  1  -1.195978  0  -0.33072  -0.581405  0  2.223568  0
O  O235  1  0.27150326  0.70632188  0.42336893  1  -1.195998  0  -0.330691  -0.58138  0  2.22356  0
O  O236  1  0.72849528  0.20632246  0.92336864  1  -1.19599  0  -0.330703  -0.581435  0  2.223547  0
O  O237  1  0.72849621  0.29367817  0.57663228  1  -1.196003  0  -0.330682  -0.581351  0  2.223538  0
O  O238  1  0.00106479  0.36319124  0.27162964  1  -1.158515  0  -0.332829  -0.548854  0  2.204062  0
O  O239  1  0.00106162  0.13680837  0.22837073  1  -1.158389  0  -0.332885  -0.548927  0  2.204051  0
O  O240  1  0.99893806  0.63680946  0.72837121  1  -1.158414  0  -0.332852  -0.548874  0  2.20409  0
O  O241  1  0.99893785  0.86318906  0.77162866  1  -1.158554  0  -0.332863  -0.548888  0  2.20414  0
O  O242  1  0.20806556  0.68210737  0.11590361  1  -1.173556  0  -0.328287  -0.567482  0  2.259774  0
O  O243  1  0.20806419  0.81789149  0.38409708  1  -1.173481  0  -0.328263  -0.567533  0  2.259897  0
O  O244  1  0.79193221  0.31789071  0.88409543  1  -1.173514  0  -0.328312  -0.567524  0  2.259893  0
O  O245  1  0.79193358  0.18210985  0.61590558  1  -1.173527  0  -0.328305  -0.567542  0  2.259832  0
O  O246  1  0.14075048  0.43348596  0.97960820  1  -1.093688  0  -0.182881  -0.203529  0  2.557217  0
O  O247  1  0.14074926  0.06651327  0.52039035  1  -1.093687  0  -0.182908  -0.203579  0  2.557285  0
O  O248  1  0.85925068  0.56651344  0.02039011  1  -1.093666  0  -0.18288  -0.203468  0  2.557225  0
O  O249  1  0.85925359  0.93348678  0.47960924  1  -1.093704  0  -0.182884  -0.203484  0  2.557242  0
O  O250  1  0.06026048  0.49304513  0.26504877  1  -1.194003  0  -0.330099  -0.57902  0  2.234817  0
O  O251  1  0.06025938  0.00695574  0.23495096  1  -1.19399  0  -0.330065  -0.579001  0  2.234842  0
O  O252  1  0.93974068  0.50695558  0.73495100  1  -1.193968  0  -0.330089  -0.579008  0  2.234765  0
O  O253  1  0.93974009  0.99304299  0.76504934  1  -1.193938  0  -0.330043  -0.578948  0  2.234808  0
O  O254  1  0.96197464  0.10853353  0.03119931  1  -1.211194  0  -0.340068  -0.598642  0  2.365155  0
O  O255  1  0.96197931  0.39146777  0.46880248  1  -1.2114  0  -0.340128  -0.598725  0  2.365042  0
O  O256  1  0.03802060  0.89147044  0.96880463  1  -1.211349  0  -0.340136  -0.598722  0  2.365047  0
O  O257  1  0.03802016  0.60853097  0.53119674  1  -1.211364  0  -0.340105  -0.598671  0  2.365129  0
O  O258  1  0.03394445  0.12184254  0.92286843  1  -1.162589  0  -0.320311  -0.539213  0  2.271646  0
O  O259  1  0.03394855  0.37815545  0.57713341  1  -1.162526  0  -0.32032  -0.539216  0  2.271642  0
O  O260  1  0.96605163  0.87815683  0.07713477  1  -1.16257  0  -0.320356  -0.539274  0  2.271604  0
O  O261  1  0.96605515  0.62184329  0.42286526  1  -1.162558  0  -0.32034  -0.539262  0  2.271612  0
O  O262  1  0.22785123  0.61615612  0.27763981  1  -1.265058  0  -0.607138  -0.781891  0  2.027224  0
O  O263  1  0.22785078  0.88384404  0.22236072  1  -1.265053  0  -0.607105  -0.781835  0  2.027328  0
O  O264  1  0.77214569  0.38384589  0.72236086  1  -1.265067  0  -0.607137  -0.78184  0  2.027287  0
O  O265  1  0.77214784  0.11615600  0.77763994  1  -1.265064  0  -0.607116  -0.781842  0  2.027257  0
