# generated using pymatgen
data_CdH14C18(NO)4
_symmetry_space_group_name_H-M   'P 1'
_cell_length_a   7.92559134
_cell_length_b   10.66671836
_cell_length_c   11.55661840
_cell_angle_alpha   71.04174988
_cell_angle_beta   82.20133589
_cell_angle_gamma   69.19063207
_symmetry_Int_Tables_number   1
_chemical_formula_structural   CdH14C18(NO)4
_chemical_formula_sum   'Cd2 H28 C36 N8 O8'
_cell_volume   863.49848201
_cell_formula_units_Z   2
loop_
 _symmetry_equiv_pos_site_id
 _symmetry_equiv_pos_as_xyz
  1  'x, y, z'
loop_
 _atom_site_type_symbol
 _atom_site_label
 _atom_site_symmetry_multiplicity
 _atom_site_fract_x
 _atom_site_fract_y
 _atom_site_fract_z
 _atom_site_occupancy
 _atom_site_hle17_bader_spin_density
 _atom_site_hle17_ddec_charge
 _atom_site_hle17_ddec_spin_density
 _atom_site_hle17_ddec_sum_bond_order
 _atom_site_hle17_magmom
 _atom_site_hse06_10hf_bader_spin_density
 _atom_site_hse06_10hf_ddec_charge
 _atom_site_hse06_10hf_ddec_spin_density
 _atom_site_hse06_10hf_ddec_sum_bond_order
 _atom_site_hse06_10hf_magmom
 _atom_site_hse06_bader_spin_density
 _atom_site_hse06_ddec_charge
 _atom_site_hse06_ddec_spin_density
 _atom_site_hse06_ddec_sum_bond_order
 _atom_site_hse06_magmom
 _atom_site_pbe_bader_spin_density
 _atom_site_pbe_cm5_charge
 _atom_site_pbe_ddec_charge
 _atom_site_pbe_ddec_spin_density
 _atom_site_pbe_ddec_sum_bond_order
 _atom_site_pbe_magmom
Cd  Cd0  1  0.19082822  0.45117815  0.37389650  1  0  1.120441  0  1.682319  0  0  0.922382  0  2.133391  0  0  0.981015  0  2.08073  0  0  0.783555  0.880584  0  2.169357  0
Cd  Cd1  1  0.80917259  0.54882157  0.62610241  1  0  1.120444  0  1.682385  0  0  0.922388  0  2.133477  0  0  0.981019  0  2.080818  0  0  0.783562  0.880591  0  2.169448  0
H  H2  1  0.29108257  0.12556879  0.49285182  1  0  0.075318  0  0.954562  0  0  0.083982  0  1.019566  0  0  0.085598  0  1.019024  0  0  0.112821  0.08269  0  1.020136  0
H  H3  1  0.70891868  0.87442988  0.50714823  1  0  0.075354  0  0.954498  0  0  0.084021  0  1.019505  0  0  0.085638  0  1.018963  0  0  0.112828  0.082733  0  1.020075  0
H  H4  1  0.47054134  0.92740084  0.66290349  1  0  0.108378  0  0.956539  0  0  0.117272  0  1.019  0  0  0.119973  0  1.019225  0  0  0.107076  0.115515  0  1.018676  0
H  H5  1  0.52945820  0.07259888  0.33709554  1  0  0.108385  0  0.956542  0  0  0.117262  0  1.019028  0  0  0.119964  0  1.019251  0  0  0.107048  0.115506  0  1.018696  0
H  H6  1  0.55856866  0.23910139  0.78919672  1  0  0.121372  0  0.956479  0  0  0.128794  0  1.021025  0  0  0.13231  0  1.01961  0  0  0.110525  0.126294  0  1.022139  0
H  H7  1  0.44143514  0.76089729  0.21080309  1  0  0.121368  0  0.956507  0  0  0.128793  0  1.021044  0  0  0.132307  0  1.019634  0  0  0.110532  0.126295  0  1.022159  0
H  H8  1  0.38106758  0.42052217  0.61647708  1  0  0.09323  0  0.955261  0  0  0.101622  0  1.018653  0  0  0.104452  0  1.015935  0  0  0.114571  0.099554  0  1.02064  0
H  H9  1  0.61893323  0.57947755  0.38352096  1  0  0.093215  0  0.955232  0  0  0.101586  0  1.018638  0  0  0.104424  0  1.01591  0  0  0.114553  0.099517  0  1.020625  0
H  H10  1  0.64829694  0.84309088  0.83431722  1  0  0.109509  0  0.958846  0  0  0.118378  0  1.022337  0  0  0.12198  0  1.020054  0  0  0.105218  0.115918  0  1.023838  0
H  H11  1  0.35170559  0.15690779  0.16568184  1  0  0.109475  0  0.9589  0  0  0.118375  0  1.022351  0  0  0.121977  0  1.020068  0  0  0.105212  0.115915  0  1.023849  0
H  H12  1  0.70794036  0.06537834  0.92742819  1  0  0.098891  0  0.993311  0  0  0.106802  0  1.060973  0  0  0.109868  0  1.059397  0  0  0.102126  0.104609  0  1.062146  0
H  H13  1  0.29206007  0.93461928  0.07257225  1  0  0.098914  0  0.993215  0  0  0.106796  0  1.060912  0  0  0.109863  0  1.059336  0  0  0.102128  0.10461  0  1.062076  0
H  H14  1  0.86234107  0.98530904  0.11155983  1  0  0.116161  0  0.947016  0  0  0.124492  0  1.010173  0  0  0.127442  0  1.009944  0  0  0.109703  0.122491  0  1.010298  0
H  H15  1  0.13765719  0.01469069  0.88844017  1  0  0.116163  0  0.947056  0  0  0.124491  0  1.010211  0  0  0.127441  0  1.009985  0  0  0.109707  0.122486  0  1.010335  0
H  H16  1  0.03445387  0.79030909  0.28361387  1  0  0.084223  0  0.95071  0  0  0.091827  0  1.01733  0  0  0.094133  0  1.014958  0  0  0.114826  0.090039  0  1.019207  0
H  H17  1  0.96555166  0.20968853  0.71638437  1  0  0.084193  0  0.950765  0  0  0.091805  0  1.017385  0  0  0.094111  0  1.015012  0  0  0.114795  0.090014  0  1.01926  0
H  H18  1  0.99640986  0.48893333  0.14554476  1  0  0.077976  0  0.952951  0  0  0.086607  0  1.020127  0  0  0.088846  0  1.018118  0  0  0.113636  0.084969  0  1.021553  0
H  H19  1  0.00358967  0.51106639  0.85445427  1  0  0.077971  0  0.952875  0  0  0.086607  0  1.02005  0  0  0.088845  0  1.018041  0  0  0.113622  0.084968  0  1.021477  0
H  H20  1  0.81944528  0.67142187  0.96641728  1  0  0.112407  0  0.954212  0  0  0.123271  0  1.014149  0  0  0.126575  0  1.012796  0  0  0.109497  0.120787  0  1.015418  0
H  H21  1  0.18055088  0.32857681  0.03358410  1  0  0.112452  0  0.954173  0  0  0.123295  0  1.014139  0  0  0.126599  0  1.012786  0  0  0.109525  0.120805  0  1.015417  0
H  H22  1  0.65802259  0.50647146  0.07873844  1  0  0.145931  0  0.919539  0  0  0.1577  0  0.980245  0  0  0.16015  0  0.979437  0  0  0.122835  0.15613  0  0.980676  0
H  H23  1  0.34197732  0.49353036  0.92126078  1  0  0.145963  0  0.919552  0  0  0.157737  0  0.980245  0  0  0.160188  0  0.979437  0  0  0.122839  0.156165  0  0.980678  0
H  H24  1  0.78625904  0.34997249  0.18545300  1  0  0.146184  0  0.920217  0  0  0.158884  0  0.978425  0  0  0.161399  0  0.977254  0  0  0.120986  0.157198  0  0.979177  0
H  H25  1  0.21374551  0.65003040  0.81454892  1  0  0.146219  0  0.920239  0  0  0.15892  0  0.978426  0  0  0.161434  0  0.977257  0  0  0.121004  0.157233  0  0.979178  0
H  H26  1  0.80588324  0.15048383  0.56086003  1  0  0.147932  0  0.932501  0  0  0.159236  0  0.991302  0  0  0.161514  0  0.991163  0  0  0.119451  0.157612  0  0.991485  0
H  H27  1  0.19411457  0.84951696  0.43914316  1  0  0.147966  0  0.9325  0  0  0.159261  0  0.991309  0  0  0.16154  0  0.99117  0  0  0.119466  0.157635  0  0.991497  0
H  H28  1  0.66180379  0.27935880  0.44188843  1  0  0.153414  0  0.944958  0  0  0.162215  0  1.006416  0  0  0.165141  0  1.005664  0  0  0.119014  0.160014  0  1.00714  0
H  H29  1  0.33819358  0.72064303  0.55811189  1  0  0.153392  0  0.945028  0  0  0.16219  0  1.006485  0  0  0.165117  0  1.005733  0  0  0.118992  0.15999  0  1.007208  0
C  C30  1  0.35496814  0.14510567  0.55996635  1  0  0.122227  0  3.743298  0  0  0.09114  0  3.9954  0  0  0.098487  0  4.015915  0  0  0.039993  0.086463  0  3.981409  0
C  C31  1  0.64502630  0.85489405  0.44003315  1  0  0.122126  0  3.743215  0  0  0.091025  0  3.995327  0  0  0.098372  0  4.015843  0  0  0.039927  0.086343  0  3.981344  0
C  C32  1  0.45482207  0.03573035  0.65407216  1  0  -0.164245  0  3.700189  0  0  -0.179111  0  3.944689  0  0  -0.188039  0  3.966557  0  0  -0.081948  -0.173321  0  3.929776  0
C  C33  1  0.54517230  0.96427252  0.34592726  1  0  -0.164331  0  3.700251  0  0  -0.17918  0  3.944773  0  0  -0.188109  0  3.96664  0  0  -0.081938  -0.173385  0  3.929849  0
C  C34  1  0.53396434  0.06434268  0.74008737  1  0  0.140419  0  3.786535  0  0  0.15422  0  4.016576  0  0  0.160594  0  4.038554  0  0  0.011625  0.150208  0  4.001474  0
C  C35  1  0.46603481  0.93565495  0.25991578  1  0  0.140599  0  3.786406  0  0  0.154385  0  4.01646  0  0  0.160759  0  4.038435  0  0  0.011696  0.150377  0  4.001358  0
C  C36  1  0.50408512  0.20698361  0.72609294  1  0  -0.154083  0  3.653153  0  0  -0.168586  0  3.89664  0  0  -0.176737  0  3.917301  0  0  -0.076664  -0.163332  0  3.882719  0
C  C37  1  0.49591359  0.79301506  0.27390648  1  0  -0.154109  0  3.653176  0  0  -0.168622  0  3.896664  0  0  -0.176773  0  3.917326  0  0  -0.076671  -0.163367  0  3.882744  0
C  C38  1  0.40316326  0.31021299  0.62920235  1  0  0.131444  0  3.69915  0  0  0.097919  0  3.954179  0  0  0.105763  0  3.972351  0  0  0.041449  0.092783  0  3.941731  0
C  C39  1  0.59683411  0.68978883  0.37079538  1  0  0.131466  0  3.699122  0  0  0.097979  0  3.954108  0  0  0.105818  0  3.972279  0  0  0.041466  0.09285  0  3.941663  0
C  C40  1  0.63940643  0.94689843  0.83672516  1  0  -0.089087  0  3.674784  0  0  -0.108176  0  3.921857  0  0  -0.112134  0  3.94177  0  0  -0.075689  -0.105476  0  3.908108  0
C  C41  1  0.36059266  0.05310234  0.16327273  1  0  -0.089083  0  3.674813  0  0  -0.10818  0  3.921864  0  0  -0.112138  0  3.941779  0  0  -0.075686  -0.10549  0  3.908119  0
C  C42  1  0.72078658  0.96090580  0.92500205  1  0  -0.091453  0  3.696073  0  0  -0.111356  0  3.942557  0  0  -0.11481  0  3.963556  0  0  -0.076455  -0.108946  0  3.928206  0
C  C43  1  0.27921378  0.03909498  0.07499832  1  0  -0.091557  0  3.696045  0  0  -0.111446  0  3.942551  0  0  -0.114902  0  3.963551  0  0  -0.076517  -0.10903  0  3.928191  0
C  C44  1  0.82489923  0.84570441  0.02343477  1  0  0.14676  0  3.782415  0  0  0.161894  0  4.009574  0  0  0.167941  0  4.031799  0  0  0.014206  0.158098  0  3.994329  0
C  C45  1  0.17509730  0.15429636  0.97656508  1  0  0.146811  0  3.782412  0  0  0.161957  0  4.009537  0  0  0.168006  0  4.031763  0  0  0.014296  0.158155  0  3.994295  0
C  C46  1  0.88921221  0.87672767  0.11479996  1  0  -0.152555  0  3.66391  0  0  -0.169796  0  3.911208  0  0  -0.178372  0  3.932279  0  0  -0.074941  -0.164177  0  3.896882  0
C  C47  1  0.11078777  0.12327101  0.88520108  1  0  -0.152496  0  3.663962  0  0  -0.16974  0  3.911281  0  0  -0.178314  0  3.932338  0  0  -0.074933  -0.164118  0  3.896949  0
C  C48  1  0.98554845  0.76842647  0.21118554  1  0  0.14708  0  3.705157  0  0  0.112779  0  3.96127  0  0  0.121586  0  3.979105  0  0  0.049759  0.107064  0  3.949106  0
C  C49  1  0.01445325  0.23157115  0.78881392  1  0  0.147082  0  3.705199  0  0  0.112758  0  3.961322  0  0  0.121565  0  3.979159  0  0  0.049769  0.107045  0  3.949149  0
C  C50  1  0.96271085  0.60076006  0.13325932  1  0  0.116447  0  3.743052  0  0  0.083816  0  3.996585  0  0  0.090648  0  4.017783  0  0  0.038122  0.079373  0  3.982133  0
C  C51  1  0.03728830  0.39923757  0.86674211  1  0  0.11643  0  3.742859  0  0  0.083788  0  3.996401  0  0  0.09062  0  4.017599  0  0  0.038108  0.079347  0  3.981945  0
C  C52  1  0.86524467  0.70251128  0.03436395  1  0  -0.167234  0  3.685711  0  0  -0.180271  0  3.925083  0  0  -0.189047  0  3.94703  0  0  -0.081637  -0.174622  0  3.910454  0
C  C53  1  0.13475321  0.29748634  0.96563759  1  0  -0.167248  0  3.685648  0  0  -0.180274  0  3.925032  0  0  -0.189052  0  3.946977  0  0  -0.081678  -0.174628  0  3.910415  0
C  C54  1  0.49476672  0.40839113  0.21671758  1  0  0.68443  0  3.914309  0  0  0.639803  0  4.210972  0  0  0.671992  0  4.207444  0  0  0.196792  0.618126  0  4.212524  0
C  C55  1  0.50523664  0.59160858  0.78328023  1  0  0.684497  0  3.914146  0  0  0.639875  0  4.210814  0  0  0.672064  0  4.207287  0  0  0.196814  0.618203  0  4.212357  0
C  C56  1  0.66320828  0.39859004  0.13098355  1  0  -0.323663  0  3.732187  0  0  -0.355539  0  3.961754  0  0  -0.36139  0  3.965731  0  0  -0.134182  -0.351622  0  3.958981  0
C  C57  1  0.33678818  0.60141390  0.86901881  1  0  -0.323847  0  3.732276  0  0  -0.355712  0  3.961821  0  0  -0.361563  0  3.965795  0  0  -0.134232  -0.351793  0  3.959048  0
C  C58  1  0.67084333  0.32115154  0.04702896  1  0  0.36583  0  3.699733  0  0  0.34908  0  3.986901  0  0  0.36053  0  4.002566  0  0  0.192694  0.341214  0  3.976571  0
C  C59  1  0.32916085  0.67884924  0.95297105  1  0  0.365937  0  3.699842  0  0  0.349179  0  3.987014  0  0  0.360631  0  4.002677  0  0  0.192708  0.34131  0  3.976692  0
C  C60  1  0.91396924  0.30965345  0.44396444  1  0  0.729457  0  3.865967  0  0  0.679188  0  4.167956  0  0  0.713814  0  4.159663  0  0  0.215492  0.655697  0  4.172491  0
C  C61  1  0.08602857  0.69034733  0.55603616  1  0  0.729497  0  3.865896  0  0  0.679256  0  4.167847  0  0  0.713884  0  4.159548  0  0  0.215569  0.655779  0  4.172361  0
C  C62  1  0.80249037  0.21181149  0.46376127  1  0  -0.345969  0  3.742349  0  0  -0.375074  0  3.969425  0  0  -0.38176  0  3.972792  0  0  -0.142795  -0.370273  0  3.96708  0
C  C63  1  0.19751298  0.78818824  0.53624000  1  0  -0.346  0  3.742254  0  0  -0.375102  0  3.969307  0  0  -0.381793  0  3.972681  0  0  -0.142805  -0.3703  0  3.966961  0
C  C64  1  0.86543635  0.11776324  0.38883614  1  0  0.363577  0  3.705751  0  0  0.34875  0  3.98945  0  0  0.360786  0  4.004302  0  0  0.18871  0.340187  0  3.980041  0
C  C65  1  0.13456056  0.88223965  0.61116823  1  0  0.363542  0  3.705683  0  0  0.348718  0  3.989379  0  0  0.360754  0  4.004228  0  0  0.188649  0.340151  0  3.979981  0
N  N66  1  0.33009049  0.28071527  0.54630166  1  0  -0.360169  0  3.285376  0  0  -0.277346  0  3.551514  0  0  -0.299784  0  3.572167  0  0  -0.339553  -0.261909  0  3.537076  0
N  N67  1  0.66991077  0.71928341  0.45370011  1  0  -0.360125  0  3.2853  0  0  -0.277295  0  3.551428  0  0  -0.299733  0  3.572083  0  0  -0.339525  -0.261863  0  3.537008  0
N  N68  1  0.02131878  0.63236896  0.22115674  1  0  -0.346425  0  3.284314  0  0  -0.26334  0  3.550104  0  0  -0.286075  0  3.571156  0  0  -0.335845  -0.247747  0  3.535358  0
N  N69  1  0.97868031  0.36763180  0.77884028  1  0  -0.346484  0  3.284302  0  0  -0.263371  0  3.550083  0  0  -0.286106  0  3.571133  0  0  -0.335853  -0.247774  0  3.535325  0
N  N70  1  0.66919002  0.26063656  0.97975324  1  0  -0.42826  0  2.620501  0  0  -0.404131  0  2.851673  0  0  -0.414639  0  2.864048  0  0  -0.304373  -0.397155  0  2.843534  0
N  N71  1  0.33081244  0.73936527  0.02024748  1  0  -0.428335  0  2.620596  0  0  -0.404181  0  2.851739  0  0  -0.414688  0  2.864113  0  0  -0.30439  -0.397201  0  2.843605  0
N  N72  1  0.91703544  0.04246563  0.32808175  1  0  -0.43629  0  2.583484  0  0  -0.41338  0  2.807436  0  0  -0.42384  0  2.820078  0  0  -0.312834  -0.406495  0  2.799472  0
N  N73  1  0.08296671  0.95753095  0.67192057  1  0  -0.436283  0  2.583606  0  0  -0.413357  0  2.80754  0  0  -0.423819  0  2.820183  0  0  -0.312807  -0.406472  0  2.799584  0
O  O74  1  0.37800371  0.36005840  0.20157323  1  0  -0.641029  0  1.923629  0  0  -0.585455  0  2.155057  0  0  -0.611218  0  2.14693  0  0  -0.328096  -0.567499  0  2.159738  0
O  O75  1  0.62200175  0.63994237  0.79842406  1  0  -0.641035  0  1.923644  0  0  -0.585464  0  2.15508  0  0  -0.611229  0  2.146958  0  0  -0.328082  -0.567503  0  2.159744  0
O  O76  1  0.48560406  0.46697892  0.29838900  1  0  -0.64415  0  1.946224  0  0  -0.580928  0  2.181581  0  0  -0.609454  0  2.173559  0  0  -0.329506  -0.560942  0  2.186096  0
O  O77  1  0.51439548  0.53302080  0.70161003  1  0  -0.644148  0  1.946114  0  0  -0.580929  0  2.18147  0  0  -0.609451  0  2.173446  0  0  -0.329495  -0.560945  0  2.185981  0
O  O78  1  0.87865057  0.38297730  0.51613543  1  0  -0.674188  0  2.02596  0  0  -0.612485  0  2.297867  0  0  -0.640651  0  2.283663  0  0  -0.335146  -0.592445  0  2.306591  0
O  O79  1  0.12134934  0.61702452  0.48386293  1  0  -0.674182  0  2.025981  0  0  -0.612458  0  2.297837  0  0  -0.640625  0  2.28363  0  0  -0.335136  -0.592433  0  2.306573  0
O  O80  1  0.03161189  0.30959978  0.35776649  1  0  -0.640213  0  1.968958  0  0  -0.57708  0  2.21114  0  0  -0.604587  0  2.200332  0  0  -0.325022  -0.557657  0  2.217695  0
O  O81  1  0.96838592  0.69040100  0.64223324  1  0  -0.640221  0  1.968935  0  0  -0.577136  0  2.211147  0  0  -0.604642  0  2.200337  0  0  -0.325066  -0.55772  0  2.217701  0
