# generated using pymatgen
data_Cu2Mo4H12C7(N2O5)3
_symmetry_space_group_name_H-M   'P 1'
_cell_length_a   8.95040515
_cell_length_b   10.46653009
_cell_length_c   12.13058042
_cell_angle_alpha   70.50802536
_cell_angle_beta   71.30579244
_cell_angle_gamma   85.18603411
_symmetry_Int_Tables_number   1
_chemical_formula_structural   Cu2Mo4H12C7(N2O5)3
_chemical_formula_sum   'Cu4 Mo8 H24 C14 N12 O30'
_cell_volume   1014.40619259
_cell_formula_units_Z   2
loop_
 _symmetry_equiv_pos_site_id
 _symmetry_equiv_pos_as_xyz
  1  'x, y, z'
loop_
 _atom_site_type_symbol
 _atom_site_label
 _atom_site_symmetry_multiplicity
 _atom_site_fract_x
 _atom_site_fract_y
 _atom_site_fract_z
 _atom_site_occupancy
 _atom_site_hle17_ddec_charge
 _atom_site_hle17_ddec_spin_density
 _atom_site_hle17_ddec_sum_bond_order
 _atom_site_hle17_magmom
 _atom_site_hse06_10hf_bader_charge
 _atom_site_hse06_10hf_bader_spin_density
 _atom_site_hse06_10hf_ddec_charge
 _atom_site_hse06_10hf_ddec_spin_density
 _atom_site_hse06_10hf_ddec_sum_bond_order
 _atom_site_hse06_10hf_magmom
 _atom_site_hse06_ddec_charge
 _atom_site_hse06_ddec_spin_density
 _atom_site_hse06_ddec_sum_bond_order
 _atom_site_hse06_magmom
 _atom_site_pbe_cm5_charge
 _atom_site_pbe_ddec_charge
 _atom_site_pbe_ddec_spin_density
 _atom_site_pbe_ddec_sum_bond_order
 _atom_site_pbe_magmom
Cu  Cu0  1  0.49999721  0.00000029  0.50000237  1  0.929207  -0.556987  1.849122  -0.419  1.117073  -0.587705  0.907195  -0.717925  2.256293  -0.585  0.98005  -0.822929  2.199717  -0.685  0.778623  0.864403  -0.543184  2.292944  -0.436
Cu  Cu1  1  0.73398729  0.08759497  0.21062182  1  0.901391  0.576375  1.888543  0.437  1.115553  0.60288  0.887323  0.730947  2.299013  0.598  0.974182  0.838284  2.232567  0.702  0.745373  0.824718  0.556987  2.351898  0.45
Cu  Cu2  1  0.26601244  0.91240642  0.78938071  1  0.901293  0.576396  1.888614  0.437  1.115532  0.602883  0.887274  0.730952  2.299005  0.598  0.974082  0.838285  2.232637  0.702  0.745356  0.824676  0.556935  2.351892  0.45
Cu  Cu3  1  0.00000164  0.99999778  0.00000034  1  0.930487  -0.582068  1.85933  -0.441  1.144491  -0.605051  0.915076  -0.734811  2.264523  -0.602  0.997281  -0.839984  2.197624  -0.704  0.751746  0.85926  -0.558283  2.311864  -0.451
Mo  Mo4  1  0.63489960  0.42524957  0.28302994  1  2.179237  -0.000744  4.097167  -0.001  2.660765  -0.000589  2.178781  -0.000492  4.63802  -0.001  2.280063  -0.00051  4.601072  -0.001  1.486678  2.10543  -0.000451  4.668764  -0.001
Mo  Mo5  1  0.36510131  0.57475183  0.71696901  1  2.179181  -0.00077  4.097189  -0.001  2.66082  -0.000581  2.178703  -0.000486  4.638061  -0.001  2.279989  -0.000511  4.601113  -0.001  1.486618  2.105348  -0.000447  4.668803  -0.001
Mo  Mo6  1  0.58733617  0.75607280  0.18562583  1  2.197394  0.000491  4.074147  0.001  2.667425  0.000763  2.207704  0.000545  4.616609  0.001  2.307087  0.000467  4.580633  0.001  1.50459  2.133768  0.000379  4.649751  0.001
Mo  Mo7  1  0.41266469  0.24392759  0.81437176  1  2.197372  0.00051  4.074188  0.001  2.667484  0.000761  2.207674  0.000544  4.616661  0.001  2.307068  0.000465  4.580667  0.001  1.504558  2.13374  0.000383  4.649805  0.001
Mo  Mo8  1  0.27089899  0.70124141  0.43745734  1  2.190713  0.000163  4.049013  0.0  2.658553  0.000406  2.188021  0.000296  4.591965  0.0  2.287206  0.000228  4.55493  0.0  1.488931  2.115942  0.000305  4.623195  0.0
Mo  Mo9  1  0.72910310  0.29875999  0.56253968  1  2.190632  0.000153  4.049098  0.0  2.65859  0.000425  2.187918  0.000311  4.592083  0.0  2.287106  0.000225  4.555042  0.0  1.488843  2.115841  0.000297  4.623312  0.0
Mo  Mo10  1  0.33864638  0.38320742  0.52545302  1  2.228677  0.000232  4.055753  0.0  2.677141  0.000296  2.227491  0.000217  4.580866  0.0  2.330192  0.000173  4.542485  0.0  1.492169  2.151883  0.000118  4.614518  0.0
Mo  Mo11  1  0.66135205  0.61679096  0.47454573  1  2.228702  0.000205  4.056167  0.0  2.677095  0.000297  2.227471  0.000218  4.581329  0.0  2.330187  0.000173  4.542924  0.0  1.492158  2.151863  0.000114  4.61498  0.0
H  H12  1  0.76566192  0.08775486  0.40133799  1  0.396552  0.000284  0.89875  0.001  0.630127  0.000538  0.37653  0.000321  0.962956  0.001  0.387127  0.000389  0.948215  0.001  0.274978  0.368708  0.00015  0.973822  0.001
H  H13  1  0.23433542  0.91224552  0.59866704  1  0.396564  0.000284  0.898799  0.001  0.630162  0.000537  0.376533  0.000321  0.962953  0.001  0.387131  0.000389  0.948211  0.001  0.274999  0.368709  0.00015  0.973823  0.001
H  H14  1  0.94162412  0.92908052  0.23055497  1  0.407185  -0.000488  0.846241  0.0  0.603442  -0.000584  0.39771  -0.000487  0.899278  0.0  0.407264  -0.000371  0.891773  0.0  0.300822  0.389991  -0.000591  0.905108  0.0
H  H15  1  0.05837403  0.07091078  0.76944256  1  0.407224  -0.000488  0.846332  0.0  0.603479  -0.000584  0.397756  -0.000488  0.899349  0.0  0.407309  -0.000371  0.891743  0.0  0.300841  0.390034  -0.000592  0.905182  0.0
H  H16  1  0.16729038  0.11605444  0.44643621  1  0.137363  0.000285  0.899816  0.0  0.24326  0.000447  0.149548  0.000346  0.951072  0.0  0.152851  0.00029  0.946471  0.0  0.158994  0.146661  0.000277  0.955319  0.0
H  H17  1  0.83270325  0.88394194  0.55356589  1  0.137414  0.000285  0.899834  0.0  0.243387  0.000447  0.149597  0.000346  0.951099  0.0  0.152902  0.00029  0.946498  0.0  0.159022  0.146717  0.000277  0.955331  0.0
H  H18  1  0.45414351  0.18823096  0.07597435  1  0.128893  -0.000342  0.966268  0.0  0.224637  -0.00031  0.136033  -0.000211  1.02871  0.0  0.138629  -0.000186  1.025739  0.0  0.14725  0.134096  -0.000182  1.030821  0.0
H  H19  1  0.54585732  0.81176839  0.92403015  1  0.128885  -0.000341  0.966273  0.0  0.224572  -0.00031  0.136031  -0.000211  1.02872  0.0  0.13863  -0.000186  1.025751  0.0  0.147234  0.134085  -0.000181  1.030837  0.0
H  H20  1  0.95031261  0.69486899  0.22964321  1  0.134817  0.000256  0.941112  0.0  0.241551  0.000274  0.141959  0.00024  1.002357  0.0  0.145086  0.000195  0.997427  0.0  0.150034  0.13921  0.000225  1.006465  0.0
H  H21  1  0.04969167  0.30512832  0.77035858  1  0.134885  0.000254  0.941064  0.0  0.241592  0.000274  0.142015  0.00024  1.00231  0.0  0.145153  0.000195  0.99738  0.0  0.150059  0.139266  0.000225  1.006419  0.0
H  H22  1  0.34854494  0.61429124  0.96002236  1  0.119889  -0.000278  0.955961  0.0  0.221259  -0.000289  0.12861  -0.000215  1.016939  0.0  0.131141  -0.000171  1.013423  0.0  0.147887  0.126407  -0.000187  1.019917  0.0
H  H23  1  0.65145698  0.38570611  0.03997503  1  0.119727  -0.00028  0.956086  0.0  0.221279  -0.000289  0.128575  -0.000215  1.01694  0.0  0.131022  -0.000171  1.013539  0.0  0.147864  0.126384  -0.000187  1.019905  0.0
H  H24  1  0.02778695  0.20990243  0.28972848  1  0.103257  -8e-06  0.929703  0.0  0.127893  -3e-05  0.120907  -0.000112  0.986051  0.0  0.12264  -0.000102  0.984713  0.0  0.118499  0.119507  -0.000102  0.987272  0.0
H  H25  1  0.97221143  0.79009494  0.71026892  1  0.103282  -7e-06  0.929688  0.0  0.127919  -3e-05  0.120942  -0.000112  0.986034  0.0  0.122675  -0.000102  0.984695  0.0  0.118504  0.11954  -0.000102  0.987257  0.0
H  H26  1  0.10721218  0.16137401  0.15637214  1  0.106541  -0.000178  0.942702  0.0  0.134323  -0.000222  0.121284  -0.000131  1.001224  0.0  0.123596  -0.000103  1.000073  0.0  0.114405  0.119518  -0.00013  1.002295  0.0
H  H27  1  0.89279336  0.83862533  0.84362547  1  0.106431  -0.000177  0.942844  0.0  0.134471  -0.000222  0.121233  -0.000131  1.001304  0.0  0.123545  -0.000103  1.000151  0.0  0.11441  0.119463  -0.000129  1.002378  0.0
H  H28  1  0.06008142  0.39659498  0.08447840  1  0.098133  -1.1e-05  0.91905  0.0  0.045115  -7.5e-05  0.117477  -2.1e-05  0.974398  0.0  0.118425  -7e-06  0.974857  0.0  0.102773  0.116802  -2.5e-05  0.974137  0.0
H  H29  1  0.93991583  0.60340338  0.91552557  1  0.098071  -1.8e-05  0.91909  0.0  0.045061  -7.6e-05  0.117426  -2.2e-05  0.974433  0.0  0.118375  -7e-06  0.974893  0.0  0.10277  0.116749  -2.7e-05  0.974174  0.0
H  H30  1  0.26682244  0.38637735  0.05269371  1  0.081005  1.5e-05  0.94053  0.0  0.051922  -9e-06  0.096343  -7e-06  1.006924  0.0  0.096805  -4e-06  1.007394  0.0  0.098445  0.095982  -4e-06  1.006569  0.0
H  H31  1  0.73317607  0.61362304  0.94730691  1  0.080981  1e-05  0.940524  0.0  0.051899  -9e-06  0.096325  -7e-06  1.006914  0.0  0.096789  -4e-06  1.00738  0.0  0.098447  0.095963  -3e-06  1.006556  0.0
H  H32  1  0.03602685  0.45094914  0.27819028  1  0.111503  0.000166  0.913103  0.0  0.129282  0.00027  0.126122  0.000153  0.969832  0.0  0.127328  0.000118  0.969476  0.0  0.121165  0.125001  0.000146  0.970311  0.0
H  H33  1  0.96397056  0.54905330  0.72180838  1  0.111537  0.000169  0.913079  0.0  0.129298  0.000269  0.126091  0.000153  0.969863  0.0  0.127296  0.000118  0.969509  0.0  0.121159  0.12497  0.000146  0.970345  0.0
H  H34  1  0.24549716  0.45477521  0.23817490  1  0.112059  -5.1e-05  0.938642  0.0  0.143786  -6.4e-05  0.124184  -2.7e-05  0.99975  0.0  0.125091  -2.1e-05  0.999288  0.0  0.114139  0.123258  -3.6e-05  1.000443  0.0
H  H35  1  0.75450005  0.54522214  0.76182937  1  0.112063  -4.8e-05  0.938643  0.0  0.143805  -6.3e-05  0.124165  -2.7e-05  0.999771  0.0  0.125071  -2.1e-05  0.999308  0.0  0.11413  0.123246  -3.7e-05  1.00045  0.0
C  C36  1  0.26781347  0.12075622  0.36633081  1  0.219898  0.005754  3.551929  0.006  1.034955  0.004276  0.157356  0.002645  3.815224  0.003  0.174467  0.003016  3.822485  0.003  0.188783  0.146306  0.002064  3.811064  0.002
C  C37  1  0.73218378  0.87924215  0.63367152  1  0.219793  0.005749  3.551946  0.006  1.034919  0.004276  0.157255  0.002645  3.81527  0.003  0.174374  0.003016  3.822539  0.003  0.188764  0.146195  0.00206  3.811101  0.002
C  C38  1  0.41514162  0.15798845  0.17618263  1  0.198238  -0.000657  3.546346  0.0  1.034194  0.000482  0.140011  0.00076  3.808209  0.001  0.155486  -6e-06  3.818869  0.0  0.180121  0.130476  0.001152  3.800346  0.001
C  C39  1  0.58485925  0.84201192  0.82382075  1  0.198281  -0.000665  3.546367  0.0  1.03464  0.000482  0.140005  0.00076  3.808276  0.001  0.155476  -5e-06  3.818937  0.0  0.180124  0.130475  0.001144  3.800408  0.001
C  C40  1  0.04814098  0.70750923  0.14607593  1  0.216941  0.003666  3.541628  0.003  1.043867  0.002315  0.156678  0.001041  3.804868  0.001  0.174538  0.00159  3.811887  0.001  0.184909  0.144676  0.000618  3.801206  0.0
C  C41  1  0.95186107  0.29249115  0.85392386  1  0.21685  0.003686  3.541657  0.003  1.043898  0.002313  0.156604  0.00104  3.804892  0.001  0.174448  0.001591  3.811925  0.001  0.184905  0.144604  0.000622  3.801229  0.0
C  C42  1  0.25181525  0.66497689  0.00814677  1  0.201341  -0.002628  3.591429  -0.003  1.045455  -0.001462  0.141356  -0.000479  3.858537  0.0  0.15756  -0.001025  3.868565  -0.001  0.178445  0.130681  -0.000211  3.852261  0.0
C  C43  1  0.74818314  0.33502047  0.99185393  1  0.201546  -0.002598  3.591256  -0.002  1.045455  -0.001463  0.141445  -0.00048  3.858348  0.0  0.157689  -0.001026  3.868451  -0.001  0.178508  0.130764  -0.000205  3.852066  0.0
C  C44  1  0.12961751  0.22356794  0.20674224  1  0.001571  -0.000395  3.575364  0.0  0.26981  -0.000511  -0.057281  -0.000445  3.822783  0.0  -0.053905  -0.000346  3.833077  0.0  -0.049022  -0.059516  -0.000546  3.815955  0.0
C  C45  1  0.87038213  0.77643144  0.79325676  1  0.001691  -0.000403  3.575373  0.0  0.269634  -0.000512  -0.057206  -0.000446  3.822796  0.0  -0.053829  -0.000346  3.833092  0.0  -0.04899  -0.059443  -0.000552  3.81597  0.0
C  C46  1  0.15423650  0.37229102  0.12755722  1  -0.136691  -0.000284  3.654383  0.0  -0.007702  -0.000366  -0.184639  -0.000212  3.924022  0.0  -0.186241  -0.000163  3.937032  0.0  -0.15713  -0.183264  -0.000253  3.914766  0.0
C  C47  1  0.84576429  0.62770733  0.87244345  1  -0.136651  -0.000247  3.654274  0.0  -0.007667  -0.000365  -0.184619  -0.000212  3.923914  0.0  -0.186217  -0.000163  3.936914  0.0  -0.157165  -0.183249  -0.000251  3.914675  0.0
C  C48  1  0.14617150  0.46723708  0.20135595  1  -0.002663  -9e-06  3.553475  0.0  0.253145  4e-06  -0.058312  -0.0  3.799095  0.0  -0.054243  -1.2e-05  3.810097  0.0  -0.049389  -0.060981  4.1e-05  3.791955  0.0
C  C49  1  0.85382803  0.53275925  0.79864560  1  -0.002696  -3.1e-05  3.553416  0.0  0.253155  3e-06  -0.05827  -1e-06  3.798982  0.0  -0.054198  -1.2e-05  3.809981  0.0  -0.049346  -0.060953  4.5e-05  3.791854  0.0
N  N50  1  0.41267871  0.08384641  0.36626079  1  -0.219255  -0.048298  3.297406  -0.064  -0.76949  -0.061686  -0.184963  -0.040743  3.622932  -0.057  -0.207279  -0.038266  3.639285  -0.056  -0.269499  -0.170101  -0.035107  3.612321  -0.048
N  N51  1  0.58731976  0.91615296  0.63374261  1  -0.219127  -0.048304  3.297268  -0.064  -0.770048  -0.061686  -0.184901  -0.040743  3.622849  -0.057  -0.20725  -0.038264  3.63923  -0.056  -0.269493  -0.170047  -0.035123  3.612241  -0.048
N  N52  1  0.50477531  0.10809078  0.24766428  1  -0.238906  0.041378  3.319911  0.055  -0.755394  0.05693  -0.211593  0.037694  3.65651  0.052  -0.235967  0.034164  3.674974  0.049  -0.267349  -0.19603  0.0328  3.646009  0.044
N  N53  1  0.49522438  0.89190960  0.75233937  1  -0.238999  0.041392  3.319969  0.055  -0.754724  0.056933  -0.21164  0.037696  3.656564  0.052  -0.235993  0.034164  3.675038  0.049  -0.267369  -0.196085  0.032788  3.646059  0.044
N  N54  1  0.26562766  0.16794368  0.24826575  1  -0.067608  -0.0005  3.488965  -0.001  -1.273564  7.9e-05  0.025494  -0.000129  3.710852  0.0  0.009278  -0.000118  3.731813  0.0  -0.217365  0.036193  -0.00014  3.696262  0.0
N  N55  1  0.73437081  0.83205569  0.75173599  1  -0.06762  -0.000497  3.48902  -0.001  -1.274074  7.9e-05  0.025495  -0.000129  3.710927  0.0  0.00928  -0.000119  3.731886  0.0  -0.217394  0.03619  -0.000133  3.696336  0.0
N  N56  1  0.08726990  0.81914741  0.04957924  1  -0.225679  -0.047705  3.254669  -0.063  -0.786469  -0.060726  -0.187274  -0.040004  3.565492  -0.056  -0.210608  -0.036903  3.581754  -0.054  -0.265196  -0.171848  -0.03429  3.55583  -0.047
N  N57  1  0.91273097  0.18085296  0.95042248  1  -0.225649  -0.047721  3.254638  -0.063  -0.786466  -0.060723  -0.187293  -0.040001  3.565483  -0.056  -0.210626  -0.036904  3.581753  -0.054  -0.265201  -0.171866  -0.034296  3.555822  -0.047
N  N58  1  0.21432324  0.79220849  0.96318243  1  -0.240926  0.041485  3.275592  0.055  -0.764014  0.058414  -0.206121  0.038807  3.590937  0.054  -0.230347  0.035901  3.609453  0.051  -0.268499  -0.190505  0.033479  3.580515  0.045
N  N59  1  0.78567751  0.20778884  0.03682019  1  -0.241041  0.041467  3.275633  0.055  -0.764059  0.05841  -0.20618  0.038805  3.590992  0.054  -0.230407  0.0359  3.609482  0.051  -0.268533  -0.190564  0.033481  3.58058  0.045
N  N60  1  0.14884304  0.60850323  0.12225089  1  -0.057697  -0.000207  3.484818  0.0  -1.273342  -0.000182  0.033084  -0.00015  3.706674  0.0  0.016377  -0.000156  3.727528  0.0  -0.21557  0.043813  -8.4e-05  3.692967  0.0
N  N61  1  0.85115535  0.39149412  0.87775064  1  -0.057632  -0.000216  3.484606  0.0  -1.273388  -0.000183  0.033143  -0.00015  3.706468  0.0  0.016445  -0.000157  3.727311  0.0  -0.215603  0.043874  -9.6e-05  3.692763  0.0
O  O62  1  0.70985553  0.02287230  0.38374886  1  -0.815261  0.000882  1.866733  0.003  -1.142276  -0.003053  -0.830812  -0.002717  2.18257  -0.002  -0.892058  -0.003976  2.156775  -0.005  -0.585709  -0.786901  -0.00393  2.200393  -0.004
O  O63  1  0.29014302  0.97712911  0.61625229  1  -0.815285  0.000885  1.866831  0.003  -1.142266  -0.00305  -0.830827  -0.002714  2.182672  -0.002  -0.892049  -0.003974  2.156865  -0.005  -0.58575  -0.786922  -0.003929  2.200501  -0.004
O  O64  1  0.93891697  0.01331117  0.16487214  1  -0.828212  -0.001298  1.912713  -0.001  -1.125715  -0.004772  -0.834625  -0.003256  2.219454  -0.005  -0.895963  -0.0026  2.198676  -0.004  -0.57785  -0.790824  -0.004118  2.234595  -0.005
O  O65  1  0.06107902  0.98668519  0.83512776  1  -0.828194  -0.001277  1.912767  -0.001  -1.125749  -0.004756  -0.834638  -0.003247  2.219516  -0.005  -0.895962  -0.002595  2.198645  -0.004  -0.577866  -0.790834  -0.004108  2.234653  -0.005
O  O66  1  0.53254827  0.30225801  0.45152634  1  -0.967636  0.000475  1.822737  0.0  -1.102649  0.00058  -0.970282  0.000615  2.139056  0.0  -1.011487  0.000745  2.129523  0.0  -0.595121  -0.94034  0.00041  2.145903  0.0
O  O67  1  0.46746085  0.69774233  0.54846767  1  -0.967563  0.000492  1.822687  0.0  -1.102725  0.000577  -0.970198  0.000613  2.139007  0.0  -1.011427  0.000744  2.129512  0.0  -0.595129  -0.940258  0.000405  2.145858  0.0
O  O68  1  0.79256691  0.32741075  0.23863916  1  -0.715057  0.000288  1.507248  0.001  -0.871939  0.000191  -0.716296  5.9e-05  1.785429  0.001  -0.743566  -0.000224  1.773475  0.001  -0.51602  -0.69691  0.000347  1.795143  0.001
O  O69  1  0.20743395  0.67258964  0.76135844  1  -0.715025  0.000305  1.507228  0.001  -0.87191  0.000191  -0.716273  5.9e-05  1.785427  0.001  -0.743545  -0.000224  1.773481  0.001  -0.516004  -0.696889  0.000339  1.79515  0.001
O  O70  1  0.72115003  0.60186080  0.18234864  1  -0.889431  0.000101  1.740442  0.0  -1.041429  6.3e-05  -0.885743  6.2e-05  2.032077  0.0  -0.928029  5.3e-05  2.027701  0.0  -0.594677  -0.854288  0.0001  2.035191  0.0
O  O71  1  0.27885205  0.39814059  0.81765003  1  -0.889419  9.2e-05  1.740465  0.0  -1.041574  6.2e-05  -0.885728  6.2e-05  2.032109  0.0  -0.928016  5.2e-05  2.027733  0.0  -0.594673  -0.854285  8.8e-05  2.035236  0.0
O  O72  1  0.46727104  0.55453670  0.38814456  1  -1.211063  1e-06  1.864782  0.0  -1.266572  5.9e-05  -1.190083  9e-06  2.142977  0.0  -1.237948  -1e-06  2.141334  0.0  -0.619568  -1.153134  2.2e-05  2.142787  0.0
O  O73  1  0.53273600  0.44547076  0.61184708  1  -1.211076  1.2e-05  1.864881  0.0  -1.266639  5.9e-05  -1.190108  9e-06  2.143126  0.0  -1.23798  1e-06  2.141488  0.0  -0.619576  -1.153163  3.1e-05  2.142939  0.0
O  O74  1  0.50669742  0.40755733  0.20905860  1  -0.696176  0.000115  1.497216  0.0  -0.860625  0.000149  -0.694562  5.9e-05  1.756505  0.0  -0.721591  -8e-06  1.749616  0.0  -0.514061  -0.675253  0.000117  1.761722  0.0
O  O75  1  0.49330467  0.59244405  0.79094089  1  -0.696159  0.000116  1.4973  0.0  -0.860648  0.000144  -0.694507  5.6e-05  1.756592  0.0  -0.721542  -7e-06  1.749691  0.0  -0.514005  -0.675179  0.000131  1.761794  0.0
O  O76  1  0.70300574  0.89408907  0.08092400  1  -0.728387  0.000461  1.445886  0.0  -0.87228  0.000763  -0.745893  0.000641  1.718769  0.0  -0.77345  0.000589  1.702207  0.0  -0.526984  -0.725674  0.000645  1.73204  0.0
O  O77  1  0.29699386  0.10590930  0.91907612  1  -0.72843  0.000462  1.445948  0.0  -0.872268  0.000765  -0.745939  0.000642  1.718836  0.0  -0.77349  0.00059  1.702258  0.0  -0.526997  -0.725733  0.000644  1.732119  0.0
O  O78  1  0.42707491  0.81996631  0.30144523  1  -0.875592  5.1e-05  1.746185  0.0  -1.036223  0.000141  -0.878134  0.000134  2.044758  0.0  -0.919839  0.000113  2.038256  0.0  -0.591487  -0.847475  0.00013  2.049612  0.0
O  O79  1  0.57292965  0.18003811  0.69855116  1  -0.875564  3.7e-05  1.74629  0.0  -1.036195  0.000135  -0.878086  0.00013  2.044844  0.0  -0.919794  0.000113  2.038344  0.0  -0.591451  -0.847428  0.000132  2.049688  0.0
O  O80  1  0.47246649  0.72137038  0.10824041  1  -0.70664  -4.2e-05  1.467589  0.0  -0.866283  -8e-06  -0.708035  -2.5e-05  1.717397  0.0  -0.734344  -4.1e-05  1.708721  0.0  -0.521069  -0.688659  1e-05  1.724255  0.0
O  O81  1  0.52753084  0.27863002  0.89176132  1  -0.706601  -4.9e-05  1.467562  0.0  -0.866244  -7e-06  -0.707986  -2.4e-05  1.717361  0.0  -0.734295  -4e-05  1.708677  0.0  -0.521044  -0.688619  1.6e-05  1.724223  0.0
O  O82  1  0.17190595  0.81451429  0.51091504  1  -0.725832  0.000639  1.451724  0.001  -0.891911  0.000772  -0.713969  0.000581  1.697356  0.0  -0.738644  0.00048  1.683944  0.0  -0.525567  -0.696916  0.000552  1.707978  0.0
O  O83  1  0.82809495  0.18548712  0.48908143  1  -0.725818  0.00065  1.451798  0.001  -0.891943  0.000766  -0.713942  0.000577  1.697432  0.0  -0.738622  0.000481  1.684032  0.0  -0.525567  -0.696893  0.000545  1.708056  0.0
O  O84  1  0.23583704  0.53340130  0.58179710  1  -0.955516  3e-05  1.782831  0.0  -1.10593  6.6e-05  -0.946703  3.3e-05  2.072933  0.0  -0.990586  1.6e-05  2.069089  0.0  -0.594592  -0.913723  4.4e-05  2.074781  0.0
O  O85  1  0.76415934  0.46660520  0.41820146  1  -0.955449  3.1e-05  1.782842  0.0  -1.105954  6.5e-05  -0.946649  3.2e-05  2.072977  0.0  -0.99054  1.7e-05  2.069138  0.0  -0.594612  -0.913674  3.6e-05  2.074832  0.0
O  O86  1  0.14957599  0.66953254  0.36573044  1  -0.64761  0.000154  1.408879  0.0  -0.802673  0.000222  -0.648187  0.000135  1.649291  0.0  -0.673377  0.000101  1.639315  0.0  -0.500983  -0.630191  0.000134  1.65715  0.0
O  O87  1  0.85042504  0.33047190  0.63426761  1  -0.647622  0.000154  1.408851  0.0  -0.802672  0.000213  -0.648181  0.000129  1.649254  0.0  -0.67337  0.000102  1.639279  0.0  -0.50095  -0.630187  0.000138  1.657115  0.0
O  O88  1  0.29037564  0.25801978  0.67350019  1  -0.803958  -0.000145  1.644122  0.0  -0.970694  -0.000128  -0.79783  -0.000136  1.927695  0.0  -0.829729  -0.000157  1.915704  0.0  -0.549288  -0.774545  -7.7e-05  1.936959  0.0
O  O89  1  0.70962283  0.74197960  0.32650321  1  -0.803962  -0.000128  1.644145  0.0  -0.970673  -0.00013  -0.797823  -0.000137  1.927732  0.0  -0.829704  -0.000158  1.915708  0.0  -0.549257  -0.774559  -9.2e-05  1.937028  0.0
O  O90  1  0.21332561  0.35004927  0.45791734  1  -0.646631  2.2e-05  1.442528  0.0  -0.801067  5.4e-05  -0.639813  2e-05  1.688015  0.0  -0.661865  2e-05  1.677423  0.0  -0.49253  -0.623742  3.6e-05  1.696581  0.0
O  O91  1  0.78667765  0.64995213  0.54207610  1  -0.64669  2.2e-05  1.442644  0.0  -0.801039  5.6e-05  -0.639812  2.2e-05  1.688056  0.0  -0.661872  2.1e-05  1.677463  0.0  -0.49253  -0.623737  2.5e-05  1.696617  0.0
