# generated using pymatgen
data_CuH24C40(NO)6
_symmetry_space_group_name_H-M   'P 1'
_cell_length_a   8.90284936
_cell_length_b   9.95641398
_cell_length_c   11.71054226
_cell_angle_alpha   109.51844784
_cell_angle_beta   97.49099192
_cell_angle_gamma   115.90666914
_symmetry_Int_Tables_number   1
_chemical_formula_structural   CuH24C40(NO)6
_chemical_formula_sum   'Cu1 H24 C40 N6 O6'
_cell_volume   831.99397443
_cell_formula_units_Z   1
loop_
 _symmetry_equiv_pos_site_id
 _symmetry_equiv_pos_as_xyz
  1  'x, y, z'
loop_
 _atom_site_type_symbol
 _atom_site_label
 _atom_site_symmetry_multiplicity
 _atom_site_fract_x
 _atom_site_fract_y
 _atom_site_fract_z
 _atom_site_occupancy
 _atom_site_hle17_ddec_charge
 _atom_site_hle17_ddec_spin_density
 _atom_site_hle17_ddec_sum_bond_order
 _atom_site_hle17_magmom
 _atom_site_hse06_10hf_ddec_charge
 _atom_site_hse06_10hf_ddec_spin_density
 _atom_site_hse06_10hf_ddec_sum_bond_order
 _atom_site_hse06_10hf_magmom
 _atom_site_hse06_ddec_charge
 _atom_site_hse06_ddec_spin_density
 _atom_site_hse06_ddec_sum_bond_order
 _atom_site_hse06_magmom
 _atom_site_pbe_cm5_charge
 _atom_site_pbe_ddec_charge
 _atom_site_pbe_ddec_spin_density
 _atom_site_pbe_ddec_sum_bond_order
 _atom_site_pbe_magmom
Cu  Cu0  1  0.00000052  0.50000127  0.00000037  1  0.754485  0.6863  1.827436  0.488  0.704769  0.752669  2.201144  0.587  0.784143  0.820605  2.148694  0.667  0.776375  0.65803  0.706683  2.236452  0.538
H  H1  1  0.99682696  0.79028490  0.99692035  1  0.091504  0.00107  0.977154  0.002  0.09613  0.000887  1.046867  0.001  0.098759  0.000614  1.043248  0.001  0.114471  0.093907  0.001037  1.049996  0.002
H  H2  1  0.00317615  0.20971588  0.00307676  1  0.091568  0.00107  0.977104  0.002  0.096198  0.000887  1.046812  0.001  0.098828  0.000614  1.043192  0.001  0.114498  0.093976  0.001036  1.049942  0.002
H  H3  1  0.22001970  0.08796303  0.04987178  1  0.114577  0.000732  0.94968  0.001  0.123001  0.000622  1.008088  0.001  0.125544  0.000446  1.007946  0.0  0.110914  0.121332  0.000706  1.008001  0.001
H  H4  1  0.77998274  0.91203653  0.95012579  1  0.114572  0.000732  0.949688  0.001  0.122975  0.000622  1.008116  0.001  0.125516  0.000446  1.007978  0.0  0.110905  0.121307  0.000706  1.008026  0.001
H  H5  1  0.53690251  0.19855556  0.15236289  1  0.109988  0.000367  0.938603  0.001  0.119324  2.4e-05  1.000871  0.0  0.12201  -3.2e-05  0.998982  0.0  0.111159  0.117243  0.000103  1.002618  0.0
H  H6  1  0.46309978  0.80144783  0.84763912  1  0.109996  0.000366  0.938587  0.001  0.11934  2.4e-05  1.000851  0.0  0.122026  -3.3e-05  0.99896  0.0  0.111167  0.117258  0.000103  1.002597  0.0
H  H7  1  0.39407864  0.71227390  0.12750993  1  0.100067  0.001469  0.986047  0.003  0.099028  0.001133  1.062097  0.002  0.101383  0.000781  1.059109  0.002  0.120962  0.097152  0.001387  1.064222  0.002
H  H8  1  0.60592373  0.28772959  0.87249554  1  0.100073  0.001469  0.986026  0.003  0.099017  0.001133  1.062113  0.002  0.101371  0.000782  1.059124  0.002  0.120975  0.097141  0.001387  1.064238  0.002
H  H9  1  0.93768588  0.88945403  0.33377719  1  0.106363  9e-06  0.946425  0.0  0.117787  -6e-06  1.003672  0.0  0.120163  -3e-06  1.003688  0.0  0.107206  0.116377  -1e-05  1.003308  0.0
H  H10  1  0.06231650  0.11054546  0.66621779  1  0.106361  6e-06  0.946379  0.0  0.117812  -6e-06  1.003606  0.0  0.120192  -4e-06  1.003618  0.0  0.10721  0.116394  -1e-05  1.003239  0.0
H  H11  1  0.25219348  0.98079104  0.42954249  1  0.099921  -5.2e-05  0.949165  0.0  0.111304  -1e-05  1.006625  0.0  0.113851  -9e-06  1.006389  0.0  0.104747  0.109701  -1.2e-05  1.006637  0.0
H  H12  1  0.74780982  0.01921220  0.57045446  1  0.099888  -4.8e-05  0.949033  0.0  0.111307  -1e-05  1.006459  0.0  0.113855  -9e-06  1.006223  0.0  0.104779  0.109685  -1.2e-05  1.006501  0.0
H  H13  1  0.41783139  0.40793195  0.34899086  1  0.105914  -4.8e-05  0.957471  0.0  0.113288  4e-06  1.023763  0.0  0.116171  1e-06  1.022639  0.0  0.10423  0.111164  1.7e-05  1.024636  0.0
H  H14  1  0.58216855  0.59207134  0.65100749  1  0.105884  -5e-05  0.957501  0.0  0.113245  5e-06  1.023805  0.0  0.116129  1e-06  1.022682  0.0  0.104231  0.111118  1.7e-05  1.024676  0.0
H  H15  1  0.10603728  0.31770077  0.25616576  1  0.094445  -9.5e-05  0.966326  0.0  0.104131  -3.6e-05  1.02982  0.0  0.106044  -4.1e-05  1.030378  0.0  0.100987  0.103233  -3.3e-05  1.028882  0.0
H  H16  1  0.89396399  0.68229875  0.74382997  1  0.09444  -9.9e-05  0.966301  0.0  0.104103  -3.6e-05  1.029824  0.0  0.10602  -4.1e-05  1.030372  0.0  0.100968  0.103205  -3.3e-05  1.028888  0.0
H  H17  1  0.74519160  0.38685260  0.75591901  1  0.092577  0.001064  1.003694  0.002  0.091061  0.000782  1.081944  0.002  0.094178  0.000518  1.07788  0.001  0.117443  0.088446  0.000993  1.085052  0.002
H  H18  1  0.25481094  0.61315330  0.24408457  1  0.09268  0.001065  1.003654  0.002  0.091064  0.000782  1.081982  0.002  0.094181  0.000518  1.077911  0.001  0.117444  0.088446  0.000993  1.085089  0.002
H  H19  1  0.00117346  0.34471099  0.46827699  1  0.0992  0.000363  0.973871  0.001  0.108372  3.7e-05  1.037644  0.0  0.110432  -2.6e-05  1.037256  0.0  0.105646  0.106801  0.0001  1.038112  0.0
H  H20  1  0.99882229  0.65528249  0.53172256  1  0.099213  0.000363  0.973843  0.001  0.108391  3.7e-05  1.037619  0.0  0.110452  -2.6e-05  1.037232  0.0  0.105636  0.106819  0.0001  1.038078  0.0
H  H21  1  0.27438059  0.44021157  0.64237728  1  0.114542  0.000734  0.949182  0.001  0.120344  0.000576  1.014074  0.001  0.123643  0.000416  1.013009  0.0  0.110613  0.117862  0.000726  1.015076  0.001
H  H22  1  0.72561495  0.55977945  0.35762243  1  0.114568  0.000731  0.949153  0.001  0.120355  0.000576  1.014069  0.001  0.123659  0.000415  1.012988  0.0  0.110636  0.117875  0.000726  1.01507  0.001
H  H23  1  0.26858001  0.50346305  0.86473371  1  0.101955  0.001008  0.979485  0.002  0.098882  0.000776  1.05871  0.001  0.101907  0.000535  1.054713  0.001  0.11747  0.096169  0.000973  1.062231  0.002
H  H24  1  0.73142051  0.49653294  0.13526782  1  0.10198  0.001009  0.979507  0.002  0.098854  0.000776  1.058782  0.001  0.101879  0.000535  1.054787  0.001  0.117454  0.096149  0.000973  1.062299  0.002
C  C25  1  0.13841360  0.84447245  0.03859468  1  0.112678  -0.011259  3.665779  -0.008  0.081155  -0.002647  3.924576  -0.002  0.090313  -0.004607  3.942735  -0.003  0.042188  0.075196  -0.001039  3.913509  0.0
C  C26  1  0.86159248  0.15552963  0.96140477  1  0.11263  -0.011267  3.665589  -0.008  0.081086  -0.00265  3.924383  -0.002  0.090239  -0.004611  3.942538  -0.003  0.042164  0.075117  -0.00104  3.913326  0.0
C  C27  1  0.26152545  0.00843477  0.07038819  1  -0.104323  0.010717  3.755673  0.011  -0.11638  0.004136  4.009331  0.005  -0.123801  0.003831  4.0318  0.005  -0.080734  -0.111647  0.004402  3.994199  0.005
C  C28  1  0.73846997  0.99156231  0.92960803  1  -0.10437  0.010722  3.755865  0.011  -0.116406  0.004136  4.009534  0.005  -0.123828  0.003835  4.032005  0.005  -0.080735  -0.111672  0.004403  3.994388  0.005
C  C29  1  0.43942678  0.07032726  0.12737709  1  -0.040196  -0.014373  3.657875  -0.009  -0.067263  -0.005199  3.902756  -0.003  -0.063042  -0.005935  3.918606  -0.003  -0.056113  -0.06989  -0.004478  3.892524  -0.003
C  C30  1  0.56057619  0.92967737  0.87262532  1  -0.040178  -0.014368  3.658058  -0.009  -0.06724  -0.005196  3.902931  -0.003  -0.063018  -0.005943  3.918779  -0.003  -0.056149  -0.069867  -0.004477  3.892693  -0.003
C  C31  1  0.49120878  0.96469240  0.15089050  1  0.075621  0.01033  3.882745  0.012  0.095593  0.004326  4.106269  0.005  0.093406  0.003893  4.127603  0.005  0.007319  0.09624  0.00461  4.092588  0.006
C  C32  1  0.50879178  0.03530985  0.84911446  1  0.075687  0.010333  3.882622  0.012  0.095636  0.004322  4.106191  0.005  0.093453  0.003899  4.127517  0.005  0.00737  0.096278  0.004611  4.092517  0.006
C  C33  1  0.35893167  0.79901737  0.11362910  1  0.089741  -0.012535  3.598453  -0.009  0.05832  -0.002751  3.844786  -0.002  0.066432  -0.004761  3.862232  -0.003  0.057567  0.053781  -0.00108  3.833077  0.0
C  C34  1  0.64107025  0.20098736  0.88637666  1  0.089685  -0.01254  3.598483  -0.009  0.058248  -0.002746  3.844849  -0.002  0.066356  -0.00477  3.862285  -0.003  0.057483  0.053709  -0.00108  3.833145  0.0
C  C35  1  0.66959892  0.01623586  0.20451666  1  -0.080812  -0.00297  3.855891  -0.002  -0.083004  -0.000386  4.10815  0.0  -0.085912  -0.0008  4.140197  -0.001  -0.032066  -0.080633  0.000156  4.086989  0.0
C  C36  1  0.33040207  0.98376513  0.79548714  1  -0.080866  -0.002978  3.855713  -0.002  -0.083041  -0.000398  4.10797  0.0  -0.085949  -0.000788  4.140016  -0.001  -0.032034  -0.080659  0.000156  4.086807  0.0
C  C37  1  0.82266082  0.05287874  0.24302323  1  -0.091474  0.006158  3.852227  0.006  -0.091649  0.001693  4.105414  0.002  -0.0963  0.001538  4.135926  0.002  -0.032401  -0.088625  0.001941  4.085097  0.002
C  C38  1  0.17733849  0.94712336  0.75697644  1  -0.091434  0.006167  3.852267  0.006  -0.091615  0.0017  4.105471  0.002  -0.096266  0.001533  4.135985  0.002  -0.03241  -0.0886  0.001941  4.085157  0.002
C  C39  1  0.00041062  0.09824093  0.28966167  1  0.114726  0.001021  3.902684  0.001  0.129106  0.000201  4.130663  0.0  0.132484  7.6e-05  4.15169  0.0  -0.000324  0.12655  0.000382  4.116882  0.0
C  C40  1  0.99959364  0.90175988  0.71033641  1  0.114742  0.001028  3.902609  0.001  0.129106  0.000208  4.130621  0.0  0.132482  7.9e-05  4.15165  0.0  -0.000308  0.126552  0.000382  4.116833  0.0
C  C41  1  0.04377372  0.00245590  0.33764368  1  -0.095897  -0.000402  3.697252  0.0  -0.113768  3.9e-05  3.939484  0.0  -0.11688  4.2e-05  3.960001  0.0  -0.07785  -0.111235  2e-05  3.925364  0.0
C  C42  1  0.95622121  0.99754237  0.66235112  1  -0.095939  -0.000409  3.697135  0.0  -0.113828  3.8e-05  3.939393  0.0  -0.116943  3.7e-05  3.959914  0.0  -0.077892  -0.111286  2e-05  3.92525  0.0
C  C43  1  0.21902287  0.05344114  0.39083378  1  -0.093448  0.001374  3.701862  0.001  -0.112415  0.000235  3.942556  0.0  -0.114378  0.000171  3.96258  0.0  -0.078801  -0.111137  0.000379  3.928678  0.0
C  C44  1  0.78098001  0.94655716  0.60916263  1  -0.093361  0.001374  3.701795  0.001  -0.112353  0.000227  3.942506  0.0  -0.11432  0.00018  3.962534  0.0  -0.078799  -0.111063  0.000378  3.928639  0.0
C  C45  1  0.35683468  0.20078663  0.39678217  1  0.106977  -0.000826  3.896702  -0.001  0.124691  -6.1e-05  4.120708  0.0  0.126864  -2.9e-05  4.142654  0.0  0.000861  0.123628  -2.9e-05  4.105789  0.0
C  C46  1  0.64316340  0.79921534  0.60321308  1  0.106932  -0.000833  3.896615  -0.001  0.124625  -3.7e-05  4.120666  0.0  0.1268  -4.7e-05  4.142613  0.0  0.000817  0.123563  -2.9e-05  4.105741  0.0
C  C47  1  0.31376228  0.29490357  0.34670118  1  -0.095535  0.001513  3.707496  0.001  -0.116745  0.000292  3.955067  0.0  -0.119562  0.000206  3.976406  0.0  -0.078891  -0.114505  0.00039  3.940602  0.0
C  C48  1  0.68624154  0.70509851  0.65329806  1  -0.095462  0.00152  3.707638  0.001  -0.116645  0.000284  3.95519  0.0  -0.119462  0.000215  3.97653  0.0  -0.078843  -0.114398  0.00039  3.940714  0.0
C  C49  1  0.13846821  0.24407252  0.29401600  1  -0.109662  -0.000247  3.719084  0.0  -0.127163  0.000126  3.965639  0.0  -0.130645  0.000129  3.987072  0.0  -0.083463  -0.125006  7.5e-05  3.950807  0.0
C  C50  1  0.86152739  0.75592699  0.70597920  1  -0.109708  -0.000237  3.719248  0.0  -0.127185  0.000124  3.96581  0.0  -0.130668  0.000124  3.987247  0.0  -0.083475  -0.125031  7.5e-05  3.950976  0.0
C  C51  1  0.53466744  0.25364500  0.45543580  1  -0.066572  0.008543  3.837413  0.008  -0.066291  0.002017  4.085615  0.002  -0.070134  0.00184  4.1182  0.002  -0.025071  -0.064144  0.00219  4.063994  0.002
C  C52  1  0.46533294  0.74635702  0.54456138  1  -0.066513  0.008573  3.837395  0.008  -0.066221  0.002027  4.085607  0.002  -0.070066  0.001832  4.118192  0.002  -0.025059  -0.064077  0.00219  4.063992  0.002
C  C53  1  0.68587867  0.29804747  0.51097784  1  -0.11077  -0.00577  3.844734  -0.004  -0.109341  -0.000846  4.095851  -0.001  -0.114376  -0.001208  4.129533  -0.001  -0.04057  -0.105389  -0.000403  4.073147  0.0
C  C54  1  0.31412430  0.70195716  0.48902457  1  -0.110833  -0.005808  3.84469  -0.004  -0.1094  -0.000861  4.095834  -0.001  -0.114436  -0.001196  4.129516  -0.001  -0.040586  -0.10544  -0.000403  4.073136  0.0
C  C55  1  0.85962277  0.39474567  0.72745017  1  0.072413  -0.01371  3.63874  -0.009  0.040565  -0.00332  3.888417  -0.002  0.049062  -0.005264  3.904431  -0.004  0.051644  0.035566  -0.001815  3.877698  -0.001
C  C56  1  0.14037679  0.60525894  0.27255106  1  0.072251  -0.01374  3.638767  -0.009  0.040545  -0.00332  3.888412  -0.002  0.049046  -0.005268  3.904424  -0.004  0.051615  0.035551  -0.001815  3.877689  -0.001
C  C57  1  0.85009602  0.35449216  0.59842428  1  0.074673  0.010418  3.892705  0.012  0.093515  0.004074  4.119109  0.005  0.091899  0.003722  4.139344  0.005  0.005513  0.09431  0.004293  4.10469  0.005
C  C58  1  0.14990514  0.64551124  0.40157762  1  0.074739  0.010433  3.892583  0.012  0.093527  0.004074  4.119031  0.005  0.091911  0.003725  4.139268  0.005  0.005565  0.094311  0.004293  4.104626  0.005
C  C59  1  0.00280628  0.37321873  0.56667908  1  -0.051506  -0.01484  3.671261  -0.01  -0.076915  -0.005174  3.911971  -0.003  -0.072468  -0.005847  3.928117  -0.003  -0.061065  -0.079722  -0.004543  3.901444  -0.003
C  C60  1  0.99718967  0.62677721  0.43332030  1  -0.051505  -0.014864  3.671293  -0.01  -0.076919  -0.005175  3.912034  -0.003  -0.072475  -0.005849  3.928183  -0.003  -0.061049  -0.079718  -0.004543  3.901493  -0.003
C  C61  1  0.15399220  0.42686822  0.66266405  1  -0.104906  0.011468  3.723075  0.012  -0.115773  0.004426  3.974876  0.005  -0.123293  0.004076  3.99469  0.005  -0.07593  -0.111477  0.004634  3.962155  0.005
C  C62  1  0.84600464  0.57312521  0.33733388  1  -0.104955  0.01149  3.723089  0.012  -0.115814  0.004426  3.974897  0.005  -0.12333  0.004076  3.994712  0.005  -0.075973  -0.111518  0.004634  3.962183  0.005
C  C63  1  0.15239883  0.46249924  0.78803168  1  0.126174  -0.011816  3.643031  -0.008  0.095331  -0.00232  3.902249  -0.001  0.105495  -0.004265  3.918282  -0.003  0.050424  0.088761  -0.000804  3.892227  0.0
C  C64  1  0.84759894  0.53749794  0.21196821  1  0.126134  -0.011849  3.643088  -0.008  0.095344  -0.002322  3.902318  -0.001  0.105507  -0.004265  3.91835  -0.003  0.050415  0.088759  -0.000803  3.892317  0.0
N  N65  1  0.18790504  0.74181284  0.05896389  1  -0.286307  0.08906  3.351569  0.112  -0.235716  0.060802  3.644074  0.082  -0.266281  0.050821  3.669435  0.073  -0.342863  -0.217168  0.06643  3.628089  0.086
N  N66  1  0.81209542  0.25818928  0.94103675  1  -0.28626  0.089067  3.351546  0.112  -0.235628  0.060804  3.644027  0.082  -0.266179  0.050825  3.669373  0.073  -0.342807  -0.21708  0.066434  3.628041  0.086
N  N67  1  0.00669960  0.44738400  0.81869502  1  -0.278803  0.088351  3.35418  0.111  -0.229304  0.059998  3.64721  0.081  -0.259672  0.050197  3.671589  0.072  -0.342353  -0.211451  0.065123  3.632308  0.084
N  N68  1  0.99329905  0.55261689  0.18130511  1  -0.278772  0.088366  3.354232  0.111  -0.229288  0.059997  3.647199  0.081  -0.259656  0.050198  3.671578  0.072  -0.342333  -0.211425  0.065122  3.63229  0.084
N  N69  1  0.38448104  0.44702373  0.10435001  1  0.69776  -0.000314  4.148376  0.0  0.744082  -0.000178  4.427267  0.0  0.772969  -0.000139  4.431013  0.0  0.091797  0.72484  -0.00018  4.42391  0.0
N  N70  1  0.61551930  0.55297604  0.89565425  1  0.697614  -0.000305  4.148531  0.0  0.743945  -0.000177  4.427411  0.0  0.772831  -0.000139  4.431157  0.0  0.091669  0.72469  -0.00018  4.424074  0.0
O  O71  1  0.24017075  0.42243350  0.03838214  1  -0.533029  -0.001269  1.802196  0.0  -0.534343  -0.001442  2.044172  0.0  -0.550827  -0.001633  2.03184  0.0  -0.221683  -0.522623  -0.001034  2.052376  0.0
O  O72  1  0.75982866  0.57756873  0.96162184  1  -0.53295  -0.001271  1.8022  0.0  -0.534272  -0.001444  2.044179  0.0  -0.550754  -0.001635  2.03185  0.0  -0.221651  -0.522554  -0.001034  2.052396  0.0
O  O73  1  0.46990343  0.56865900  0.21487499  1  -0.477205  0.001175  1.709201  0.001  -0.468558  0.000672  1.905643  0.001  -0.481474  0.000431  1.898787  0.001  -0.202502  -0.459143  0.000673  1.909981  0.001
O  O74  1  0.53009740  0.43133957  0.78513070  1  -0.477105  0.001169  1.709188  0.001  -0.468478  0.000671  1.90561  0.001  -0.481398  0.000438  1.898771  0.001  -0.202455  -0.459057  0.000673  1.909951  0.001
O  O75  1  0.43819785  0.34952459  0.05863543  1  -0.458637  0.000446  1.764697  0.001  -0.452771  0.000163  1.9741  0.0  -0.466046  1.7e-05  1.968386  0.0  -0.188665  -0.443483  0.000375  1.977888  0.0
O  O76  1  0.56179996  0.65047264  0.94136618  1  -0.458641  0.00045  1.764778  0.001  -0.452771  0.000166  1.974174  0.0  -0.466045  1e-05  1.968459  0.0  -0.188633  -0.443469  0.000376  1.977957  0.0
