# generated using pymatgen
data_CoH18C22(NO)4
_symmetry_space_group_name_H-M   'P 1'
_cell_length_a   11.76832239
_cell_length_b   11.76155089
_cell_length_c   13.63085698
_cell_angle_alpha   110.95523609
_cell_angle_beta   90.00020701
_cell_angle_gamma   120.01833599
_symmetry_Int_Tables_number   1
_chemical_formula_structural   CoH18C22(NO)4
_chemical_formula_sum   'Co2 H36 C44 N8 O8'
_cell_volume   1487.76158731
_cell_formula_units_Z   2
loop_
 _symmetry_equiv_pos_site_id
 _symmetry_equiv_pos_as_xyz
  1  'x, y, z'
loop_
 _atom_site_type_symbol
 _atom_site_label
 _atom_site_symmetry_multiplicity
 _atom_site_fract_x
 _atom_site_fract_y
 _atom_site_fract_z
 _atom_site_occupancy
 _atom_site_pbe_bader_charge
 _atom_site_pbe_bader_spin_density
 _atom_site_pbe_cm5_charge
 _atom_site_pbe_ddec_charge
 _atom_site_pbe_ddec_spin_density
 _atom_site_pbe_ddec_sum_bond_order
 _atom_site_pbe_magmom
Co  Co0  1  0.97922011  0.99998890  0.74999488  1  1.199102  -2.562113  0.67616  0.814961  -2.778635  2.559392  -2.501
Co  Co1  1  0.02077881  0.00000439  0.25000225  1  1.199165  -2.562094  0.676124  0.814886  -2.778588  2.559343  -2.501
H  H2  1  0.54405207  0.71426785  0.66112958  1  0.07311  -0.000608  0.10223  0.106018  -0.000227  1.010252  0.0
H  H3  1  0.82977907  0.28572653  0.83887239  1  0.076758  -0.000602  0.102178  0.105923  -0.000227  1.010265  0.0
H  H4  1  0.45596121  0.28575246  0.33887091  1  0.073274  -0.00061  0.102191  0.10591  -0.000228  1.010211  0.0
H  H5  1  0.17020775  0.71425277  0.16111888  1  0.076929  -0.000604  0.102198  0.105898  -0.000228  1.010335  0.0
H  H6  1  0.30712245  0.52236389  0.55306836  1  0.103981  -5.2e-05  0.104823  0.111388  2.4e-05  0.99353  0.0
H  H7  1  0.78475107  0.47762738  0.94693143  1  0.105861  -5.2e-05  0.10482  0.111378  2.4e-05  0.993475  0.0
H  H8  1  0.69289060  0.47765426  0.44693218  1  0.103915  -5.2e-05  0.104832  0.111391  2.4e-05  0.993358  0.0
H  H9  1  0.21524188  0.52235736  0.05305715  1  0.107162  -5.1e-05  0.104855  0.111398  2.4e-05  0.993491  0.0
H  H10  1  0.20728195  0.17304558  0.96746226  1  0.183538  -0.000539  0.136994  0.115224  -5e-05  1.017882  0.0
H  H11  1  0.03423387  0.82693321  0.53252195  1  0.230623  -0.000518  0.136984  0.11519  -5e-05  1.017969  0.0
H  H12  1  0.79271357  0.82693921  0.03252266  1  0.1834  -0.00054  0.136977  0.115159  -5e-05  1.017864  0.0
H  H13  1  0.96577457  0.17306214  0.46748390  1  0.230263  -0.00052  0.137015  0.115183  -5.1e-05  1.017896  0.0
H  H14  1  0.93423394  0.72820778  0.78407604  1  0.130423  -0.000905  0.119799  0.124221  -0.000202  1.01085  -0.001
H  H15  1  0.20601221  0.27176390  0.71593088  1  0.122485  -0.000909  0.119862  0.124236  -0.000202  1.010996  -0.001
H  H16  1  0.06574819  0.27177573  0.21592462  1  0.130017  -0.000906  0.119824  0.124147  -0.000202  1.010967  -0.001
H  H17  1  0.79397567  0.72822938  0.28406698  1  0.122466  -0.000909  0.119856  0.12423  -0.000202  1.010919  -0.001
H  H18  1  0.09883691  0.76429595  0.95450070  1  0.125361  -0.000772  0.120407  0.12051  -0.000259  1.036142  0.0
H  H19  1  0.33453544  0.23569976  0.54551042  1  0.141713  -0.000757  0.120344  0.120342  -0.000259  1.036128  0.0
H  H20  1  0.90114942  0.23569936  0.04550881  1  0.125351  -0.000772  0.120386  0.120467  -0.000259  1.036192  0.0
H  H21  1  0.66544943  0.76430112  0.45448616  1  0.141683  -0.000757  0.120365  0.120378  -0.000259  1.036208  0.0
H  H22  1  0.25530453  0.01193443  0.13933323  1  0.111723  -0.000511  0.116928  0.114895  -7.3e-05  1.000341  0.0
H  H23  1  0.24338050  0.98807386  0.36067565  1  0.112836  -0.000508  0.116921  0.114913  -7.3e-05  1.000378  0.0
H  H24  1  0.74469347  0.98806211  0.86066419  1  0.111748  -0.000511  0.116953  0.114961  -7.3e-05  1.000203  0.0
H  H25  1  0.75663378  0.01193656  0.63933713  1  0.112784  -0.000508  0.116913  0.114849  -7.3e-05  1.000243  0.0
H  H26  1  0.33298611  0.17202536  0.11750471  1  0.059678  -9.2e-05  0.12031  0.108621  3.5e-05  0.958786  0.0
H  H27  1  0.16097816  0.82798201  0.38249067  1  0.078394  -9e-05  0.120339  0.108692  3.5e-05  0.958841  0.0
H  H28  1  0.66700808  0.82797546  0.88249625  1  0.059718  -9.1e-05  0.120324  0.108647  3.5e-05  0.95878  0.0
H  H29  1  0.83903141  0.17202749  0.61750862  1  0.078308  -8.9e-05  0.120314  0.108665  3.5e-05  0.958709  0.0
H  H30  1  0.32652374  0.83915987  0.07167316  1  0.075057  -3.3e-05  0.098208  0.097339  7e-06  1.034664  0.0
H  H31  1  0.48737311  0.16085256  0.42834194  1  0.065584  -3.3e-05  0.09818  0.097358  7e-06  1.03465  0.0
H  H32  1  0.67347202  0.16084410  0.92833686  1  0.075263  -3.3e-05  0.098207  0.097348  7e-06  1.034579  0.0
H  H33  1  0.51263495  0.83915902  0.57166461  1  0.065419  -3.3e-05  0.098184  0.097295  7e-06  1.034653  0.0
H  H34  1  0.49585201  0.78609057  0.99914490  1  0.056362  -1.3e-05  0.105345  0.106965  8e-06  0.98804  0.0
H  H35  1  0.70976941  0.21391464  0.50086166  1  0.069409  -1.3e-05  0.105372  0.107007  8e-06  0.98789  0.0
H  H36  1  0.50414408  0.21391236  0.00086040  1  0.056692  -1.3e-05  0.105365  0.10698  8e-06  0.987914  0.0
H  H37  1  0.29023397  0.78608079  0.49913834  1  0.06961  -1.3e-05  0.105335  0.106944  8e-06  0.987916  0.0
C  C38  1  0.77386701  0.72291789  0.61978231  1  1.550356  -3.5e-05  0.1953  0.546149  0.00015  4.253444  0.001
C  C39  1  0.05094681  0.27708110  0.88021361  1  1.554993  -1.1e-05  0.195288  0.546073  0.000153  4.253365  0.001
C  C40  1  0.22614696  0.27709699  0.38021941  1  1.550156  -3.4e-05  0.195404  0.546082  0.000151  4.253256  0.001
C  C41  1  0.94904881  0.72290899  0.11978032  1  1.554921  -1.1e-05  0.195345  0.546086  0.000151  4.253374  0.001
C  C42  1  0.63174847  0.60669422  0.55990282  1  -0.034781  -0.003039  -0.019351  -0.029772  -0.001499  3.986056  -0.002
C  C43  1  0.02505593  0.39330493  0.94008553  1  -0.040557  -0.003041  -0.019283  -0.029733  -0.001499  3.986074  -0.002
C  C44  1  0.36826782  0.39331002  0.44008455  1  -0.034476  -0.003042  -0.01936  -0.029928  -0.001501  3.986074  -0.002
C  C45  1  0.97495195  0.60669268  0.05991296  1  -0.040624  -0.003041  -0.019346  -0.029826  -0.0015  3.986134  -0.002
C  C46  1  0.52347678  0.61990166  0.59024976  1  -0.013532  -0.001128  -0.090301  -0.112117  -0.000526  3.998896  -0.001
C  C47  1  0.90358053  0.38010677  0.90975231  1  -0.032518  -0.001133  -0.090292  -0.111989  -0.000525  3.998892  -0.001
C  C48  1  0.47654590  0.38012726  0.40975490  1  -0.01357  -0.001126  -0.090194  -0.111704  -0.000525  3.999686  -0.001
C  C49  1  0.09641726  0.61987576  0.09023998  1  -0.032186  -0.001133  -0.090299  -0.1119  -0.000525  3.999428  -0.001
C  C50  1  0.39264892  0.51424254  0.53070224  1  -0.100958  -0.000625  -0.085146  -0.09789  -6.6e-05  3.977917  -0.001
C  C51  1  0.87840512  0.48575623  0.96929727  1  -0.085217  -0.000621  -0.085153  -0.097955  -6.6e-05  3.978052  -0.001
C  C52  1  0.60733945  0.48575514  0.46928968  1  -0.100595  -0.000626  -0.08529  -0.09816  -6.7e-05  3.978969  -0.001
C  C53  1  0.12158555  0.51423924  0.03069834  1  -0.086289  -0.000621  -0.085217  -0.098026  -6.6e-05  3.978661  -0.001
C  C54  1  0.15485017  0.05710775  0.94122495  1  0.981561  -0.005294  0.145544  0.093323  -0.0034  3.89893  -0.004
C  C55  1  0.09774197  0.94287947  0.55877733  1  0.929139  -0.005346  0.145567  0.09325  -0.0034  3.899182  -0.004
C  C56  1  0.84515119  0.94288872  0.05877831  1  0.981795  -0.005295  0.145578  0.093343  -0.003401  3.898985  -0.004
C  C57  1  0.90226784  0.05712029  0.44122183  1  0.929709  -0.005342  0.145612  0.093467  -0.0034  3.899192  -0.004
C  C58  1  0.01444592  0.82536992  0.84881027  1  0.400956  -0.003196  -0.002958  -0.034205  -0.001813  4.000462  -0.003
C  C59  1  0.18906192  0.17461732  0.65119194  1  0.41676  -0.003184  -0.003014  -0.034276  -0.001814  4.000529  -0.003
C  C60  1  0.98554904  0.17462225  0.15119091  1  0.401589  -0.003195  -0.002928  -0.034039  -0.001813  4.000971  -0.003
C  C61  1  0.81093088  0.82538242  0.34880869  1  0.416768  -0.003185  -0.003034  -0.034281  -0.001815  4.0004  -0.003
C  C62  1  0.09548299  0.84191098  0.93166861  1  0.306991  -0.003987  -9.3e-05  -0.101209  -0.001957  3.924057  -0.003
C  C63  1  0.25356086  0.15808046  0.56833957  1  0.288032  -0.004009  -9.9e-05  -0.101062  -0.001957  3.923732  -0.003
C  C64  1  0.90451640  0.15809513  0.06834209  1  0.306481  -0.003989  -0.000183  -0.101257  -0.001958  3.923942  -0.003
C  C65  1  0.74643078  0.84192037  0.43166140  1  0.287786  -0.004009  -4.4e-05  -0.100987  -0.001957  3.923835  -0.003
C  C66  1  0.29539643  0.05650338  0.08011742  1  0.283109  -0.000969  -0.043911  -0.120863  -0.000702  3.890081  -0.001
C  C67  1  0.23890400  0.94349530  0.41987970  1  0.266971  -0.00097  -0.043973  -0.121088  -0.000702  3.890258  -0.001
C  C68  1  0.70458573  0.94349207  0.91988039  1  0.282729  -0.000969  -0.04398  -0.121066  -0.000701  3.890081  -0.001
C  C69  1  0.76109904  0.05650453  0.58011435  1  0.267075  -0.000968  -0.043984  -0.121022  -0.000701  3.890155  -0.001
C  C70  1  0.40405654  0.03028642  0.04178572  1  -0.022951  -0.00044  -0.015104  0.083764  -0.000221  3.992749  0.0
C  C71  1  0.37377959  0.96972190  0.45821190  1  -0.01455  -0.00044  -0.015197  0.083829  -0.000221  3.992666  0.0
C  C72  1  0.59594337  0.96972414  0.95821538  1  -0.023083  -0.000439  -0.01514  0.083977  -0.000221  3.992905  0.0
C  C73  1  0.62621768  0.03026808  0.54179080  1  -0.016027  -0.00044  -0.015192  0.08376  -0.000221  3.992778  0.0
C  C74  1  0.40306629  0.91025859  0.04063255  1  -0.02881  -0.000252  -0.09001  -0.127159  -0.000132  3.991149  0.0
C  C75  1  0.49281123  0.08974109  0.45936034  1  -0.017292  -0.000252  -0.089953  -0.127174  -0.000132  3.990931  0.0
C  C76  1  0.59692125  0.08973574  0.95936858  1  -0.028821  -0.000252  -0.090077  -0.127277  -0.000132  3.991535  0.0
C  C77  1  0.50719135  0.91025444  0.54063162  1  -0.017282  -0.000252  -0.089962  -0.127019  -0.000132  3.991305  0.0
C  C78  1  0.49791068  0.88002884  0.99918868  1  -0.051615  -0.000221  -0.090071  -0.127939  -8.8e-05  3.991541  0.0
C  C79  1  0.61787783  0.11997420  0.50082072  1  -0.075265  -0.000221  -0.090083  -0.127929  -8.8e-05  3.991229  0.0
C  C80  1  0.50210256  0.11997949  0.00081831  1  -0.052136  -0.00022  -0.090098  -0.127846  -8.8e-05  3.991826  0.0
C  C81  1  0.38213185  0.88002871  0.49918677  1  -0.076873  -0.000221  -0.090039  -0.127886  -8.8e-05  3.99158  0.0
N  N82  1  0.05258700  0.96049912  0.85544947  1  -1.236949  -0.068348  -0.369013  -0.314614  -0.035437  3.684664  -0.041
N  N83  1  0.09208496  0.03948820  0.64454827  1  -1.238113  -0.06837  -0.368966  -0.314463  -0.035435  3.684758  -0.041
N  N84  1  0.94741423  0.03950390  0.14454925  1  -1.237066  -0.068354  -0.369015  -0.31463  -0.03544  3.685002  -0.041
N  N85  1  0.90791871  0.96051799  0.35545658  1  -1.238459  -0.068372  -0.369031  -0.314577  -0.035438  3.684823  -0.041
N  N86  1  0.18300856  0.98873646  0.98941875  1  -1.231636  -0.006215  -0.238588  0.051552  -0.00278  3.76757  -0.004
N  N87  1  0.19427301  0.01125508  0.51058069  1  -1.233034  -0.006222  -0.23855  0.051682  -0.002781  3.767124  -0.004
N  N88  1  0.81698526  0.01125683  0.01057911  1  -1.231157  -0.006217  -0.238482  0.051687  -0.002781  3.767079  -0.004
N  N89  1  0.80573429  0.98875327  0.48942411  1  -1.232634  -0.006223  -0.238537  0.051554  -0.002782  3.767188  -0.004
O  O90  1  0.79055534  0.84517937  0.68512276  1  -1.149796  -0.100586  -0.334841  -0.56521  -0.051205  2.369927  -0.078
O  O91  1  0.94537835  0.15481492  0.81487537  1  -1.154473  -0.100529  -0.334872  -0.565207  -0.051203  2.369878  -0.078
O  O92  1  0.20944489  0.15483014  0.31487580  1  -1.14966  -0.100592  -0.334866  -0.565171  -0.051207  2.369857  -0.078
O  O93  1  0.05461842  0.84517407  0.18511968  1  -1.154567  -0.10053  -0.334846  -0.565177  -0.051205  2.369823  -0.078
O  O94  1  0.86754404  0.70142790  0.60437318  1  -1.171227  -0.021094  -0.324523  -0.556518  -0.010281  2.118557  -0.017
O  O95  1  0.16611250  0.29856233  0.89562473  1  -1.166763  -0.021103  -0.324528  -0.556508  -0.010278  2.118373  -0.017
O  O96  1  0.13246513  0.29858590  0.39562893  1  -1.171089  -0.021091  -0.32453  -0.556408  -0.01028  2.118301  -0.017
O  O97  1  0.83388139  0.70142770  0.10437432  1  -1.16641  -0.021107  -0.324508  -0.556426  -0.010279  2.118373  -0.017
