# generated using pymatgen
data_NiH39C24NO4
_symmetry_space_group_name_H-M   'P 1'
_cell_length_a   9.25680728
_cell_length_b   12.70625520
_cell_length_c   13.01463593
_cell_angle_alpha   109.22387618
_cell_angle_beta   94.05200163
_cell_angle_gamma   99.75908423
_symmetry_Int_Tables_number   1
_chemical_formula_structural   NiH39C24NO4
_chemical_formula_sum   'Ni2 H78 C48 N2 O8'
_cell_volume   1411.28227617
_cell_formula_units_Z   2
loop_
 _symmetry_equiv_pos_site_id
 _symmetry_equiv_pos_as_xyz
  1  'x, y, z'
loop_
 _atom_site_type_symbol
 _atom_site_label
 _atom_site_symmetry_multiplicity
 _atom_site_fract_x
 _atom_site_fract_y
 _atom_site_fract_z
 _atom_site_occupancy
 _atom_site_pbe_bader_charge
 _atom_site_pbe_bader_spin_density
 _atom_site_pbe_cm5_charge
 _atom_site_pbe_ddec_charge
 _atom_site_pbe_ddec_spin_density
 _atom_site_pbe_ddec_sum_bond_order
 _atom_site_pbe_magmom
Ni  Ni0  1  0.15392469  0.26656585  0.46746041  1  1.024127  1.112394  0.565781  0.60644  1.23192  2.707067  1.104
Ni  Ni1  1  0.89615690  0.25901239  0.46914151  1  1.03079  0.516849  0.590177  0.636047  0.579186  2.873429  0.514
H  H2  1  0.21743664  0.29081492  0.15427928  1  0.095271  0.00021  0.107636  0.112444  0.000138  1.014031  0.0
H  H3  1  0.33182135  0.29782027  0.98812331  1  0.051033  0.000109  0.103079  0.10329  3.8e-05  1.005082  0.0
H  H4  1  0.74755337  0.25693055  0.15030023  1  0.092168  7.8e-05  0.104307  0.102487  5.4e-05  1.033207  0.0
H  H5  1  0.83369763  0.26638879  0.79328189  1  0.081788  0.000143  0.106965  0.108134  8.3e-05  1.012498  0.0
H  H6  1  0.71993367  0.26152547  0.95990120  1  0.054062  6.5e-05  0.102345  0.100452  1.8e-05  1.003444  0.0
H  H7  1  0.30159468  0.28789780  0.79289161  1  0.087743  0.000145  0.103724  0.103613  0.000112  1.019742  0.0
H  H8  1  0.86248081  0.60876292  0.55264665  1  0.075507  0.000123  0.10706  0.108333  5.1e-05  1.009226  0.0
H  H9  1  0.74817556  0.77104353  0.55033038  1  0.068617  0.000183  0.102489  0.094764  7.3e-05  1.030134  0.0
H  H10  1  0.29507837  0.59196268  0.45630289  1  0.093121  9.6e-05  0.10571  0.108364  6.6e-05  1.025412  0.0
H  H11  1  0.17503250  0.91880468  0.38834431  1  0.077212  0.000248  0.106166  0.107233  0.000152  1.025314  0.0
H  H12  1  0.29981853  0.76497711  0.40490097  1  0.075429  -5.2e-05  0.103712  0.098986  -6e-05  1.025897  0.0
H  H13  1  0.75282844  0.94477779  0.50081646  1  0.095531  0.000106  0.105757  0.105514  5.8e-05  1.026253  0.0
H  H14  1  0.42575322  0.37014172  0.63473995  1  0.081517  0.000199  0.11009  0.096177  7e-06  0.995955  0.0
H  H15  1  0.44775869  0.43997256  0.53805134  1  0.063154  0.000139  0.109523  0.09419  -1.2e-05  0.998456  0.0
H  H16  1  0.33911412  0.08610722  0.43057154  1  0.09018  0.000215  0.107477  0.093495  1.1e-05  1.018272  0.0
H  H17  1  0.37730251  0.16586508  0.57283980  1  0.072801  0.00015  0.110606  0.101146  1.1e-05  0.975143  0.0
H  H18  1  0.39646641  0.33193160  0.34484445  1  0.048079  0.000328  0.109093  0.094455  6.5e-05  1.000501  0.0
H  H19  1  0.36324570  0.18166414  0.30061633  1  0.057021  0.000107  0.110359  0.095684  -4.1e-05  0.992865  0.0
H  H20  1  0.70311742  0.43575776  0.55632706  1  0.06856  0.000222  0.106604  0.08989  0.000115  1.011391  0.0
H  H21  1  0.67693890  0.35186663  0.64103481  1  0.067952  -2.3e-05  0.108984  0.093159  -6.8e-05  0.988939  0.0
H  H22  1  0.62948806  0.15091904  0.56459390  1  0.0597  8.1e-05  0.109613  0.094948  -7e-06  0.976607  0.0
H  H23  1  0.59216144  0.08222359  0.42036121  1  0.077612  0.000146  0.108004  0.091951  7.4e-05  1.005774  0.0
H  H24  1  0.62068846  0.19330742  0.30127789  1  0.069745  -9e-06  0.107909  0.090264  -9.2e-05  1.012956  0.0
H  H25  1  0.65523680  0.34332357  0.35975040  1  0.061614  6.9e-05  0.110501  0.097472  -5e-06  0.981799  0.0
H  H26  1  0.84780790  0.60494395  0.09565820  1  0.001134  1e-06  0.080417  0.098648  0.0  1.024168  0.0
H  H27  1  0.94481285  0.71243593  0.05282384  1  0.031382  2e-06  0.083376  0.106975  -0.0  1.016605  0.0
H  H28  1  0.92761155  0.74085926  0.19380357  1  0.020839  9e-06  0.078128  0.098238  0.0  1.030165  0.0
H  H29  1  0.18457034  0.70501019  0.15526802  1  0.015447  -0.0  0.078877  0.099507  -2e-06  1.029984  0.0
H  H30  1  0.10375860  0.56822243  0.05905486  1  0.003261  2e-06  0.08102  0.104225  1e-06  1.019637  0.0
H  H31  1  0.08793455  0.59917738  0.20050597  1  0.020312  5e-06  0.078351  0.101965  1e-06  1.020695  0.0
H  H32  1  0.20470230  0.07672288  0.01451887  1  0.005899  3e-06  0.083152  0.106858  -3e-06  1.036609  0.0
H  H33  1  0.26212462  0.06543882  0.14221199  1  0.006127  5e-06  0.083469  0.107802  1e-06  1.021527  0.0
H  H34  1  0.27968440  0.95873183  0.01844262  1  0.021892  3e-06  0.08555  0.108187  1e-06  1.012261  0.0
H  H35  1  0.53061288  0.08765088  0.09902249  1  0.010648  -1e-05  0.083201  0.103948  -1.3e-05  1.027971  0.0
H  H36  1  0.45645307  0.20804031  0.10137990  1  -0.0362  8e-06  0.078634  0.096037  1e-06  1.017129  0.0
H  H37  1  0.46868488  0.10350134  0.97422110  1  0.035889  4e-06  0.082676  0.102229  3e-06  1.019044  0.0
H  H38  1  0.12270322  0.62895507  0.76094861  1  0.016746  4e-05  0.079916  0.102614  2e-05  1.021589  0.0
H  H39  1  0.15071804  0.53254645  0.82880095  1  -0.00286  -1.2e-05  0.081125  0.104364  -1.9e-05  1.022243  0.0
H  H40  1  0.12836511  0.67129113  0.90563128  1  -0.00186  -1e-05  0.081496  0.101039  -9e-06  1.013313  0.0
H  H41  1  0.89064441  0.52521616  0.88018932  1  0.009053  1.3e-05  0.080209  0.101616  5e-06  1.026101  0.0
H  H42  1  0.88709370  0.48346022  0.73599654  1  0.043289  8e-06  0.079852  0.109033  -1.1e-05  1.049192  0.0
H  H43  1  0.86130676  0.62178457  0.81280770  1  -0.006166  -3e-06  0.077338  0.093047  -5e-06  1.035044  0.0
H  H44  1  0.15822475  0.86930461  0.68544656  1  0.034017  9e-06  0.077459  0.09665  1e-06  1.05062  0.0
H  H45  1  0.22943998  0.87044932  0.81589802  1  0.007089  -1e-06  0.08151  0.098848  -1e-06  1.018978  0.0
H  H46  1  0.21331428  0.00014404  0.79669937  1  0.00261  1e-06  0.080174  0.102709  -0.0  1.010914  0.0
H  H47  1  0.00331881  0.93798917  0.89396957  1  0.045011  -0.0  0.082596  0.105523  -1e-06  1.027763  0.0
H  H48  1  0.94967710  0.80727986  0.78251048  1  0.044821  3e-06  0.079356  0.099005  1e-06  1.026489  0.0
H  H49  1  0.93307633  0.93670302  0.76317539  1  0.024191  3e-06  0.079556  0.101824  1e-06  1.027457  0.0
H  H50  1  0.39542552  0.57127058  0.72777081  1  0.031842  6.9e-05  0.084133  0.111068  6.1e-05  1.026585  0.0
H  H51  1  0.59047896  0.61859836  0.74574558  1  0.005849  3e-06  0.078362  0.096563  -1e-06  1.015407  0.0
H  H52  1  0.48185529  0.70008292  0.83395499  1  0.031208  -1e-06  0.084498  0.107673  -2e-06  1.011435  0.0
H  H53  1  0.61002142  0.58970172  0.93026727  1  0.031916  7e-06  0.082214  0.100622  3e-06  1.029283  0.0
H  H54  1  0.52571761  0.46049567  0.82427782  1  0.003377  7e-06  0.07703  0.094412  1e-06  1.021413  0.0
H  H55  1  0.41512770  0.54095718  0.91152273  1  0.023601  -2e-06  0.080984  0.101535  -5e-06  1.01971  0.0
H  H56  1  0.44182828  0.51599962  0.31827916  1  0.020999  1.2e-05  0.082836  0.105422  2e-06  1.011721  0.0
H  H57  1  0.54674498  0.65535906  0.38858914  1  0.019856  4e-06  0.082661  0.103229  -2e-06  1.027736  0.0
H  H58  1  0.59249550  0.53907620  0.42082779  1  -0.00461  4.3e-05  0.079539  0.098253  2.5e-05  1.027154  0.0
H  H59  1  0.77126887  0.59853923  0.30088114  1  0.033336  1.3e-05  0.0832  0.110679  3e-06  1.023355  0.0
H  H60  1  0.62115722  0.57614061  0.19869029  1  0.018109  1e-06  0.082864  0.10328  -0.0  1.014062  0.0
H  H61  1  0.66775908  0.45915986  0.22980654  1  0.006091  -3e-06  0.077705  0.097028  -9e-06  1.026192  0.0
H  H62  1  0.33416481  0.91084537  0.23911417  1  0.009537  1.1e-05  0.082793  0.102195  5e-06  1.020111  0.0
H  H63  1  0.42899388  0.86321685  0.12454354  1  0.041517  -0.0  0.087489  0.110921  -1e-06  1.010037  0.0
H  H64  1  0.51047887  0.98900551  0.23526253  1  -0.004241  1.1e-05  0.082646  0.10341  5e-06  1.027896  0.0
H  H65  1  0.63052953  0.82807197  0.24692246  1  0.027263  -1e-06  0.087197  0.116759  -4e-06  1.001997  0.0
H  H66  1  0.45509042  0.74553519  0.24574714  1  0.054406  1e-06  0.084616  0.10657  -1e-06  1.017087  0.0
H  H67  1  0.53143310  0.87090970  0.35951887  1  -0.023363  1.3e-05  0.078096  0.092521  4e-06  1.039331  0.0
H  H68  1  0.49803500  0.90397697  0.57357447  1  -0.008815  2e-06  0.078055  0.096513  -2e-06  1.021678  0.0
H  H69  1  0.40923433  0.87205102  0.67866107  1  0.04688  2e-06  0.084861  0.110126  0.0  1.036824  0.0
H  H70  1  0.56698935  0.81659446  0.63890239  1  0.000237  1e-05  0.080993  0.10143  5e-06  1.02174  0.0
H  H71  1  0.64046352  0.98410063  0.81692091  1  0.024948  2e-06  0.085225  0.110247  1e-06  1.010387  0.0
H  H72  1  0.56420470  0.07173591  0.75564854  1  -0.001288  1e-06  0.077878  0.094711  -2e-06  1.014862  0.0
H  H73  1  0.72397383  0.02006850  0.71148985  1  0.011325  6e-06  0.080048  0.0993  -1e-06  1.031751  0.0
H  H74  1  0.92171388  0.93085280  0.12375544  1  0.0231  4.5e-05  0.081577  0.106457  2.3e-05  1.010445  0.0
H  H75  1  0.78269009  0.00909677  0.16750428  1  0.024924  -5e-06  0.080373  0.110445  -6e-06  1.016211  0.0
H  H76  1  0.87949741  0.02801726  0.06058227  1  0.016395  1.8e-05  0.078247  0.100735  7e-06  1.032388  0.0
H  H77  1  0.62433764  0.90257874  0.98177542  1  0.001461  1e-06  0.079608  0.095626  0.0  1.025869  0.0
H  H78  1  0.66708102  0.80447739  0.04364173  1  0.034742  1e-06  0.08264  0.103358  -1e-06  1.020559  0.0
H  H79  1  0.76418047  0.82537948  0.93714536  1  0.032959  -0.0  0.081864  0.100402  -2e-06  1.028137  0.0
C  C80  1  0.46858423  0.36577729  0.55735981  1  0.22959  -0.000532  -0.070861  -0.098689  -0.000784  3.827918  -0.001
C  C81  1  0.41092843  0.16077896  0.49247953  1  0.209377  -0.00049  -0.07342  -0.098251  -0.000702  3.812129  -0.001
C  C82  1  0.42733661  0.25988932  0.36316703  1  0.278011  -0.000623  -0.070405  -0.092551  -0.0009  3.827193  -0.001
C  C83  1  0.99981169  0.26381333  0.27318486  1  1.525488  0.001041  0.216659  0.558386  -0.001026  4.155606  0.0
C  C84  1  0.98505520  0.27258936  0.16203013  1  0.02285  0.002138  -0.01403  -0.025934  0.001329  3.990704  0.001
C  C85  1  0.10963588  0.28451034  0.11067328  1  -0.046325  0.00207  -0.074736  -0.136678  0.000992  3.932608  0.001
C  C86  1  0.09777618  0.28464456  0.00204213  1  -0.093734  0.000161  -0.001076  0.074558  -0.00019  4.00514  0.0
C  C87  1  0.22286659  0.29034318  0.94518895  1  -0.027279  0.000232  -0.08679  -0.130044  -0.0001  3.98818  0.0
C  C88  1  0.84336854  0.26548105  0.10753360  1  -0.069816  0.000943  -0.082951  -0.099006  0.000489  3.995538  0.001
C  C89  1  0.06668742  0.47585364  0.51519265  1  1.533942  0.00043  0.219274  0.558767  -0.001722  4.151671  -0.001
C  C90  1  0.07684848  0.59007555  0.50569218  1  -0.036035  0.000978  -0.012911  -0.020392  -0.000164  3.99296  0.001
C  C91  1  0.95865361  0.64463836  0.52216952  1  -0.020241  0.003013  -0.075108  -0.135877  0.001552  3.931534  0.002
C  C92  1  0.95968049  0.74466563  0.49729940  1  -0.028048  -0.000209  -0.000401  0.073908  -0.000557  4.011613  0.0
C  C93  1  0.84063521  0.80299480  0.51391302  1  -0.052498  0.000631  -0.082282  -0.120647  0.000194  3.985785  0.0
C  C94  1  0.20318828  0.63609271  0.46676437  1  -0.044504  0.000755  -0.082721  -0.099453  0.000348  3.980473  0.0
C  C95  1  0.63485216  0.35979686  0.56357586  1  0.240869  0.001518  -0.069829  -0.095281  0.000871  3.830406  0.001
C  C96  1  0.57698158  0.15603464  0.48852229  1  0.233717  0.00172  -0.069461  -0.089511  0.000952  3.832831  0.001
C  C97  1  0.59568994  0.26446637  0.36749062  1  0.237034  0.001486  -0.07218  -0.097337  0.000809  3.839018  0.001
C  C98  1  0.04886812  0.27185187  0.66690869  1  1.513155  0.000142  0.214958  0.554776  -0.002123  4.153996  -0.001
C  C99  1  0.06517231  0.27659074  0.78274301  1  0.022406  0.001641  -0.013064  -0.021236  0.000995  3.988098  0.001
C  C100  1  0.94171789  0.27274663  0.83672446  1  -0.011524  0.001899  -0.074091  -0.134056  0.000957  3.929276  0.001
C  C101  1  0.95403096  0.27534929  0.94624580  1  -0.001983  0.000663  -0.002969  0.075725  0.000235  4.001845  0.0
C  C102  1  0.82864897  0.26766393  0.00245102  1  -0.0057  0.000946  -0.084699  -0.1253  0.000439  3.984704  0.001
C  C103  1  0.20694592  0.28505118  0.83770217  1  -0.057958  0.000994  -0.086628  -0.103459  0.000482  4.008671  0.001
C  C104  1  0.97619700  0.05115696  0.42263839  1  1.520915  0.004665  0.214224  0.551341  0.002053  4.161484  0.002
C  C105  1  0.96429891  0.94041596  0.44002043  1  0.010459  0.002717  -0.015956  -0.028491  0.000936  3.995  0.002
C  C106  1  0.08159125  0.88479155  0.42255576  1  -0.034599  0.001013  -0.073429  -0.128896  0.000359  3.926986  0.0
C  C107  1  0.08357777  0.78729848  0.45140091  1  -0.01779  0.001112  -0.002675  0.070023  0.000503  4.010587  0.001
C  C108  1  0.20518806  0.73147348  0.43854771  1  -0.037294  8.7e-05  -0.081466  -0.125111  -0.000128  3.993543  0.0
C  C109  1  0.84237463  0.89843211  0.48605189  1  -0.03423  0.000671  -0.084656  -0.100302  0.000196  3.985141  0.001
C  C110  1  0.94449630  0.67550954  0.11824244  1  -0.057693  4e-06  -0.248971  -0.306691  4e-06  3.999189  0.0
C  C111  1  0.08769194  0.63469169  0.13407864  1  -0.038298  2e-06  -0.250755  -0.30324  -0.0  3.993447  0.0
C  C112  1  0.28971115  0.05086388  0.05856792  1  -0.018966  6e-06  -0.250358  -0.316146  1e-06  3.992784  0.0
C  C113  1  0.44424103  0.11581742  0.05839814  1  -0.026527  -3e-06  -0.246773  -0.306297  -8e-06  3.999911  0.0
C  C114  1  0.08992938  0.59956428  0.82806603  1  -0.024186  3e-06  -0.250425  -0.299645  -5e-06  3.989679  0.0
C  C115  1  0.92320826  0.55526359  0.81343394  1  -0.036657  -5.4e-05  -0.254753  -0.312937  -6.1e-05  3.994125  0.0
C  C116  1  0.15939290  0.91008037  0.77422752  1  -0.047113  -0.0  -0.251297  -0.30296  -1e-06  4.000903  0.0
C  C117  1  0.00307627  0.89746180  0.80521034  1  -0.116057  5e-06  -0.249615  -0.303607  4e-06  3.988933  0.0
C  C118  1  0.49369380  0.61266455  0.78956181  1  -0.067822  1.5e-05  -0.249492  -0.30567  1.4e-05  3.98604  0.0
C  C119  1  0.51208836  0.54774653  0.86815884  1  -0.063519  6e-06  -0.24854  -0.302856  -2e-06  3.999766  0.0
C  C120  1  0.55440981  0.56549626  0.35285821  1  -0.060424  3.6e-05  -0.248276  -0.308225  2.3e-05  4.001379  0.0
C  C121  1  0.65909797  0.54882764  0.26595962  1  -0.037432  5e-06  -0.248022  -0.300849  4e-06  3.991749  0.0
C  C122  1  0.44407172  0.90258222  0.21443173  1  -0.04198  1.2e-05  -0.246772  -0.309013  9e-06  3.997653  0.0
C  C123  1  0.51904426  0.83310475  0.26941611  1  -0.063338  1.1e-05  -0.248252  -0.31174  6e-06  4.00022  0.0
C  C124  1  0.51780624  0.89221111  0.65306148  1  -0.038918  9e-06  -0.249095  -0.301256  4e-06  3.989134  0.0
C  C125  1  0.61693340  0.99747619  0.73867179  1  -0.037833  5e-06  -0.248028  -0.30471  0.0  4.003358  0.0
C  C126  1  0.83071532  0.96403392  0.09488739  1  -0.051638  1.7e-05  -0.251812  -0.304586  1.9e-05  3.985439  0.0
C  C127  1  0.71567572  0.86917439  0.01002594  1  -0.083697  7e-06  -0.249486  -0.309104  -0.0  4.014572  0.0
N  N128  1  0.38045534  0.26292226  0.47025714  1  -0.966136  0.036117  -0.336728  -0.068046  0.020749  3.464568  0.033
N  N129  1  0.65757509  0.25944126  0.47328453  1  -0.948106  0.005844  -0.33078  -0.079857  0.003864  3.435194  0.006
O  O130  1  0.13037580  0.28587507  0.32429869  1  -1.106184  0.03743  -0.29891  -0.497365  0.020458  2.440818  0.035
O  O131  1  0.88103609  0.23461325  0.30992438  1  -1.102624  0.047497  -0.290697  -0.49143  0.025564  2.423556  0.042
O  O132  1  0.93340046  0.41650305  0.49581919  1  -1.070544  0.000571  -0.293239  -0.476126  -0.001004  2.462777  0.003
O  O133  1  0.86632403  0.10135921  0.44503562  1  -1.072839  0.006578  -0.292118  -0.470445  0.002805  2.437139  0.008
O  O134  1  0.92538796  0.28481657  0.62777163  1  -1.087701  0.04874  -0.289557  -0.484947  0.026507  2.415216  0.044
O  O135  1  0.15926606  0.25492378  0.61427373  1  -1.123218  0.033275  -0.299039  -0.499899  0.018361  2.421764  0.031
O  O136  1  0.09489288  0.09330586  0.39500196  1  -1.141406  0.059604  -0.302  -0.507413  0.031905  2.376594  0.052
O  O137  1  0.18318532  0.44139139  0.53277034  1  -1.13386  0.059765  -0.293871  -0.497238  0.032462  2.358082  0.053
