# generated using pymatgen
data_Tm2U3H26(C3O4)10
_symmetry_space_group_name_H-M   'P 1'
_cell_length_a   10.47065881
_cell_length_b   11.38122243
_cell_length_c   13.37004297
_cell_angle_alpha   68.36674882
_cell_angle_beta   78.44436838
_cell_angle_gamma   64.11252104
_symmetry_Int_Tables_number   1
_chemical_formula_structural   Tm2U3H26(C3O4)10
_chemical_formula_sum   'Tm2 U3 H26 C30 O40'
_cell_volume   1330.96927123
_cell_formula_units_Z   1
loop_
 _symmetry_equiv_pos_site_id
 _symmetry_equiv_pos_as_xyz
  1  'x, y, z'
loop_
 _atom_site_type_symbol
 _atom_site_label
 _atom_site_symmetry_multiplicity
 _atom_site_fract_x
 _atom_site_fract_y
 _atom_site_fract_z
 _atom_site_occupancy
 _atom_site_pbe_bader_charge
 _atom_site_pbe_bader_spin_density
 _atom_site_pbe_cm5_charge
 _atom_site_pbe_ddec_charge
 _atom_site_pbe_ddec_spin_density
 _atom_site_pbe_ddec_sum_bond_order
 _atom_site_pbe_magmom
Tm  Tm0  1  0.58731169  0.24122371  0.74689994  1  2.216251  0  1.545272  2.24887  0  1.87042  0
Tm  Tm1  1  0.41268209  0.75878029  0.25309533  1  2.216306  0  1.545246  2.248847  0  1.870465  0
U  U2  1  0.62082153  0.71435186  0.83858479  1  2.917734  0  2.192081  2.443029  0  4.79743  0
U  U3  1  0.37919071  0.28564296  0.16141047  1  2.917844  0  2.191947  2.442968  0  4.797286  0
U  U4  1  0.99999951  0.50000273  0.50001644  1  2.892552  0  2.152633  2.403044  0  4.74063  0
H  H5  1  0.09590926  0.36822695  0.96754780  1  0.140984  0  0.121573  0.137835  0  1.004606  0
H  H6  1  0.90410633  0.63176688  0.03244275  1  0.140763  0  0.12156  0.13783  0  1.004682  0
H  H7  1  0.15073992  0.10755527  0.72401422  1  0.101342  0  0.114059  0.124064  0  1.000788  0
H  H8  1  0.84925265  0.89240940  0.27600388  1  0.100859  0  0.114087  0.124103  0  1.000818  0
H  H9  1  0.72791602  0.00301218  0.40525948  1  0.090617  0  0.119039  0.128852  0  0.978499  0
H  H10  1  0.27206960  0.99700212  0.59473162  1  0.090414  0  0.119002  0.128837  0  0.978402  0
H  H11  1  0.66216083  0.21118691  0.53480633  1  0.669973  0  0.295635  0.397324  0  0.943805  0
H  H12  1  0.33782939  0.78881396  0.46519120  1  0.670049  0  0.29558  0.397211  0  0.943962  0
H  H13  1  0.71560564  0.06040904  0.62391453  1  0.625788  0  0.331931  0.430023  0  0.857839  0
H  H14  1  0.28438608  0.93959286  0.37608469  1  0.625804  0  0.331967  0.430037  0  0.857811  0
H  H15  1  0.53541056  0.51775698  0.58780767  1  0.638911  0  0.307868  0.407555  0  0.921167  0
H  H16  1  0.46458171  0.48224597  0.41218965  1  0.638876  0  0.307905  0.407628  0  0.921045  0
H  H17  1  0.70302479  0.42491059  0.59750839  1  0.651741  0  0.311159  0.408781  0  0.922252  0
H  H18  1  0.29696750  0.57510160  0.40249355  1  0.651579  0  0.311132  0.408709  0  0.922371  0
H  H19  1  0.30300553  0.46768633  0.67149001  1  0.634843  0  0.347112  0.447469  0  0.826201  0
H  H20  1  0.69697135  0.53231126  0.32852630  1  0.634922  0  0.347155  0.447543  0  0.826058  0
H  H21  1  0.33343091  0.36935439  0.60521753  1  0.648563  0  0.316106  0.415925  0  0.902936  0
H  H22  1  0.66656450  0.63065267  0.39478477  1  0.64853  0  0.316177  0.416082  0  0.902756  0
H  H23  1  0.49993728  0.51472956  0.78138557  1  0.655914  0  0.309915  0.409316  0  0.915998  0
H  H24  1  0.50006526  0.48527450  0.21860682  1  0.655687  0  0.309963  0.409384  0  0.915919  0
H  H25  1  0.48710769  0.40760504  0.89571739  1  0.66344  0  0.31732  0.431985  0  0.877092  0
H  H26  1  0.51290457  0.59239906  0.10427649  1  0.663506  0  0.317289  0.431924  0  0.877155  0
H  H27  1  0.73475795  0.93677606  0.87234812  1  0.633374  0  0.310248  0.412442  0  0.917323  0
H  H28  1  0.26524253  0.06322591  0.12764748  1  0.633342  0  0.310229  0.412424  0  0.917354  0
H  H29  1  0.83408244  0.01784775  0.85714403  1  0.636314  0  0.334669  0.427151  0  0.857302  0
H  H30  1  0.16590456  0.98216548  0.14285316  1  0.63617  0  0.334705  0.427237  0  0.857154  0
C  C31  1  0.99314203  0.34326656  0.85743192  1  0.020343  0  0.000614  -0.032493  0  3.935013  0
C  C32  1  0.00686499  0.65672201  0.14256832  1  0.020346  0  0.000591  -0.032546  0  3.934819  0
C  C33  1  0.10910251  0.31126428  0.91344406  1  0.045425  0  -0.057916  -0.081107  0  3.884199  0
C  C34  1  0.89090506  0.68872534  0.08655427  1  0.045432  0  -0.057942  -0.081158  0  3.884433  0
C  C35  1  0.24282673  0.21331173  0.89611705  1  -0.012165  0  -0.005422  -0.081811  0  3.964519  0
C  C36  1  0.75718115  0.78667479  0.10388219  1  -0.011717  0  -0.00541  -0.081963  0  3.964681  0
C  C37  1  0.25893324  0.14264897  0.82414914  1  -0.042288  0  0.012094  -0.011832  0  3.902587  0
C  C38  1  0.74106609  0.85733232  0.17585379  1  -0.042057  0  0.01207  -0.011785  0  3.902508  0
C  C39  1  0.13915270  0.16559166  0.77662238  1  0.025352  0  -0.071862  -0.126338  0  3.926743  0
C  C40  1  0.86084303  0.83437717  0.22339094  1  0.025981  0  -0.07197  -0.126476  0  3.926451  0
C  C41  1  0.00689259  0.26736662  0.79043456  1  -0.063533  0  0.016057  -0.02218  0  3.911239  0
C  C42  1  0.99310552  0.73261048  0.20957883  1  -0.062594  0  0.016164  -0.021944  0  3.910973  0
C  C43  1  0.62705675  0.00313423  0.44667284  1  0.024375  0  -0.064569  -0.105169  0  3.918272  0
C  C44  1  0.37293135  0.99688111  0.55331905  1  0.024872  0  -0.064522  -0.105055  0  3.918238  0
C  C45  1  0.61619002  0.87633668  0.50042360  1  -0.003456  0  0.007388  -0.013486  0  3.919104  0
C  C46  1  0.38379935  0.12367551  0.49957654  1  -0.004089  0  0.007336  -0.01364  0  3.919375  0
C  C47  1  0.48753712  0.87277422  0.55514330  1  -0.029535  0  0.006458  -0.059489  0  3.950606  0
C  C48  1  0.51245312  0.12723595  0.44485060  1  -0.028881  0  0.006519  -0.059248  0  3.950432  0
C  C49  1  0.86050006  0.46473838  0.86155449  1  1.523781  0  0.214  0.576756  0  4.18316  0
C  C50  1  0.13951771  0.53525960  0.13843445  1  1.523576  0  0.213815  0.576407  0  4.183304  0
C  C51  1  0.36184091  0.18947581  0.95674319  1  1.570679  0  0.254666  0.657123  0  4.10731  0
C  C52  1  0.63816581  0.81051589  0.04325164  1  1.570273  0  0.254731  0.65734  0  4.10732  0
C  C53  1  0.40064289  0.04355199  0.79429436  1  1.610683  0  0.241776  0.646548  0  4.155702  0
C  C54  1  0.59935885  0.95643762  0.20569964  1  1.610673  0  0.241758  0.64649  0  4.155726  0
C  C55  1  0.88432558  0.29503372  0.72997173  1  1.629346  0  0.257203  0.678293  0  4.103794  0
C  C56  1  0.11566750  0.70495779  0.27004097  1  1.627801  0  0.257022  0.677972  0  4.103853  0
C  C57  1  0.46808100  0.74096627  0.61967844  1  1.614518  0  0.249005  0.633944  0  4.138829  0
C  C58  1  0.53191162  0.25904288  0.38031541  1  1.614238  0  0.24901  0.633923  0  4.138815  0
C  C59  1  0.74284865  0.74903854  0.49592685  1  1.528738  0  0.214943  0.568214  0  4.204535  0
C  C60  1  0.25714781  0.25097048  0.50409187  1  1.528417  0  0.214947  0.568193  0  4.204824  0
O  O61  1  0.53230345  0.63207182  0.95671578  1  -0.883589  0  -0.747255  -0.707098  0  1.845191  0
O  O62  1  0.46773116  0.36792316  0.04327149  1  -0.883789  0  -0.747002  -0.707089  0  1.844682  0
O  O63  1  0.71254964  0.79727421  0.72530644  1  -0.852861  0  -0.756374  -0.688228  0  1.810711  0
O  O64  1  0.28746266  0.20273925  0.27467556  1  -0.852878  0  -0.756509  -0.688157  0  1.811134  0
O  O65  1  0.05532419  0.50951002  0.61542710  1  -0.857131  0  -0.762975  -0.692871  0  1.83906  0
O  O66  1  0.94467429  0.49049171  0.38460405  1  -0.856721  0  -0.762855  -0.692806  0  1.838882  0
O  O67  1  0.84927126  0.54178760  0.91527138  1  -1.130525  0  -0.341642  -0.577515  0  2.170329  0
O  O68  1  0.15075498  0.45822289  0.08470190  1  -1.130802  0  -0.341526  -0.577376  0  2.170237  0
O  O69  1  0.75712423  0.49731036  0.80539986  1  -1.128766  0  -0.338143  -0.572824  0  2.275771  0
O  O70  1  0.24289201  0.50268657  0.19458963  1  -1.128409  0  -0.338081  -0.572588  0  2.275956  0
O  O71  1  0.79925456  0.23838123  0.77864094  1  -1.187832  0  -0.37433  -0.659409  0  2.263654  0
O  O72  1  0.20073346  0.76161544  0.22136720  1  -1.18746  0  -0.374283  -0.659328  0  2.26384  0
O  O73  1  0.87739416  0.36752469  0.63020700  1  -1.163964  0  -0.343147  -0.606276  0  2.351755  0
O  O74  1  0.12259808  0.63247812  0.36981206  1  -1.163886  0  -0.34298  -0.606033  0  2.351468  0
O  O75  1  0.41152313  0.92039714  0.81498686  1  -1.154405  0  -0.366772  -0.624804  0  2.259163  0
O  O76  1  0.58848932  0.07959256  0.18500247  1  -1.154237  0  -0.366721  -0.624718  0  2.258955  0
O  O77  1  0.49761464  0.08517428  0.74886269  1  -1.182399  0  -0.365878  -0.663333  0  2.339582  0
O  O78  1  0.50237593  0.91483284  0.25112612  1  -1.182336  0  -0.365864  -0.663354  0  2.339721  0
O  O79  1  0.48311875  0.17737667  0.91433800  1  -1.177512  0  -0.365085  -0.640774  0  2.324988  0
O  O80  1  0.51688929  0.82262125  0.08565171  1  -1.177435  0  -0.365039  -0.640764  0  2.325046  0
O  O81  1  0.32977426  0.18420237  0.05679667  1  -1.171296  0  -0.370545  -0.635307  0  2.358747  0
O  O82  1  0.67023292  0.81579760  0.94319553  1  -1.171316  0  -0.370628  -0.635378  0  2.358752  0
O  O83  1  0.50242481  0.68613614  0.71850524  1  -1.171063  0  -0.353588  -0.617639  0  2.327311  0
O  O84  1  0.49758552  0.31386799  0.28148369  1  -1.171348  0  -0.353636  -0.61769  0  2.327316  0
O  O85  1  0.41271006  0.69262222  0.57785548  1  -1.169448  0  -0.281969  -0.515236  0  2.18245  0
O  O86  1  0.58727726  0.30738790  0.42214412  1  -1.168932  0  -0.281972  -0.515292  0  2.182499  0
O  O87  1  0.72829061  0.63594616  0.51544088  1  -1.157041  0  -0.328637  -0.605292  0  2.261931  0
O  O88  1  0.27170835  0.36406391  0.48457564  1  -1.157208  0  -0.328621  -0.605295  0  2.262063  0
O  O89  1  0.86493647  0.75260703  0.47049641  1  -1.12845  0  -0.327804  -0.56031  0  2.220169  0
O  O90  1  0.13506589  0.24739470  0.52953713  1  -1.12835  0  -0.32773  -0.5602  0  2.220281  0
O  O91  1  0.70354734  0.15535003  0.60803681  1  -1.261247  0  -0.650976  -0.860357  0  2.036712  0
O  O92  1  0.29644676  0.84465087  0.39196012  1  -1.26132  0  -0.650973  -0.860283  0  2.036828  0
O  O93  1  0.60826128  0.42260573  0.60200729  1  -1.261249  0  -0.655558  -0.865506  0  2.094892  0
O  O94  1  0.39173500  0.57739932  0.39798801  1  -1.261057  0  -0.655576  -0.865518  0  2.094955  0
O  O95  1  0.36402712  0.37587950  0.66750131  1  -1.243425  0  -0.622403  -0.861887  0  2.0673  0
O  O96  1  0.63596731  0.62412753  0.33250414  1  -1.243539  0  -0.622489  -0.862092  0  2.06704  0
O  O97  1  0.49196586  0.42478527  0.81722860  1  -1.296677  0  -0.638529  -0.887693  0  2.034637  0
O  O98  1  0.50803527  0.57521979  0.18276669  1  -1.296446  0  -0.638547  -0.887724  0  2.034689  0
O  O99  1  0.75493899  0.01927762  0.82857212  1  -1.235665  0  -0.633244  -0.856913  0  2.070548  0
O  O100  1  0.24505814  0.98072537  0.17142144  1  -1.235509  0  -0.633232  -0.85696  0  2.070443  0
