# generated using pymatgen
data_GdH8C6O7
_symmetry_space_group_name_H-M   'P 1'
_cell_length_a   7.62462089
_cell_length_b   8.03907171
_cell_length_c   14.13476128
_cell_angle_alpha   97.02166881
_cell_angle_beta   95.87611827
_cell_angle_gamma   103.66199001
_symmetry_Int_Tables_number   1
_chemical_formula_structural   GdH8C6O7
_chemical_formula_sum   'Gd4 H32 C24 O28'
_cell_volume   827.78667797
_cell_formula_units_Z   4
loop_
 _symmetry_equiv_pos_site_id
 _symmetry_equiv_pos_as_xyz
  1  'x, y, z'
loop_
 _atom_site_type_symbol
 _atom_site_label
 _atom_site_symmetry_multiplicity
 _atom_site_fract_x
 _atom_site_fract_y
 _atom_site_fract_z
 _atom_site_occupancy
 _atom_site_hle17_bader_spin_density
 _atom_site_hle17_ddec_charge
 _atom_site_hle17_ddec_spin_density
 _atom_site_hle17_ddec_sum_bond_order
 _atom_site_hle17_magmom
 _atom_site_hse06_10hf_bader_spin_density
 _atom_site_hse06_10hf_ddec_charge
 _atom_site_hse06_10hf_ddec_spin_density
 _atom_site_hse06_10hf_ddec_sum_bond_order
 _atom_site_hse06_10hf_magmom
 _atom_site_hse06_bader_spin_density
 _atom_site_hse06_ddec_charge
 _atom_site_hse06_ddec_spin_density
 _atom_site_hse06_ddec_sum_bond_order
 _atom_site_hse06_magmom
 _atom_site_pbe_bader_spin_density
 _atom_site_pbe_cm5_charge
 _atom_site_pbe_ddec_charge
 _atom_site_pbe_ddec_spin_density
 _atom_site_pbe_ddec_sum_bond_order
 _atom_site_pbe_magmom
Gd  Gd0  1  0.87196211  0.92237256  0.70759207  1  0  2.196263  0  1.76304  0  0  2.105198  0  2.111815  0  0  2.160866  0  2.057656  0  0  1.473551  2.062616  0  2.154403  0
Gd  Gd1  1  0.12803688  0.07762529  0.29240735  1  0  2.196277  0  1.763033  0  0  2.105163  0  2.111869  0  0  2.160841  0  2.057696  0  0  1.47353  2.062621  0  2.154399  0
Gd  Gd2  1  0.41130856  0.00893535  0.79922799  1  0  2.200913  0  1.769477  0  0  2.109798  0  2.117829  0  0  2.165409  0  2.06352  0  0  1.479621  2.066333  0  2.162145  0
Gd  Gd3  1  0.58869043  0.99106251  0.20077143  1  0  2.200877  0  1.76952  0  0  2.109762  0  2.117877  0  0  2.165375  0  2.063568  0  0  1.479616  2.066316  0  2.162164  0
H  H4  1  0.07536303  0.37378622  0.64251285  1  0  0.112933  0  0.936332  0  0  0.128379  0  0.991483  0  0  0.130753  0  0.990782  0  0  0.106695  0.126626  0  0.992144  0
H  H5  1  0.92463791  0.62621422  0.35748899  1  0  0.113001  0  0.93629  0  0  0.128404  0  0.991452  0  0  0.13078  0  0.990744  0  0  0.106699  0.126649  0  0.992113  0
H  H6  1  0.28751047  0.52420424  0.69184576  1  0  0.113874  0  0.932516  0  0  0.129956  0  0.986833  0  0  0.131824  0  0.986916  0  0  0.110314  0.128592  0  0.986852  0
H  H7  1  0.71249142  0.47579491  0.30815747  1  0  0.113867  0  0.932526  0  0  0.12992  0  0.98682  0  0  0.131783  0  0.986911  0  0  0.1103  0.128555  0  0.986838  0
H  H8  1  0.32199870  0.46335569  0.12675018  1  0  0.139346  0  0.919432  0  0  0.152385  0  0.977544  0  0  0.155618  0  0.975507  0  0  0.116405  0.15004  0  0.979151  0
H  H9  1  0.67800325  0.53664347  0.87325022  1  0  0.13938  0  0.919415  0  0  0.152398  0  0.977536  0  0  0.155631  0  0.975501  0  0  0.116401  0.150053  0  0.979143  0
H  H10  1  0.40285997  0.40851086  0.01705605  1  0  0.109201  0  0.938035  0  0  0.12493  0  0.992942  0  0  0.127089  0  0.992202  0  0  0.107517  0.123335  0  0.993666  0
H  H11  1  0.59713837  0.59148958  0.98294422  1  0  0.109266  0  0.938044  0  0  0.124987  0  0.992932  0  0  0.127146  0  0.992191  0  0  0.107538  0.123393  0  0.993655  0
H  H12  1  0.61475068  0.39967850  0.65348067  1  0  0.144689  0  0.931027  0  0  0.157044  0  0.988634  0  0  0.160606  0  0.986868  0  0  0.117953  0.154511  0  0.990035  0
H  H13  1  0.38524604  0.60032065  0.34651729  1  0  0.144711  0  0.931053  0  0  0.157075  0  0.988637  0  0  0.160636  0  0.986869  0  0  0.117981  0.154544  0  0.990033  0
H  H14  1  0.45257179  0.22703130  0.58023194  1  0  0.120526  0  0.91367  0  0  0.136293  0  0.968257  0  0  0.138813  0  0.967416  0  0  0.114882  0.134423  0  0.969091  0
H  H15  1  0.54742890  0.77297303  0.41976803  1  0  0.120545  0  0.913634  0  0  0.136288  0  0.968248  0  0  0.138807  0  0.967407  0  0  0.114881  0.134419  0  0.969083  0
H  H16  1  0.81061428  0.37835225  0.50599906  1  0  0.106573  0  0.943442  0  0  0.121067  0  1.003312  0  0  0.12379  0  1.001407  0  0  0.103154  0.118967  0  1.004938  0
H  H17  1  0.18938637  0.62164690  0.49400055  1  0  0.106602  0  0.943406  0  0  0.121104  0  1.003275  0  0  0.123828  0  1.00137  0  0  0.103169  0.119003  0  1.004901  0
H  H18  1  0.63888015  0.49158546  0.50411274  1  0  0.121005  0  0.936867  0  0  0.135982  0  0.995397  0  0  0.13825  0  0.994771  0  0  0.110457  0.134328  0  0.995922  0
H  H19  1  0.36112021  0.50841758  0.49588641  1  0  0.121011  0  0.936921  0  0  0.136  0  0.99544  0  0  0.138268  0  0.994815  0  0  0.110472  0.134346  0  0.995964  0
H  H20  1  0.02359494  0.84780923  0.51174158  1  0  0.451736  0  0.823152  0  0  0.430088  0  0.871855  0  0  0.439814  0  0.857506  0  0  0.319723  0.423101  0  0.88219  0
H  H21  1  0.97640436  0.15218992  0.48825937  1  0  0.451715  0  0.823164  0  0  0.430068  0  0.871878  0  0  0.439794  0  0.857529  0  0  0.319716  0.42308  0  0.882214  0
H  H22  1  0.13817357  0.81362210  0.60065303  1  0  0.425628  0  0.886752  0  0  0.394051  0  0.952778  0  0  0.405365  0  0.936416  0  0  0.297582  0.386051  0  0.964312  0
H  H23  1  0.86182575  0.18637705  0.39934721  1  0  0.425637  0  0.886737  0  0  0.394062  0  0.952758  0  0  0.405376  0  0.936397  0  0  0.297589  0.386063  0  0.964291  0
H  H24  1  0.77388682  0.15922044  0.91088729  1  0  0.43524  0  0.86376  0  0  0.405086  0  0.926517  0  0  0.416221  0  0.910376  0  0  0.300215  0.397142  0  0.938011  0
H  H25  1  0.22611288  0.84078001  0.08911094  1  0  0.435224  0  0.863782  0  0  0.405063  0  0.926549  0  0  0.416198  0  0.910408  0  0  0.300183  0.397118  0  0.938044  0
H  H26  1  0.62935203  0.19465201  0.98470731  1  0  0.449537  0  0.84422  0  0  0.419519  0  0.905709  0  0  0.430558  0  0.889642  0  0  0.30519  0.411686  0  0.917087  0
H  H27  1  0.37064728  0.80534714  0.01529293  1  0  0.449544  0  0.84421  0  0  0.419528  0  0.9057  0  0  0.430567  0  0.889634  0  0  0.305183  0.411694  0  0.91708  0
H  H28  1  0.97326358  0.39661416  0.80656844  1  0  0.11544  0  0.930709  0  0  0.128649  0  0.989944  0  0  0.131246  0  0.989358  0  0  0.109089  0.126769  0  0.990499  0
H  H29  1  0.02673569  0.60338498  0.19343392  1  0  0.115466  0  0.930692  0  0  0.128656  0  0.989933  0  0  0.131254  0  0.989345  0  0  0.109089  0.126774  0  0.99049  0
H  H30  1  0.18953011  0.54471979  0.85405195  1  0  0.11935  0  0.933529  0  0  0.132991  0  0.990926  0  0  0.135672  0  0.990281  0  0  0.107288  0.13104  0  0.991549  0
H  H31  1  0.81046685  0.45528064  0.14595036  1  0  0.119387  0  0.933526  0  0  0.133003  0  0.990933  0  0  0.135684  0  0.990291  0  0  0.1073  0.131052  0  0.991557  0
H  H32  1  0.04039634  0.20382491  0.07097626  1  0  0.116871  0  0.946338  0  0  0.129897  0  1.008671  0  0  0.13246  0  1.008176  0  0  0.11345  0.12804  0  1.009182  0
H  H33  1  0.95960333  0.79617553  0.92902338  1  0  0.116873  0  0.946361  0  0  0.129871  0  1.008716  0  0  0.132431  0  1.008225  0  0  0.11344  0.128033  0  1.009205  0
H  H34  1  0.05766010  0.37514801  0.00357017  1  0  0.101779  0  0.928875  0  0  0.120009  0  0.984751  0  0  0.122043  0  0.983856  0  0  0.10405  0.118502  0  0.985571  0
H  H35  1  0.94233857  0.62485372  0.99643021  1  0  0.101805  0  0.928856  0  0  0.120028  0  0.984725  0  0  0.122062  0  0.983826  0  0  0.104051  0.11852  0  0.98555  0
C  C36  1  0.17561280  0.42186023  0.70724402  1  0  -0.226985  0  3.603644  0  0  -0.265641  0  3.849494  0  0  -0.270352  0  3.855798  0  0  -0.151899  -0.262359  0  3.845285  0
C  C37  1  0.82438744  0.57813762  0.29275902  1  0  -0.227068  0  3.603752  0  0  -0.265594  0  3.84941  0  0  -0.270302  0  3.85571  0  0  -0.151887  -0.262302  0  3.845186  0
C  C38  1  0.25530414  0.27809354  0.73673311  1  0  0.726166  0  3.825923  0  0  0.68398  0  4.131434  0  0  0.717306  0  4.122956  0  0  0.213482  0.661311  0  4.13611  0
C  C39  1  0.74469414  0.72190172  0.26326751  1  0  0.725966  0  3.826218  0  0  0.683802  0  4.131661  0  0  0.717126  0  4.123187  0  0  0.213365  0.661132  0  4.136338  0
C  C40  1  0.11319042  0.14721775  0.93131653  1  0  0.749374  0  3.784951  0  0  0.703768  0  4.087466  0  0  0.737288  0  4.079325  0  0  0.234353  0.680929  0  4.092181  0
C  C41  1  0.88680695  0.85278399  0.06868306  1  0  0.749313  0  3.78503  0  0  0.703703  0  4.087529  0  0  0.737218  0  4.079395  0  0  0.234319  0.680865  0  4.092248  0
C  C42  1  0.31971611  0.35557025  0.07034949  1  0  -0.24551  0  3.6438  0  0  -0.286509  0  3.89176  0  0  -0.291353  0  3.897225  0  0  -0.157991  -0.283208  0  3.888186  0
C  C43  1  0.68028287  0.64442760  0.92965063  1  0  -0.245607  0  3.643926  0  0  -0.286574  0  3.891794  0  0  -0.291419  0  3.897255  0  0  -0.157991  -0.283274  0  3.888232  0
C  C44  1  0.41207825  0.23513311  0.11789948  1  0  0.77132  0  3.742051  0  0  0.724635  0  4.043771  0  0  0.760028  0  4.03221  0  0  0.234067  0.70049  0  4.0507  0
C  C45  1  0.58792305  0.76486346  0.88209929  1  0  0.771302  0  3.742111  0  0  0.724661  0  4.043757  0  0  0.760054  0  4.032195  0  0  0.234091  0.700514  0  4.050684  0
C  C46  1  0.69898654  0.17037650  0.63294272  1  0  0.750197  0  3.771128  0  0  0.705228  0  4.074428  0  0  0.739329  0  4.065539  0  0  0.22396  0.682018  0  4.079482  0
C  C47  1  0.30101345  0.82962523  0.36705774  1  0  0.750231  0  3.771086  0  0  0.705217  0  4.074448  0  0  0.739316  0  4.065559  0  0  0.223935  0.682008  0  4.079506  0
C  C48  1  0.59872156  0.29316046  0.59423173  1  0  -0.251702  0  3.636453  0  0  -0.290065  0  3.88494  0  0  -0.295921  0  3.891177  0  0  -0.156268  -0.28613  0  3.880826  0
C  C49  1  0.40128145  0.70684259  0.40576688  1  0  -0.25174  0  3.63641  0  0  -0.290068  0  3.884891  0  0  -0.295914  0  3.891114  0  0  -0.156262  -0.286134  0  3.880778  0
C  C50  1  0.66361141  0.36239815  0.50428912  1  0  -0.250199  0  3.649551  0  0  -0.293215  0  3.897825  0  0  -0.297865  0  3.904201  0  0  -0.16443  -0.289903  0  3.893578  0
C  C51  1  0.33639027  0.63760489  0.49571011  1  0  -0.250214  0  3.649588  0  0  -0.293288  0  3.897837  0  0  -0.297944  0  3.904218  0  0  -0.164465  -0.289976  0  3.893591  0
C  C52  1  0.55912160  0.24690032  0.41332190  1  0  0.760188  0  3.768863  0  0  0.717518  0  4.068946  0  0  0.751442  0  4.059403  0  0  0.239537  0.694355  0  4.074637  0
C  C53  1  0.44088007  0.75310272  0.58667804  1  0  0.760051  0  3.769007  0  0  0.717512  0  4.068903  0  0  0.751435  0  4.05936  0  0  0.239534  0.694347  0  4.074594  0
C  C54  1  0.01287886  0.64441494  0.76185919  1  0  0.730054  0  3.806337  0  0  0.690894  0  4.10315  0  0  0.724233  0  4.095285  0  0  0.215483  0.668206  0  4.107563  0
C  C55  1  0.98712176  0.35558421  0.23814184  1  0  0.730128  0  3.806385  0  0  0.690938  0  4.103212  0  0  0.724275  0  4.095352  0  0  0.215497  0.668249  0  4.107629  0
C  C56  1  0.08650754  0.49682767  0.79030908  1  0  -0.238553  0  3.615667  0  0  -0.279386  0  3.865925  0  0  -0.285124  0  3.872603  0  0  -0.155325  -0.275528  0  3.861621  0
C  C57  1  0.91349272  0.50317018  0.20969254  1  0  -0.238679  0  3.615841  0  0  -0.279447  0  3.86593  0  0  -0.285184  0  3.872604  0  0  -0.155345  -0.275588  0  3.861617  0
C  C58  1  0.12389991  0.27371821  0.02221079  1  0  -0.240992  0  3.635427  0  0  -0.281537  0  3.883074  0  0  -0.286614  0  3.890412  0  0  -0.155463  -0.278083  0  3.878234  0
C  C59  1  0.87609878  0.72628352  0.97778888  1  0  -0.241028  0  3.635416  0  0  -0.281539  0  3.883008  0  0  -0.286613  0  3.890344  0  0  -0.155477  -0.278096  0  3.878152  0
O  O60  1  0.85034007  0.61767875  0.72267256  1  0  -0.641559  0  1.962816  0  0  -0.593927  0  2.185748  0  0  -0.619222  0  2.17953  0  0  -0.348679  -0.576229  0  2.189678  0
O  O61  1  0.14966083  0.38231652  0.27732892  1  0  -0.641542  0  1.962821  0  0  -0.593925  0  2.185765  0  0  -0.619225  0  2.179552  0  0  -0.348675  -0.57623  0  2.189695  0
O  O62  1  0.16841595  0.11747177  0.70839810  1  0  -0.832815  0  2.114032  0  0  -0.78893  0  2.36997  0  0  -0.816206  0  2.359662  0  0  -0.436208  -0.769019  0  2.376415  0
O  O63  1  0.83158406  0.88252480  0.29159917  1  0  -0.832776  0  2.114156  0  0  -0.788873  0  2.370067  0  0  -0.816149  0  2.359761  0  0  -0.436146  -0.768969  0  2.376513  0
O  O64  1  0.40669208  0.31373796  0.78960397  1  0  -0.648013  0  1.954683  0  0  -0.607262  0  2.188918  0  0  -0.632219  0  2.182169  0  0  -0.347181  -0.589695  0  2.193138  0
O  O65  1  0.59331750  0.68625476  0.21039220  1  0  -0.647774  0  1.954674  0  0  -0.607173  0  2.189032  0  0  -0.632125  0  2.182277  0  0  -0.347142  -0.589609  0  2.193253  0
O  O66  1  0.96675089  0.10731780  0.87113259  1  0  -0.727618  0  2.036604  0  0  -0.677746  0  2.28105  0  0  -0.704814  0  2.272449  0  0  -0.347249  -0.658408  0  2.286236  0
O  O67  1  0.03324648  0.89268394  0.12886700  1  0  -0.727579  0  2.036595  0  0  -0.677704  0  2.281049  0  0  -0.704782  0  2.272474  0  0  -0.347243  -0.658368  0  2.286234  0
O  O68  1  0.25068075  0.08773240  0.92079096  1  0  -0.704095  0  2.053898  0  0  -0.6556  0  2.304971  0  0  -0.682068  0  2.296655  0  0  -0.389198  -0.636617  0  2.310239  0
O  O69  1  0.74931627  0.91226803  0.07920923  1  0  -0.704051  0  2.054015  0  0  -0.655514  0  2.304993  0  0  -0.68198  0  2.296681  0  0  -0.38915  -0.636533  0  2.310258  0
O  O70  1  0.34521983  0.15958206  0.18585873  1  0  -0.807169  0  2.147639  0  0  -0.764053  0  2.409629  0  0  -0.792394  0  2.400219  0  0  -0.425542  -0.743548  0  2.4155  0
O  O71  1  0.65478016  0.84041450  0.81413995  1  0  -0.807082  0  2.14756  0  0  -0.764005  0  2.409565  0  0  -0.792345  0  2.400157  0  0  -0.425535  -0.743493  0  2.415436  0
O  O72  1  0.56201893  0.20917285  0.09476891  1  0  -0.696647  0  2.018766  0  0  -0.645667  0  2.252408  0  0  -0.67139  0  2.241094  0  0  -0.349705  -0.627487  0  2.259844  0
O  O73  1  0.43798073  0.79082242  0.90522896  1  0  -0.696684  0  2.018787  0  0  -0.645766  0  2.252462  0  0  -0.671489  0  2.241147  0  0  -0.349752  -0.627584  0  2.259898  0
O  O74  1  0.66107492  0.11615901  0.71262251  1  0  -0.805768  0  2.11169  0  0  -0.765586  0  2.376688  0  0  -0.793164  0  2.366642  0  0  -0.434581  -0.745342  0  2.382655  0
O  O75  1  0.33892475  0.88384143  0.28737713  1  0  -0.805826  0  2.111701  0  0  -0.765614  0  2.3767  0  0  -0.793198  0  2.366663  0  0  -0.434596  -0.745378  0  2.382671  0
O  O76  1  0.82193553  0.12026733  0.59165813  1  0  -0.689115  0  1.979047  0  0  -0.639785  0  2.20723  0  0  -0.665223  0  2.197927  0  0  -0.352571  -0.621925  0  2.213288  0
O  O77  1  0.17806611  0.87973571  0.40834252  1  0  -0.689114  0  1.979008  0  0  -0.639758  0  2.207205  0  0  -0.665195  0  2.197904  0  0  -0.352555  -0.621902  0  2.213263  0
O  O78  1  0.64714655  0.17187694  0.35597683  1  0  -0.740828  0  2.080892  0  0  -0.688525  0  2.322942  0  0  -0.716031  0  2.313262  0  0  -0.371699  -0.668839  0  2.329127  0
O  O79  1  0.35285444  0.82812351  0.64402289  1  0  -0.740725  0  2.080925  0  0  -0.688465  0  2.322902  0  0  -0.715969  0  2.313225  0  0  -0.371674  -0.668777  0  2.329088  0
O  O80  1  0.38908005  0.23054182  0.39907885  1  0  -0.703937  0  2.032152  0  0  -0.663222  0  2.282027  0  0  -0.689736  0  2.273051  0  0  -0.382679  -0.644337  0  2.287661  0
O  O81  1  0.61092032  0.76946122  0.60091960  1  0  -0.703913  0  2.032171  0  0  -0.66324  0  2.281973  0  0  -0.689762  0  2.273017  0  0  -0.382703  -0.644342  0  2.287597  0
O  O82  1  0.00958446  0.81208008  0.57495719  1  0  -0.892972  0  1.848726  0  0  -0.858147  0  2.029958  0  0  -0.876668  0  1.997965  0  0  -0.640971  -0.844661  0  2.052479  0
O  O83  1  0.99041485  0.18791907  0.42504305  1  0  -0.89296  0  1.848722  0  0  -0.858138  0  2.029982  0  0  -0.87666  0  1.997988  0  0  -0.640979  -0.844657  0  2.052501  0
O  O84  1  0.65141065  0.17979148  0.91631977  1  0  -0.902882  0  1.850351  0  0  -0.862945  0  2.040138  0  0  -0.882919  0  2.007591  0  0  -0.650323  -0.848313  0  2.06309  0
O  O85  1  0.34858898  0.82020896  0.08368128  1  0  -0.902866  0  1.850378  0  0  -0.862917  0  2.040152  0  0  -0.882892  0  2.007612  0  0  -0.650278  -0.848285  0  2.063104  0
O  O86  1  0.11605356  0.80056704  0.77704874  1  0  -0.820886  0  2.156264  0  0  -0.7796  0  2.418052  0  0  -0.806736  0  2.408128  0  0  -0.440041  -0.759809  0  2.424271  0
O  O87  1  0.88394542  0.19943082  0.22295138  1  0  -0.820909  0  2.156205  0  0  -0.779608  0  2.417997  0  0  -0.806744  0  2.408076  0  0  -0.440036  -0.759822  0  2.424215  0
