# generated using pymatgen
data_Zn3H16C23O16
_symmetry_space_group_name_H-M   'P 1'
_cell_length_a   11.74510114
_cell_length_b   15.46041129
_cell_length_c   16.50388186
_cell_angle_alpha   90.00002304
_cell_angle_beta   90.00009477
_cell_angle_gamma   90.00011413
_symmetry_Int_Tables_number   1
_chemical_formula_structural   Zn3H16C23O16
_chemical_formula_sum   'Zn6 H32 C46 O32'
_cell_volume   2996.84243821
_cell_formula_units_Z   2
loop_
 _symmetry_equiv_pos_site_id
 _symmetry_equiv_pos_as_xyz
  1  'x, y, z'
loop_
 _atom_site_type_symbol
 _atom_site_label
 _atom_site_symmetry_multiplicity
 _atom_site_fract_x
 _atom_site_fract_y
 _atom_site_fract_z
 _atom_site_occupancy
 _atom_site_pbe_bader_charge
 _atom_site_pbe_bader_spin_density
 _atom_site_pbe_cm5_charge
 _atom_site_pbe_ddec_charge
 _atom_site_pbe_ddec_spin_density
 _atom_site_pbe_ddec_sum_bond_order
 _atom_site_pbe_magmom
Zn  Zn0  1  0.59948688  0.17350491  0.10011440  1  1.313094  0  0.676343  0.957188  0  2.310136  0
Zn  Zn1  1  0.40051387  0.67350511  0.39988749  1  1.313061  0  0.676308  0.957159  0  2.310166  0
Zn  Zn2  1  0.40051070  0.67350192  0.60011493  1  1.313124  0  0.676419  0.95735  0  2.309973  0
Zn  Zn3  1  0.59948697  0.17349991  0.89988564  1  1.313162  0  0.676342  0.957265  0  2.310011  0
Zn  Zn4  1  0.34724365  0.11737230  0.00000265  1  1.386242  0  0.667076  1.056137  0  2.203039  0
Zn  Zn5  1  0.65275695  0.61737357  0.49999923  1  1.386278  0  0.667093  1.056202  0  2.203122  0
H  H6  1  0.55392804  0.05513091  0.00000094  1  0.584276  0  0.311325  0.395421  0  0.901022  0
H  H7  1  0.44607070  0.55513186  0.49999910  1  0.584259  0  0.31133  0.39542  0  0.901054  0
H  H8  1  0.33331734  0.95748191  0.07919265  1  0.610292  0  0.324443  0.400311  0  0.880131  0
H  H9  1  0.66667990  0.45748002  0.42080753  1  0.610261  0  0.32441  0.400273  0  0.880146  0
H  H10  1  0.66668009  0.45748005  0.57919148  1  0.610262  0  0.324409  0.400293  0  0.880128  0
H  H11  1  0.33332173  0.95747886  0.92080616  1  0.61026  0  0.324416  0.400293  0  0.880119  0
H  H12  1  0.40599073  0.02347642  0.13035321  1  0.694873  0  0.290018  0.408252  0  0.930821  0
H  H13  1  0.59400707  0.52347561  0.36964681  1  0.69484  0  0.290028  0.408298  0  0.930786  0
H  H14  1  0.59400823  0.52347631  0.63035154  1  0.694896  0  0.290017  0.408285  0  0.930779  0
H  H15  1  0.40599500  0.02347723  0.86964595  1  0.69489  0  0.290087  0.408424  0  0.930627  0
H  H16  1  0.12791392  0.08165964  0.04748225  1  0.620069  0  0.338665  0.41433  0  0.859321  0
H  H17  1  0.87208233  0.58165928  0.45251598  1  0.619971  0  0.338659  0.414332  0  0.859335  0
H  H18  1  0.87208074  0.58166448  0.54748030  1  0.620083  0  0.338716  0.414412  0  0.859309  0
H  H19  1  0.12791924  0.08166307  0.95251842  1  0.620035  0  0.338685  0.414351  0  0.859343  0
H  H20  1  0.46828963  0.38392615  0.22936760  1  0.153167  0  0.107505  0.121636  0  1.00818  0
H  H21  1  0.53171082  0.88392455  0.27063074  1  0.153145  0  0.107499  0.121682  0  1.008178  0
H  H22  1  0.53170880  0.88392594  0.72936161  1  0.153175  0  0.107488  0.121619  0  1.008197  0
H  H23  1  0.46828856  0.38392174  0.77063601  1  0.153168  0  0.107485  0.121621  0  1.008242  0
H  H24  1  0.16689781  0.54242430  0.24251829  1  0.132292  0  0.1131  0.135419  0  0.986362  0
H  H25  1  0.83310429  0.04242000  0.25747871  1  0.132275  0  0.113086  0.135459  0  0.986291  0
H  H26  1  0.83310231  0.04242204  0.74251490  1  0.132366  0  0.113102  0.135468  0  0.986309  0
H  H27  1  0.16689927  0.54242118  0.75748138  1  0.132342  0  0.113076  0.135489  0  0.986184  0
H  H28  1  0.16867510  0.31059408  0.09586791  1  0.123225  0  0.110195  0.13032  0  1.009908  0
H  H29  1  0.83131920  0.81059299  0.40413525  1  0.123252  0  0.110197  0.130329  0  1.0099  0
H  H30  1  0.83132453  0.81058786  0.59586712  1  0.123169  0  0.110214  0.130378  0  1.00988  0
H  H31  1  0.16867179  0.31058714  0.90413108  1  0.123089  0  0.110212  0.130383  0  1.009916  0
H  H32  1  0.12504969  0.48871888  0.99999823  1  0.088903  0  0.119412  0.149581  0  0.971617  0
H  H33  1  0.87495306  0.98871767  0.50000003  1  0.088942  0  0.119402  0.14953  0  0.971655  0
H  H34  1  0.87163635  0.34240296  0.13084494  1  0.098025  0  0.116301  0.14179  0  0.983456  0
H  H35  1  0.12837251  0.84240597  0.36915641  1  0.098048  0  0.116267  0.141715  0  0.983491  0
H  H36  1  0.12837026  0.84240602  0.63084454  1  0.097999  0  0.116304  0.141811  0  0.983471  0
H  H37  1  0.87163211  0.34240377  0.86915609  1  0.098041  0  0.116289  0.141753  0  0.983439  0
C  C38  1  0.32373646  0.33935606  0.16003654  1  0.00106  0  -0.0188  -0.017645  0  4.00019  0
C  C39  1  0.67626302  0.83935536  0.33996360  1  0.001131  0  -0.018829  -0.017646  0  4.000292  0
C  C40  1  0.67626425  0.83935413  0.66003497  1  0.001051  0  -0.018817  -0.017747  0  4.000446  0
C  C41  1  0.32373215  0.33935233  0.83996506  1  0.000985  0  -0.018728  -0.017466  0  4.000296  0
C  C42  1  0.38028442  0.39595681  0.21227399  1  -0.043786  0  -0.081802  -0.120916  0  3.937179  0
C  C43  1  0.61971521  0.89595470  0.28772375  1  -0.04381  0  -0.081833  -0.121047  0  3.937251  0
C  C44  1  0.61971315  0.89595674  0.71226872  1  -0.043726  0  -0.081807  -0.120848  0  3.937127  0
C  C45  1  0.38028595  0.39595241  0.78772952  1  -0.043703  0  -0.081926  -0.121021  0  3.937101  0
C  C46  1  0.32339530  0.46849818  0.24262986  1  0.018941  0  -0.020008  -0.019174  0  4.000746  0
C  C47  1  0.67660537  0.96849485  0.25736730  1  0.016899  0  -0.019965  -0.019093  0  4.000611  0
C  C48  1  0.67660423  0.96849690  0.74262768  1  0.019056  0  -0.019919  -0.019128  0  4.000608  0
C  C49  1  0.32339761  0.46849571  0.75737118  1  0.019025  0  -0.020002  -0.01915  0  4.00059  0
C  C50  1  0.21092373  0.48551381  0.21945040  1  -0.029623  0  -0.087446  -0.194611  0  3.925216  0
C  C51  1  0.78907954  0.98551001  0.28054797  1  -0.027583  0  -0.087448  -0.194695  0  3.925049  0
C  C52  1  0.78907495  0.98551334  0.71944593  1  -0.029708  0  -0.087446  -0.194668  0  3.925098  0
C  C53  1  0.21092524  0.48551135  0.78055173  1  -0.029594  0  -0.087471  -0.194837  0  3.924977  0
C  C54  1  0.15613224  0.42936389  0.16586176  1  0.36138  0  0.081603  0.252706  0  4.068645  0
C  C55  1  0.84386833  0.92936085  0.33413902  1  0.361428  0  0.081619  0.252752  0  4.068648  0
C  C56  1  0.84386532  0.92936092  0.66585735  1  0.361852  0  0.08154  0.252647  0  4.068675  0
C  C57  1  0.15613046  0.42935951  0.83413969  1  0.361455  0  0.081666  0.252843  0  4.068588  0
C  C58  1  0.21116782  0.35566278  0.13659411  1  -0.00691  0  -0.091277  -0.209019  0  3.941647  0
C  C59  1  0.78883086  0.85566226  0.36340785  1  -0.007068  0  -0.091249  -0.209021  0  3.941684  0
C  C60  1  0.78883033  0.85565908  0.63659267  1  -0.007  0  -0.091292  -0.209038  0  3.941832  0
C  C61  1  0.21116611  0.35565906  0.86340555  1  -0.006908  0  -0.091301  -0.209193  0  3.942002  0
C  C62  1  0.38343440  0.26129932  0.12736182  1  1.580234  0  0.226068  0.612148  0  4.163704  0
C  C63  1  0.61656658  0.76129789  0.37263829  1  1.580269  0  0.226146  0.612139  0  4.163755  0
C  C64  1  0.61657199  0.76129600  0.62736200  1  1.580917  0  0.226115  0.612148  0  4.16401  0
C  C65  1  0.38342420  0.26129236  0.87263921  1  1.580818  0  0.226095  0.612067  0  4.16419  0
C  C66  1  0.38499730  0.52820817  0.29918266  1  1.56346  0  0.211899  0.591073  0  4.207493  0
C  C67  1  0.61500477  0.02820674  0.20081676  1  1.563462  0  0.211894  0.591065  0  4.207461  0
C  C68  1  0.61500462  0.02821334  0.79917538  1  1.56332  0  0.211971  0.591059  0  4.207541  0
C  C69  1  0.38499607  0.52821084  0.70082211  1  1.56356  0  0.211866  0.590931  0  4.207687  0
C  C70  1  0.00256851  0.41841579  0.07276114  1  0.380703  0  0.083961  0.274335  0  4.074719  0
C  C71  1  0.99743118  0.91841561  0.42723963  1  0.380694  0  0.083984  0.274359  0  4.074657  0
C  C72  1  0.99743305  0.91841500  0.57276176  1  0.38067  0  0.083946  0.274326  0  4.074872  0
C  C73  1  0.00256611  0.41841469  0.92723890  1  0.380704  0  0.08401  0.274396  0  4.074718  0
C  C74  1  0.05119331  0.44609964  0.99999939  1  0.063377  0  -0.096744  -0.29726  0  3.941166  0
C  C75  1  0.94880762  0.94609920  0.50000128  1  0.063339  0  -0.096771  -0.297225  0  3.941203  0
C  C76  1  0.90826179  0.36397097  0.07372568  1  0.066988  0  -0.091936  -0.214944  0  3.938675  0
C  C77  1  0.09174031  0.86397588  0.42627568  1  0.066955  0  -0.091919  -0.214904  0  3.938621  0
C  C78  1  0.09174389  0.86397527  0.57372524  1  0.066924  0  -0.091918  -0.215028  0  3.938758  0
C  C79  1  0.90825854  0.36397051  0.92627662  1  0.066928  0  -0.091935  -0.214881  0  3.938724  0
C  C80  1  0.86151878  0.33659972  0.00000117  1  -0.037032  0  -0.013397  0.002939  0  4.002776  0
C  C81  1  0.13848580  0.83660344  0.50000018  1  -0.036824  0  -0.013351  0.003143  0  4.002614  0
C  C82  1  0.76314321  0.27497709  0.00000353  1  1.565276  0  0.227743  0.603255  0  4.175167  0
C  C83  1  0.23686206  0.77498355  0.50000083  1  1.565236  0  0.227599  0.602979  0  4.175687  0
O  O84  1  0.32452546  0.20669593  0.08841943  1  -1.179751  0  -0.316418  -0.559261  0  2.339377  0
O  O85  1  0.67547793  0.70669396  0.41158370  1  -1.179891  0  -0.316428  -0.55923  0  2.33943  0
O  O86  1  0.67548409  0.70669076  0.58841906  1  -1.179921  0  -0.316421  -0.559258  0  2.339456  0
O  O87  1  0.32450600  0.20669029  0.91158213  1  -1.179965  0  -0.316398  -0.559169  0  2.339313  0
O  O88  1  0.49049521  0.25671414  0.14152825  1  -1.178214  0  -0.319901  -0.551538  0  2.345312  0
O  O89  1  0.50950405  0.75671190  0.35847307  1  -1.17817  0  -0.319934  -0.551522  0  2.345301  0
O  O90  1  0.50950949  0.75670808  0.64152345  1  -1.178798  0  -0.319926  -0.551552  0  2.345406  0
O  O91  1  0.49048414  0.25670395  0.85847776  1  -1.178659  0  -0.319897  -0.551535  0  2.345606  0
O  O92  1  0.48874183  0.51461741  0.31328122  1  -1.209516  0  -0.323916  -0.572611  0  2.206195  0
O  O93  1  0.51125935  0.01461517  0.18671759  1  -1.209492  0  -0.323959  -0.572658  0  2.206112  0
O  O94  1  0.51126434  0.01463083  0.81327442  1  -1.209531  0  -0.324034  -0.572659  0  2.206255  0
O  O95  1  0.48873631  0.51462202  0.68671822  1  -1.20954  0  -0.323943  -0.572576  0  2.206311  0
O  O96  1  0.32527891  0.59044839  0.32979907  1  -1.157836  0  -0.333902  -0.567896  0  2.309975  0
O  O97  1  0.67471992  0.09044769  0.17020219  1  -1.157851  0  -0.333889  -0.567887  0  2.310058  0
O  O98  1  0.67473091  0.09045301  0.82979125  1  -1.157757  0  -0.33394  -0.567937  0  2.309934  0
O  O99  1  0.32527420  0.59045234  0.67021293  1  -1.157954  0  -0.333869  -0.567824  0  2.30996  0
O  O100  1  0.04425666  0.44867700  0.14634265  1  -1.09661  0  -0.164821  -0.227845  0  2.523396  0
O  O101  1  0.95574311  0.94867608  0.35365814  1  -1.096509  0  -0.164841  -0.227867  0  2.523342  0
O  O102  1  0.95574260  0.94867549  0.64634140  1  -1.096953  0  -0.16481  -0.227811  0  2.523379  0
O  O103  1  0.04425578  0.44867586  0.85365746  1  -1.096594  0  -0.164855  -0.227872  0  2.523391  0
O  O104  1  0.72580770  0.25079920  0.06882731  1  -1.17338  0  -0.315027  -0.545162  0  2.342644  0
O  O105  1  0.27419666  0.75080439  0.43117886  1  -1.173436  0  -0.315027  -0.545144  0  2.342758  0
O  O106  1  0.27419512  0.75079989  0.56882163  1  -1.173505  0  -0.315061  -0.545179  0  2.342652  0
O  O107  1  0.72580871  0.25079680  0.93118261  1  -1.17353  0  -0.315172  -0.545368  0  2.342505  0
O  O108  1  0.53149323  0.11576834  0.00000154  1  -1.210482  0  -0.551566  -0.890042  0  2.320822  0
O  O109  1  0.46850396  0.61576933  0.50000154  1  -1.21046  0  -0.551606  -0.890135  0  2.320956  0
O  O110  1  0.33879841  0.01872811  0.09171317  1  -1.274153  0  -0.57506  -0.79  0  2.066544  0
O  O111  1  0.66119938  0.51872676  0.40828806  1  -1.274074  0  -0.575053  -0.790035  0  2.066461  0
O  O112  1  0.66120045  0.51872745  0.59171097  1  -1.274117  0  -0.575026  -0.790038  0  2.06649  0
O  O113  1  0.33880447  0.01872764  0.90828833  1  -1.274076  0  -0.575108  -0.790186  0  2.066399  0
O  O114  1  0.15720952  0.11161358  0.00000254  1  -1.176499  0  -0.543245  -0.717612  0  2.047479  0
O  O115  1  0.84278851  0.61161384  0.49999631  1  -1.176447  0  -0.543257  -0.71767  0  2.047476  0
