# generated using pymatgen
data_H10PbC12NO5
_symmetry_space_group_name_H-M   'P 1'
_cell_length_a   7.17875537
_cell_length_b   9.02952182
_cell_length_c   9.92262844
_cell_angle_alpha   79.29484784
_cell_angle_beta   71.29957462
_cell_angle_gamma   86.29370377
_symmetry_Int_Tables_number   1
_chemical_formula_structural   H10PbC12NO5
_chemical_formula_sum   'H20 Pb2 C24 N2 O10'
_cell_volume   598.62451538
_cell_formula_units_Z   2
loop_
 _symmetry_equiv_pos_site_id
 _symmetry_equiv_pos_as_xyz
  1  'x, y, z'
loop_
 _atom_site_type_symbol
 _atom_site_label
 _atom_site_symmetry_multiplicity
 _atom_site_fract_x
 _atom_site_fract_y
 _atom_site_fract_z
 _atom_site_occupancy
 _atom_site_pbe_bader_spin_density
 _atom_site_pbe_cm5_charge
 _atom_site_pbe_ddec_charge
 _atom_site_pbe_ddec_spin_density
 _atom_site_pbe_ddec_sum_bond_order
 _atom_site_pbe_magmom
H  H0  1  0.50233877  0.85617591  0.29704755  1  0  0.303849  0.406951  0  0.909605  0
H  H1  1  0.49765083  0.14384159  0.70295463  1  0  0.303912  0.407108  0  0.909468  0
H  H2  1  0.27273672  0.83497832  0.32215126  1  0  0.296251  0.398558  0  0.93159  0
H  H3  1  0.72724986  0.16504138  0.67785123  1  0  0.296286  0.398528  0  0.931598  0
H  H4  1  0.70127850  0.88166960  0.89035835  1  0  0.097128  0.145804  0  1.010201  0
H  H5  1  0.29871064  0.11831971  0.10964761  1  0  0.09715  0.145876  0  1.010156  0
H  H6  1  0.93472991  0.90861315  0.90587295  1  0  0.094572  0.14548  0  0.988149  0
H  H7  1  0.06526037  0.09138747  0.09412685  1  0  0.094572  0.145474  0  0.988185  0
H  H8  1  0.75274875  0.80040520  0.05200904  1  0  0.096106  0.15344  0  1.021769  0
H  H9  1  0.24725351  0.19958771  0.94799338  1  0  0.096106  0.153445  0  1.021825  0
H  H10  1  0.69507045  0.26505173  0.07979430  1  0  0.093953  0.145526  0  1.015927  0
H  H11  1  0.30492730  0.73494676  0.92020216  1  0  0.093929  0.145509  0  1.015921  0
H  H12  1  0.74033617  0.19884220  0.91390535  1  0  0.092472  0.141001  0  1.01028  0
H  H13  1  0.25966311  0.80115406  0.08609214  1  0  0.092453  0.140979  0  1.010337  0
H  H14  1  0.54833723  0.33291748  0.96885164  1  0  0.095102  0.140871  0  1.046232  0
H  H15  1  0.45166365  0.66707656  0.03114284  1  0  0.095087  0.140883  0  1.046199  0
H  H16  1  0.19362760  0.52979821  0.43211934  1  0  0.097067  0.102408  0  1.054255  0
H  H17  1  0.80637744  0.47019926  0.56788171  1  0  0.097071  0.102387  0  1.054366  0
H  H18  1  0.51348695  0.48108318  0.24975329  1  0  0.106073  0.112402  0  1.010615  0
H  H19  1  0.48651674  0.51890634  0.75025845  1  0  0.106002  0.112346  0  1.010428  0
Pb  Pb20  1  0.25458182  0.12263869  0.45604812  1  0  0.67081  1.145379  0  1.778974  0
Pb  Pb21  1  0.74542046  0.87735649  0.54394787  1  0  0.670795  1.145365  0  1.778886  0
C  C22  1  0.88858890  0.68391451  0.87598392  1  0  0.121914  0.280949  0  4.01602  0
C  C23  1  0.11140731  0.31608507  0.12401472  1  0  0.121891  0.280914  0  4.0161  0
C  C24  1  0.06285631  0.68094974  0.75883960  1  0  -0.020142  -0.209057  0  3.950467  0
C  C25  1  0.93714289  0.31904990  0.24115533  1  0  -0.020101  -0.208914  0  3.950204  0
C  C26  1  0.13068103  0.54287455  0.71558180  1  0  0.017795  0.086723  0  3.961428  0
C  C27  1  0.86931204  0.45712722  0.28442423  1  0  0.017839  0.086633  0  3.961561  0
C  C28  1  0.01111775  0.41523044  0.78007706  1  0  -0.013672  -0.176738  0  3.887437  0
C  C29  1  0.98888859  0.58477269  0.21992073  1  0  -0.013659  -0.176633  0  3.887356  0
C  C30  1  0.83551193  0.42785288  0.89277080  1  0  0.126094  0.306135  0  3.961268  0
C  C31  1  0.16448725  0.57214563  0.10722735  1  0  0.126059  0.306034  0  3.961402  0
C  C32  1  0.81613166  0.82648177  0.93412279  1  0  -0.243617  -0.461187  0  3.922576  0
C  C33  1  0.18386312  0.17351553  0.06587857  1  0  -0.243641  -0.461302  0  3.92271  0
C  C34  1  0.16187439  0.82448378  0.67154445  1  0  0.228198  0.617413  0  4.17072  0
C  C35  1  0.83812905  0.17551818  0.32845419  1  0  0.228175  0.617379  0  4.170593  0
C  C36  1  0.07066194  0.27718644  0.71056042  1  0  0.214707  0.591088  0  4.218658  0
C  C37  1  0.92934170  0.72280989  0.28943911  1  0  0.214706  0.591149  0  4.218399  0
C  C38  1  0.69875994  0.29785506  0.96649214  1  0  -0.245727  -0.457188  0  3.906985  0
C  C39  1  0.30124078  0.70214235  0.03350484  1  0  -0.245658  -0.457138  0  3.906989  0
C  C40  1  0.32094942  0.52730091  0.60219669  1  0  -0.010618  0.071918  0  3.998535  0
C  C41  1  0.67906748  0.47269337  0.39780324  1  0  -0.010598  0.071863  0  3.998488  0
C  C42  1  0.32769874  0.51431804  0.46216801  1  0  -0.097446  -0.15243  0  4.007802  0
C  C43  1  0.67230325  0.48567708  0.53784520  1  0  -0.097503  -0.152448  0  4.007935  0
C  C44  1  0.50594476  0.48725013  0.36020351  1  0  -0.08674  -0.125643  0  3.982103  0
C  C45  1  0.49405473  0.51274050  0.63979386  1  0  -0.086602  -0.125491  0  3.982406  0
N  N46  1  0.78259264  0.55871938  0.94210951  1  0  -0.311757  -0.356425  0  3.257904  0
N  N47  1  0.21740648  0.44128026  0.05788947  1  0  -0.311723  -0.356311  0  3.257858  0
O  O48  1  0.05208191  0.91629025  0.61230565  1  0  -0.274739  -0.55365  0  2.318791  0
O  O49  1  0.94792581  0.08371515  0.38769247  1  0  -0.274776  -0.55366  0  2.318729  0
O  O50  1  0.33714893  0.85477129  0.65334232  1  0  -0.286904  -0.580976  0  2.239161  0
O  O51  1  0.66285327  0.14522388  0.34665874  1  0  -0.286882  -0.580979  0  2.239124  0
O  O52  1  0.22875513  0.20658811  0.71200880  1  0  -0.296275  -0.564697  0  2.193013  0
O  O53  1  0.77124394  0.79341151  0.28799322  1  0  -0.296251  -0.564716  0  2.192942  0
O  O54  1  0.96358528  0.24718941  0.63745711  1  0  -0.302834  -0.583281  0  2.235055  0
O  O55  1  0.03641516  0.75281135  0.36254845  1  0  -0.302851  -0.583332  0  2.23493  0
O  O56  1  0.37732660  0.90976400  0.30242945  1  0  -0.561642  -0.770782  0  1.988311  0
O  O57  1  0.62266013  0.09025233  0.69757155  1  0  -0.561767  -0.77094  0  1.988255  0
