# generated using pymatgen
data_CdH6C8S2N4O
_symmetry_space_group_name_H-M   'P 1'
_cell_length_a   9.09542728
_cell_length_b   10.53031158
_cell_length_c   12.07166288
_cell_angle_alpha   99.71368626
_cell_angle_beta   92.45548502
_cell_angle_gamma   92.06513074
_symmetry_Int_Tables_number   1
_chemical_formula_structural   CdH6C8S2N4O
_chemical_formula_sum   'Cd4 H24 C32 S8 N16 O4'
_cell_volume   1137.47399955
_cell_formula_units_Z   4
loop_
 _symmetry_equiv_pos_site_id
 _symmetry_equiv_pos_as_xyz
  1  'x, y, z'
loop_
 _atom_site_type_symbol
 _atom_site_label
 _atom_site_symmetry_multiplicity
 _atom_site_fract_x
 _atom_site_fract_y
 _atom_site_fract_z
 _atom_site_occupancy
 _atom_site_hle17_bader_spin_density
 _atom_site_hle17_ddec_charge
 _atom_site_hle17_ddec_spin_density
 _atom_site_hle17_ddec_sum_bond_order
 _atom_site_hle17_magmom
 _atom_site_hse06_10hf_bader_spin_density
 _atom_site_hse06_10hf_ddec_charge
 _atom_site_hse06_10hf_ddec_spin_density
 _atom_site_hse06_10hf_ddec_sum_bond_order
 _atom_site_hse06_10hf_magmom
 _atom_site_hse06_bader_spin_density
 _atom_site_hse06_ddec_charge
 _atom_site_hse06_ddec_spin_density
 _atom_site_hse06_ddec_sum_bond_order
 _atom_site_hse06_magmom
 _atom_site_pbe_bader_spin_density
 _atom_site_pbe_cm5_charge
 _atom_site_pbe_ddec_charge
 _atom_site_pbe_ddec_spin_density
 _atom_site_pbe_ddec_sum_bond_order
 _atom_site_pbe_magmom
Cd  Cd0  1  0.75619982  0.35480820  0.03440482  1  0  0.976052  0  1.98816  0  0  0.806803  0  2.455908  0  0  0.850727  0  2.41807  0  0  0.714552  0.776802  0  2.480563  0
Cd  Cd1  1  0.24380140  0.64519245  0.96559602  1  0  0.976073  0  1.98813  0  0  0.806832  0  2.455871  0  0  0.850756  0  2.418034  0  0  0.714583  0.776833  0  2.480529  0
Cd  Cd2  1  0.75339119  0.83954035  0.47526761  1  0  0.985779  0  1.956356  0  0  0.809633  0  2.425813  0  0  0.855213  0  2.387301  0  0  0.715236  0.778556  0  2.451339  0
Cd  Cd3  1  0.24661640  0.16045735  0.52473044  1  0  0.985791  0  1.956296  0  0  0.809673  0  2.425724  0  0  0.855258  0  2.387202  0  0  0.715237  0.77859  0  2.451253  0
H  H4  1  0.66988081  0.87433171  0.11922541  1  0  0.099582  0  0.991361  0  0  0.106833  0  1.059643  0  0  0.10994  0  1.058056  0  0  0.099282  0.105058  0  1.060192  0
H  H5  1  0.33012607  0.12567087  0.88077829  1  0  0.099619  0  0.991278  0  0  0.106896  0  1.059533  0  0  0.110003  0  1.057948  0  0  0.099301  0.105122  0  1.060081  0
H  H6  1  0.78482752  0.75763882  0.95126430  1  0  0.106595  0  0.952539  0  0  0.115001  0  1.013504  0  0  0.117159  0  1.01271  0  0  0.106922  0.113447  0  1.014097  0
H  H7  1  0.21517144  0.24236087  0.04873636  1  0  0.10667  0  0.95252  0  0  0.115067  0  1.013478  0  0  0.117227  0  1.01268  0  0  0.106964  0.113496  0  1.014093  0
H  H8  1  0.88699559  0.88444120  0.81075201  1  0  0.115286  0  0.947249  0  0  0.124694  0  1.004922  0  0  0.127529  0  1.004175  0  0  0.108899  0.122925  0  1.005024  0
H  H9  1  0.11299669  0.11555850  0.18924521  1  0  0.115232  0  0.947352  0  0  0.124668  0  1.004986  0  0  0.127503  0  1.004241  0  0  0.108879  0.122897  0  1.005086  0
H  H10  1  0.87317623  0.12521933  0.84871909  1  0  0.07148  0  0.976587  0  0  0.074948  0  1.052281  0  0  0.077307  0  1.05081  0  0  0.100934  0.073325  0  1.053261  0
H  H11  1  0.12681610  0.87478133  0.15127827  1  0  0.07153  0  0.976604  0  0  0.075003  0  1.052274  0  0  0.077362  0  1.050804  0  0  0.100986  0.073379  0  1.053255  0
H  H12  1  0.51725295  0.13820865  0.30569148  1  0  0.35454  0  0.896619  0  0  0.33429  0  0.958626  0  0  0.343229  0  0.951283  0  0  0.305315  0.327932  0  0.963921  0
H  H13  1  0.48274481  0.86179008  0.69430737  1  0  0.354571  0  0.896648  0  0  0.334314  0  0.958663  0  0  0.343252  0  0.951324  0  0  0.305352  0.327953  0  0.963958  0
H  H14  1  0.55859867  0.98472595  0.23482404  1  0  0.31658  0  0.935732  0  0  0.293594  0  1.01302  0  0  0.300519  0  1.008525  0  0  0.288918  0.288716  0  1.016179  0
H  H15  1  0.44139917  0.01527374  0.76517578  1  0  0.316602  0  0.935691  0  0  0.29361  0  1.012986  0  0  0.300535  0  1.00849  0  0  0.288911  0.288731  0  1.016146  0
H  H16  1  0.66745558  0.36899416  0.58782702  1  0  0.088792  0  1.01929  0  0  0.094953  0  1.090977  0  0  0.097818  0  1.090249  0  0  0.092949  0.092857  0  1.091515  0
H  H17  1  0.33253911  0.63100749  0.41217467  1  0  0.088775  0  1.019316  0  0  0.094948  0  1.090992  0  0  0.09781  0  1.090269  0  0  0.092942  0.092857  0  1.09152  0
H  H18  1  0.82897176  0.24931660  0.44979846  1  0  0.111399  0  0.941105  0  0  0.120595  0  0.999739  0  0  0.122763  0  0.998921  0  0  0.110828  0.119021  0  1.000366  0
H  H19  1  0.17102956  0.75068408  0.55020653  1  0  0.111403  0  0.941084  0  0  0.120609  0  0.999719  0  0  0.122777  0  0.998902  0  0  0.110832  0.119037  0  1.000348  0
H  H20  1  0.96247363  0.36955027  0.31881484  1  0  0.114572  0  0.940137  0  0  0.123786  0  0.99919  0  0  0.126458  0  0.998612  0  0  0.110393  0.122106  0  0.999156  0
H  H21  1  0.03752988  0.63044945  0.68119171  1  0  0.114511  0  0.940197  0  0  0.123724  0  0.999252  0  0  0.126395  0  0.998676  0  0  0.110373  0.122043  0  0.999216  0
H  H22  1  0.93486125  0.60823340  0.33766038  1  0  0.075584  0  0.961692  0  0  0.081546  0  1.032936  0  0  0.083784  0  1.031246  0  0  0.1031  0.079808  0  1.03429  0
H  H23  1  0.06514214  0.39176534  0.66234354  1  0  0.075706  0  0.961516  0  0  0.081645  0  1.03277  0  0  0.083883  0  1.031082  0  0  0.103177  0.079913  0  1.034116  0
H  H24  1  0.47192714  0.63160239  0.73755733  1  0  0.356343  0  0.89805  0  0  0.335256  0  0.962203  0  0  0.344453  0  0.954457  0  0  0.304353  0.328791  0  0.967703  0
H  H25  1  0.52806857  0.36839923  0.26244106  1  0  0.356429  0  0.898024  0  0  0.335226  0  0.962336  0  0  0.344496  0  0.954474  0  0  0.304328  0.328762  0  0.967831  0
H  H26  1  0.56378532  0.48728088  0.70020604  1  0  0.324956  0  0.913954  0  0  0.302241  0  0.989823  0  0  0.309525  0  0.984245  0  0  0.296247  0.297659  0  0.992978  0
H  H27  1  0.43621268  0.51272171  0.29979419  1  0  0.324948  0  0.913878  0  0  0.302236  0  0.989736  0  0  0.309521  0  0.984156  0  0  0.296254  0.297653  0  0.992895  0
C  C28  1  0.91981662  0.52257081  0.86654048  1  0  0.294074  0  4.003672  0  0  0.275951  0  4.304515  0  0  0.297107  0  4.319404  0  0  0.14368  0.261666  0  4.294581  0
C  C29  1  0.08018361  0.47743273  0.13345909  1  0  0.293959  0  4.003764  0  0  0.275834  0  4.304621  0  0  0.29699  0  4.319511  0  0  0.143623  0.26155  0  4.294684  0
C  C30  1  0.58884223  0.63104673  0.07169642  1  0  0.29488  0  4.013953  0  0  0.275423  0  4.313879  0  0  0.296348  0  4.328717  0  0  0.142709  0.261224  0  4.303401  0
C  C31  1  0.41116132  0.36895490  0.92830792  1  0  0.294973  0  4.014059  0  0  0.275511  0  4.313989  0  0  0.296435  0  4.328828  0  0  0.142743  0.261308  0  4.303511  0
C  C32  1  0.71269991  0.06218986  0.07363059  1  0  0.091701  0  3.741074  0  0  0.098404  0  3.974846  0  0  0.098608  0  3.996197  0  0  0.112289  0.098143  0  3.960497  0
C  C33  1  0.28729918  0.93781177  0.92637118  1  0  0.091863  0  3.741144  0  0  0.098527  0  3.9749  0  0  0.09873  0  3.996248  0  0  0.112311  0.098269  0  3.960555  0
C  C34  1  0.71517515  0.92807187  0.05830823  1  0  -0.111564  0  3.715208  0  0  -0.135364  0  3.963143  0  0  -0.139634  0  3.984606  0  0  -0.07686  -0.132803  0  3.948593  0
C  C35  1  0.28482834  0.07192974  0.94169362  1  0  -0.111651  0  3.715187  0  0  -0.135477  0  3.963142  0  0  -0.139747  0  3.984604  0  0  -0.076881  -0.132914  0  3.948588  0
C  C36  1  0.77903330  0.86208470  0.96353943  1  0  0.012356  0  3.671627  0  0  -0.005569  0  3.920626  0  0  -0.003075  0  3.938274  0  0  -0.061156  -0.006865  0  3.908335  0
C  C37  1  0.22096573  0.13791691  0.03645985  1  0  0.01236  0  3.671603  0  0  -0.005555  0  3.920613  0  0  -0.003062  0  3.938256  0  0  -0.061157  -0.006837  0  3.90833  0
C  C38  1  0.83687505  0.93194472  0.88617459  1  0  -0.089234  0  3.674427  0  0  -0.102622  0  3.921659  0  0  -0.107394  0  3.94134  0  0  -0.072656  -0.099439  0  3.907927  0
C  C39  1  0.16312069  0.06805785  0.11382311  1  0  -0.089159  0  3.674412  0  0  -0.102558  0  3.921607  0  0  -0.107331  0  3.94129  0  0  -0.072609  -0.099369  0  3.907864  0
C  C40  1  0.82935891  0.06602394  0.90679520  1  0  0.134039  0  3.690695  0  0  0.103108  0  3.943723  0  0  0.108957  0  3.961985  0  0  0.04881  0.099365  0  3.930895  0
C  C41  1  0.17063777  0.93397573  0.09320211  1  0  0.133971  0  3.690642  0  0  0.103042  0  3.943674  0  0  0.10889  0  3.961937  0  0  0.048756  0.0993  0  3.930846  0
C  C42  1  0.64659867  0.14205510  0.17301988  1  0  0.600013  0  3.804221  0  0  0.550438  0  4.083935  0  0  0.580549  0  4.082202  0  0  0.252324  0.530156  0  4.084633  0
C  C43  1  0.35340034  0.85794556  0.82698092  1  0  0.599825  0  3.804458  0  0  0.550356  0  4.084026  0  0  0.58047  0  4.082288  0  0  0.252252  0.530068  0  4.084732  0
C  C44  1  0.39868433  0.88909368  0.40310370  1  0  0.318482  0  3.957857  0  0  0.301303  0  4.24934  0  0  0.323281  0  4.262863  0  0  0.152157  0.286483  0  4.239763  0
C  C45  1  0.60132616  0.11090010  0.59688639  1  0  0.318391  0  3.957931  0  0  0.301207  0  4.249402  0  0  0.323183  0  4.262926  0  0  0.152107  0.286389  0  4.23982  0
C  C46  1  0.98472342  0.01039960  0.35812223  1  0  0.309991  0  3.969921  0  0  0.292297  0  4.268846  0  0  0.313314  0  4.283719  0  0  0.151366  0.278093  0  4.258602  0
C  C47  1  0.01528225  0.98960199  0.64187882  1  0  0.309979  0  3.969941  0  0  0.292289  0  4.268856  0  0  0.313307  0  4.283723  0  0  0.151328  0.278085  0  4.258614  0
C  C48  1  0.71470997  0.55282794  0.53469803  1  0  0.086854  0  3.752135  0  0  0.093856  0  3.986871  0  0  0.094288  0  4.008427  0  0  0.110388  0.093353  0  3.972739  0
C  C49  1  0.28528575  0.44717273  0.46530272  1  0  0.086782  0  3.752103  0  0  0.093793  0  3.986898  0  0  0.094212  0  4.00845  0  0  0.110356  0.093288  0  3.972768  0
C  C50  1  0.72749043  0.42052754  0.53174105  1  0  -0.110547  0  3.701206  0  0  -0.133955  0  3.94846  0  0  -0.138594  0  3.969967  0  0  -0.079026  -0.131061  0  3.934505  0
C  C51  1  0.27250753  0.57947313  0.46826139  1  0  -0.110515  0  3.701277  0  0  -0.133933  0  3.948544  0  0  -0.138569  0  3.970051  0  0  -0.079002  -0.131038  0  3.934599  0
C  C52  1  0.81704644  0.35251673  0.45360902  1  0  0.017075  0  3.65403  0  0  -0.000197  0  3.903697  0  0  0.002791  0  3.920246  0  0  -0.057899  -0.002071  0  3.892523  0
C  C53  1  0.18295584  0.64748295  0.54639253  1  0  0.017076  0  3.654085  0  0  -0.00022  0  3.903774  0  0  0.00277  0  3.920324  0  0  -0.05789  -0.002097  0  3.892605  0
C  C54  1  0.89223714  0.41889586  0.38153033  1  0  -0.075671  0  3.673012  0  0  -0.093612  0  3.928565  0  0  -0.098104  0  3.94818  0  0  -0.070664  -0.090705  0  3.915157  0
C  C55  1  0.10776415  0.58110387  0.61847535  1  0  -0.075587  0  3.673005  0  0  -0.0935  0  3.92854  0  0  -0.097996  0  3.948158  0  0  -0.070637  -0.090595  0  3.915141  0
C  C56  1  0.87559050  0.55138013  0.39056517  1  0  0.127123  0  3.709153  0  0  0.096849  0  3.965395  0  0  0.102743  0  3.984126  0  0  0.045858  0.093052  0  3.952711  0
C  C57  1  0.12441185  0.44861957  0.60943887  1  0  0.126932  0  3.708956  0  0  0.096681  0  3.965219  0  0  0.102574  0  3.983949  0  0  0.045742  0.092882  0  3.952524  0
C  C58  1  0.61623690  0.63361437  0.61271686  1  0  0.592174  0  3.81621  0  0  0.544199  0  4.094387  0  0  0.57389  0  4.093672  0  0  0.249603  0.524137  0  4.094465  0
C  C59  1  0.38375648  0.36638532  0.38728038  1  0  0.592284  0  3.81617  0  0  0.544241  0  4.09443  0  0  0.573954  0  4.093691  0  0  0.249577  0.524179  0  4.094509  0
S  S60  1  0.80620625  0.39826698  0.82577950  1  0  -0.332819  0  2.209517  0  0  -0.300652  0  2.545981  0  0  -0.318912  0  2.541652  0  0  -0.136278  -0.288582  0  2.548901  0
S  S61  1  0.19379182  0.60173657  0.17422169  1  0  -0.332722  0  2.20949  0  0  -0.300563  0  2.545967  0  0  -0.318825  0  2.541645  0  0  -0.13623  -0.288489  0  2.548887  0
S  S62  1  0.72650895  0.59238995  0.14850612  1  0  -0.312124  0  2.222809  0  0  -0.268729  0  2.56222  0  0  -0.287521  0  2.557533  0  0  -0.135263  -0.255606  0  2.564418  0
S  S63  1  0.27349335  0.40760974  0.85149626  1  0  -0.312118  0  2.222757  0  0  -0.268708  0  2.562145  0  0  -0.287501  0  2.557461  0  0  -0.135249  -0.255582  0  2.564343  0
S  S64  1  0.50384802  0.79137534  0.32515012  1  0  -0.363306  0  2.223246  0  0  -0.328563  0  2.561083  0  0  -0.344664  0  2.552458  0  0  -0.137199  -0.317134  0  2.565922  0
S  S65  1  0.49616251  0.20861656  0.67484551  1  0  -0.363371  0  2.223147  0  0  -0.328624  0  2.560972  0  0  -0.344723  0  2.552347  0  0  -0.137252  -0.317197  0  2.565812  0
S  S66  1  0.90508176  0.87262105  0.29905528  1  0  -0.346117  0  2.272188  0  0  -0.315671  0  2.62092  0  0  -0.334498  0  2.617275  0  0  -0.135623  -0.302896  0  2.623146  0
S  S67  1  0.09492709  0.12737860  0.70094473  1  0  -0.346105  0  2.272177  0  0  -0.315668  0  2.620929  0  0  -0.334507  0  2.617306  0  0  -0.135602  -0.302894  0  2.623158  0
N  N68  1  0.00151495  0.61399903  0.89346632  1  0  -0.534966  0  2.838995  0  0  -0.483529  0  3.108219  0  0  -0.503106  0  3.11446  0  0  -0.392345  -0.470503  0  3.103497  0
N  N69  1  0.99848633  0.38600353  0.10653313  1  0  -0.534934  0  2.839072  0  0  -0.483491  0  3.108292  0  0  -0.503068  0  3.114535  0  0  -0.392326  -0.470459  0  3.103563  0
N  N70  1  0.49230802  0.66440001  0.01611704  1  0  -0.53259  0  2.885483  0  0  -0.482417  0  3.160384  0  0  -0.502731  0  3.169064  0  0  -0.395788  -0.468787  0  3.154212  0
N  N71  1  0.50769446  0.33560164  0.98388811  1  0  -0.532693  0  2.885682  0  0  -0.482519  0  3.160604  0  0  -0.502833  0  3.169281  0  0  -0.395805  -0.468886  0  3.154428  0
N  N72  1  0.76973977  0.12928644  0.99855814  1  0  -0.320637  0  3.264917  0  0  -0.250919  0  3.517496  0  0  -0.267733  0  3.537342  0  0  -0.320586  -0.239204  0  3.50324  0
N  N73  1  0.23025806  0.87071419  0.00143932  1  0  -0.320728  0  3.264983  0  0  -0.251021  0  3.517581  0  0  -0.267833  0  3.537423  0  0  -0.320649  -0.239306  0  3.503327  0
N  N74  1  0.56941374  0.08244811  0.24186488  1  0  -0.652127  0  3.124597  0  0  -0.611468  0  3.356904  0  0  -0.635105  0  3.353505  0  0  -0.553849  -0.595279  0  3.359183  0
N  N75  1  0.43058518  0.91755158  0.75813412  1  0  -0.652144  0  3.124656  0  0  -0.611504  0  3.356908  0  0  -0.635143  0  3.353513  0  0  -0.553882  -0.595311  0  3.359189  0
N  N76  1  0.32248245  0.95922203  0.45943089  1  0  -0.514201  0  2.863014  0  0  -0.45443  0  3.128893  0  0  -0.476602  0  3.137377  0  0  -0.386817  -0.439597  0  3.123269  0
N  N77  1  0.67753166  0.04077752  0.54056009  1  0  -0.514029  0  2.863212  0  0  -0.45424  0  3.129037  0  0  -0.476412  0  3.137526  0  0  -0.386711  -0.439408  0  3.123404  0
N  N78  1  0.04390704  0.11145722  0.39627963  1  0  -0.531872  0  2.813064  0  0  -0.482641  0  3.080621  0  0  -0.501941  0  3.086684  0  0  -0.392189  -0.469358  0  3.075799  0
N  N79  1  0.95609546  0.88854632  0.60372247  1  0  -0.53186  0  2.813039  0  0  -0.482628  0  3.080587  0  0  -0.501928  0  3.086648  0  0  -0.392174  -0.469349  0  3.075773  0
N  N80  1  0.78816442  0.61638568  0.46467296  1  0  -0.338633  0  3.296521  0  0  -0.270719  0  3.553686  0  0  -0.288492  0  3.574787  0  0  -0.322952  -0.258718  0  3.53918  0
N  N81  1  0.21183561  0.38361305  0.53532841  1  0  -0.338539  0  3.296405  0  0  -0.270628  0  3.553556  0  0  -0.288396  0  3.574656  0  0  -0.322914  -0.258624  0  3.539043  0
N  N82  1  0.54535865  0.57856938  0.68777103  1  0  -0.646319  0  3.119034  0  0  -0.608558  0  3.353724  0  0  -0.631764  0  3.350125  0  0  -0.549217  -0.592946  0  3.355768  0
N  N83  1  0.45463595  0.42143224  0.31222734  1  0  -0.646417  0  3.11887  0  0  -0.608522  0  3.35366  0  0  -0.631795  0  3.349937  0  0  -0.549161  -0.592915  0  3.355714  0
O  O84  1  0.66328693  0.26338428  0.18924304  1  0  -0.582912  0  2.054195  0  0  -0.51539  0  2.289335  0  0  -0.541027  0  2.28212  0  0  -0.295177  -0.498092  0  2.293833  0
O  O85  1  0.33670986  0.73661639  0.81075690  1  0  -0.58284  0  2.05427  0  0  -0.515398  0  2.289361  0  0  -0.541016  0  2.282141  0  0  -0.29514  -0.498094  0  2.293852  0
O  O86  1  0.59997637  0.75032597  0.60421193  1  0  -0.580723  0  2.028324  0  0  -0.511062  0  2.256153  0  0  -0.537478  0  2.249688  0  0  -0.295599  -0.493101  0  2.260151  0
O  O87  1  0.40001584  0.24967371  0.39578281  1  0  -0.580787  0  2.028415  0  0  -0.511108  0  2.256284  0  0  -0.537533  0  2.249812  0  0  -0.295615  -0.493146  0  2.260284  0
