# generated using pymatgen
data_CdH9C11N3O4
_symmetry_space_group_name_H-M   'P 1'
_cell_length_a   7.83419250
_cell_length_b   12.24943129
_cell_length_c   12.95760237
_cell_angle_alpha   93.36221048
_cell_angle_beta   90.00003859
_cell_angle_gamma   89.99999778
_symmetry_Int_Tables_number   1
_chemical_formula_structural   CdH9C11N3O4
_chemical_formula_sum   'Cd4 H36 C44 N12 O16'
_cell_volume   1241.32822266
_cell_formula_units_Z   4
loop_
 _symmetry_equiv_pos_site_id
 _symmetry_equiv_pos_as_xyz
  1  'x, y, z'
loop_
 _atom_site_type_symbol
 _atom_site_label
 _atom_site_symmetry_multiplicity
 _atom_site_fract_x
 _atom_site_fract_y
 _atom_site_fract_z
 _atom_site_occupancy
 _atom_site_hle17_bader_spin_density
 _atom_site_hle17_ddec_charge
 _atom_site_hle17_ddec_spin_density
 _atom_site_hle17_ddec_sum_bond_order
 _atom_site_hle17_magmom
 _atom_site_hse06_10hf_bader_spin_density
 _atom_site_hse06_10hf_ddec_charge
 _atom_site_hse06_10hf_ddec_spin_density
 _atom_site_hse06_10hf_ddec_sum_bond_order
 _atom_site_hse06_10hf_magmom
 _atom_site_hse06_bader_spin_density
 _atom_site_hse06_ddec_charge
 _atom_site_hse06_ddec_spin_density
 _atom_site_hse06_ddec_sum_bond_order
 _atom_site_hse06_magmom
 _atom_site_pbe_bader_spin_density
 _atom_site_pbe_cm5_charge
 _atom_site_pbe_ddec_charge
 _atom_site_pbe_ddec_spin_density
 _atom_site_pbe_ddec_sum_bond_order
 _atom_site_pbe_magmom
Cd  Cd0  1  0.84337985  0.78331101  0.07179718  1  0  1.078185  0  1.759777  0  0  0.886946  0  2.22077  0  0  0.94302  0  2.169987  0  0  0.774799  0.847319  0  2.255327  0
Cd  Cd1  1  0.34338085  0.71669067  0.42820369  1  0  1.078234  0  1.759837  0  0  0.887005  0  2.220814  0  0  0.943078  0  2.170031  0  0  0.774831  0.847378  0  2.255371  0
Cd  Cd2  1  0.15661781  0.21668816  0.92820401  1  0  1.078222  0  1.759854  0  0  0.887002  0  2.220847  0  0  0.943077  0  2.170063  0  0  0.774825  0.847383  0  2.255405  0
Cd  Cd3  1  0.65661808  0.28331095  0.57179609  1  0  1.078222  0  1.759772  0  0  0.886994  0  2.220744  0  0  0.94307  0  2.169957  0  0  0.774806  0.847365  0  2.2553  0
H  H4  1  0.82871083  0.51821182  0.06927005  1  0  0.078342  0  0.942961  0  0  0.088652  0  1.004401  0  0  0.090861  0  1.002797  0  0  0.115979  0.08704  0  1.005546  0
H  H5  1  0.32871182  0.98178986  0.43073313  1  0  0.078249  0  0.943032  0  0  0.088556  0  1.004482  0  0  0.090758  0  1.002872  0  0  0.115953  0.086943  0  1.005627  0
H  H6  1  0.17129193  0.48178734  0.93072882  1  0  0.078391  0  0.942907  0  0  0.088624  0  1.00443  0  0  0.090825  0  1.00283  0  0  0.115963  0.087011  0  1.005574  0
H  H7  1  0.67129350  0.01821094  0.56926738  1  0  0.078261  0  0.942978  0  0  0.088549  0  1.004453  0  0  0.090743  0  1.002853  0  0  0.115964  0.086938  0  1.005597  0
H  H8  1  0.71593647  0.35808381  0.96002144  1  0  0.121426  0  0.951803  0  0  0.129647  0  1.011811  0  0  0.133612  0  1.010087  0  0  0.107099  0.126723  0  1.013277  0
H  H9  1  0.21593066  0.14191612  0.53998104  1  0  0.121457  0  0.951884  0  0  0.129686  0  1.01185  0  0  0.133684  0  1.010088  0  0  0.107115  0.126762  0  1.013315  0
H  H10  1  0.28407140  0.64191290  0.03997576  1  0  0.121416  0  0.951877  0  0  0.129664  0  1.011866  0  0  0.133623  0  1.010152  0  0  0.107109  0.126788  0  1.013276  0
H  H11  1  0.78406828  0.85808550  0.46001951  1  0  0.121433  0  0.951834  0  0  0.129665  0  1.011813  0  0  0.133647  0  1.010069  0  0  0.107118  0.126741  0  1.013279  0
H  H12  1  0.57084293  0.39782786  0.79044643  1  0  0.087776  0  0.973914  0  0  0.09783  0  1.038516  0  0  0.099919  0  1.036795  0  0  0.10428  0.096282  0  1.039754  0
H  H13  1  0.07083603  0.10217125  0.70955441  1  0  0.087759  0  0.973871  0  0  0.097814  0  1.038476  0  0  0.099902  0  1.036753  0  0  0.10428  0.096269  0  1.039715  0
H  H14  1  0.42916239  0.60217131  0.20955167  1  0  0.087728  0  0.973953  0  0  0.097812  0  1.038526  0  0  0.099899  0  1.036806  0  0  0.104283  0.096265  0  1.039761  0
H  H15  1  0.92915908  0.89782791  0.29044370  1  0  0.087713  0  0.973914  0  0  0.097784  0  1.038515  0  0  0.099872  0  1.036794  0  0  0.104256  0.096237  0  1.039751  0
H  H16  1  0.55209814  0.58722083  0.73839995  1  0  0.1284  0  0.938507  0  0  0.13583  0  0.999149  0  0  0.140058  0  0.997101  0  0  0.112233  0.132791  0  1.000757  0
H  H17  1  0.05209384  0.91277956  0.76160213  1  0  0.128388  0  0.938566  0  0  0.135843  0  0.999179  0  0  0.140072  0  0.997127  0  0  0.112229  0.132806  0  1.000787  0
H  H18  1  0.44790335  0.41277916  0.26160206  1  0  0.128401  0  0.938543  0  0  0.135858  0  0.99915  0  0  0.140086  0  0.997099  0  0  0.11223  0.132818  0  1.000757  0
H  H19  1  0.94790382  0.08722043  0.23839833  1  0  0.128471  0  0.938505  0  0  0.135878  0  0.999152  0  0  0.140105  0  0.997103  0  0  0.11224  0.13284  0  1.000761  0
H  H20  1  0.58884982  0.78144674  0.68699765  1  0  0.146078  0  0.953436  0  0  0.154834  0  1.011715  0  0  0.158732  0  1.010175  0  0  0.11181  0.152034  0  1.012979  0
H  H21  1  0.08885197  0.71854710  0.81300023  1  0  0.146091  0  0.953512  0  0  0.154891  0  1.011726  0  0  0.158761  0  1.010219  0  0  0.111848  0.15209  0  1.012983  0
H  H22  1  0.41114784  0.21854670  0.31299937  1  0  0.146095  0  0.953511  0  0  0.154895  0  1.011723  0  0  0.158764  0  1.010216  0  0  0.111853  0.152095  0  1.012981  0
H  H23  1  0.91114697  0.28145452  0.18700109  1  0  0.146086  0  0.953499  0  0  0.154861  0  1.011742  0  0  0.158715  0  1.010255  0  0  0.11182  0.152067  0  1.012997  0
H  H24  1  0.59796377  0.00364013  0.74616758  1  0  0.123885  0  0.976043  0  0  0.130791  0  1.041965  0  0  0.134745  0  1.038056  0  0  0.123012  0.127828  0  1.044903  0
H  H25  1  0.09796583  0.49635979  0.75382868  1  0  0.123865  0  0.9761  0  0  0.130771  0  1.04202  0  0  0.134723  0  1.038116  0  0  0.122979  0.127808  0  1.044958  0
H  H26  1  0.40203389  0.99635821  0.25382739  1  0  0.123858  0  0.976039  0  0  0.130769  0  1.04196  0  0  0.134723  0  1.038055  0  0  0.12298  0.127806  0  1.044898  0
H  H27  1  0.90203310  0.50364184  0.24617418  1  0  0.123888  0  0.976005  0  0  0.130818  0  1.041905  0  0  0.134772  0  1.037996  0  0  0.122995  0.127852  0  1.044847  0
H  H28  1  0.67366102  0.02335601  0.03537181  1  0  0.130903  0  0.904084  0  0  0.144096  0  0.962754  0  0  0.146447  0  0.961572  0  0  0.13092  0.14247  0  0.963673  0
H  H29  1  0.17366077  0.47664357  0.46462539  1  0  0.130948  0  0.90411  0  0  0.144149  0  0.962774  0  0  0.146512  0  0.961587  0  0  0.130917  0.142522  0  0.963695  0
H  H30  1  0.32634046  0.97664151  0.96462389  1  0  0.130995  0  0.904123  0  0  0.144192  0  0.962791  0  0  0.146558  0  0.96161  0  0  0.130958  0.142565  0  0.963716  0
H  H31  1  0.82633816  0.52335887  0.53537675  1  0  0.13096  0  0.904164  0  0  0.144164  0  0.962839  0  0  0.146523  0  0.961652  0  0  0.130949  0.142536  0  0.963762  0
H  H32  1  0.58502827  0.09884242  0.93442138  1  0  0.13032  0  0.949404  0  0  0.136983  0  1.018486  0  0  0.140376  0  1.016075  0  0  0.121441  0.134539  0  1.020384  0
H  H33  1  0.08502758  0.40115997  0.56557964  1  0  0.130332  0  0.949411  0  0  0.137023  0  1.018472  0  0  0.140382  0  1.01611  0  0  0.121441  0.134576  0  1.020377  0
H  H34  1  0.41497322  0.90115838  0.06557912  1  0  0.130336  0  0.949372  0  0  0.136994  0  1.018473  0  0  0.140398  0  1.016062  0  0  0.121438  0.13455  0  1.020369  0
H  H35  1  0.91497008  0.59884166  0.43442246  1  0  0.130368  0  0.949344  0  0  0.137039  0  1.018439  0  0  0.14042  0  1.016049  0  0  0.121457  0.134592  0  1.020343  0
H  H36  1  0.14473104  0.76894890  0.22362046  1  0  0.002929  0  0.955557  0  0  0.011341  0  1.028411  0  0  0.01212  0  1.023886  0  0  0.103744  0.010572  0  1.031712  0
H  H37  1  0.64474048  0.73105359  0.27637883  1  0  0.002916  0  0.955545  0  0  0.011336  0  1.028393  0  0  0.012115  0  1.023868  0  0  0.103762  0.01057  0  1.031689  0
H  H38  1  0.85526535  0.23104944  0.77637915  1  0  0.002993  0  0.955437  0  0  0.01136  0  1.028342  0  0  0.012139  0  1.023818  0  0  0.103777  0.010596  0  1.031643  0
H  H39  1  0.35526228  0.26895213  0.72362503  1  0  0.002977  0  0.955485  0  0  0.011342  0  1.028395  0  0  0.01212  0  1.023871  0  0  0.103793  0.010576  0  1.03169  0
C  C40  1  0.76616630  0.52922051  0.99536871  1  0  0.131516  0  3.734362  0  0  0.100991  0  3.987508  0  0  0.108075  0  4.00658  0  0  0.046698  0.09643  0  3.97441  0
C  C41  1  0.26616808  0.97077988  0.50463577  1  0  0.131601  0  3.734429  0  0  0.101057  0  3.987596  0  0  0.108152  0  4.006667  0  0  0.046758  0.096497  0  3.974496  0
C  C42  1  0.23383519  0.47077783  0.00463167  1  0  0.131393  0  3.73449  0  0  0.100931  0  3.987661  0  0  0.108023  0  4.006725  0  0  0.046677  0.096368  0  3.974574  0
C  C43  1  0.73383468  0.02921929  0.49536465  1  0  0.131604  0  3.734402  0  0  0.101091  0  3.987565  0  0  0.10819  0  4.006627  0  0  0.046772  0.09653  0  3.97447  0
C  C44  1  0.70217116  0.44102392  0.93461095  1  0  -0.125875  0  3.713007  0  0  -0.139285  0  3.965057  0  0  -0.146608  0  3.986502  0  0  -0.086396  -0.134553  0  3.950757  0
C  C45  1  0.20216921  0.05897683  0.56539080  1  0  -0.125903  0  3.71309  0  0  -0.139304  0  3.965118  0  0  -0.14666  0  3.986543  0  0  -0.086422  -0.13457  0  3.950813  0
C  C46  1  0.29783544  0.55897524  0.06538638  1  0  -0.125827  0  3.713071  0  0  -0.139261  0  3.965151  0  0  -0.14658  0  3.986589  0  0  -0.086386  -0.134572  0  3.950822  0
C  C47  1  0.79782845  0.94102397  0.43460893  1  0  -0.125857  0  3.713063  0  0  -0.139268  0  3.965095  0  0  -0.146607  0  3.986526  0  0  -0.086425  -0.134535  0  3.950793  0
C  C48  1  0.62386182  0.46303851  0.84125993  1  0  0.010241  0  3.719091  0  0  -0.00928  0  3.968711  0  0  -0.005419  0  3.987629  0  0  -0.066154  -0.011616  0  3.955858  0
C  C49  1  0.12385998  0.03696142  0.65874174  1  0  0.010262  0  3.718985  0  0  -0.009256  0  3.968612  0  0  -0.005397  0  3.987542  0  0  -0.066127  -0.011595  0  3.955767  0
C  C50  1  0.37614222  0.53696147  0.15873821  1  0  0.010268  0  3.71904  0  0  -0.009282  0  3.968688  0  0  -0.005423  0  3.987611  0  0  -0.0662  -0.011621  0  3.955843  0
C  C51  1  0.87613641  0.96303692  0.34125786  1  0  0.010314  0  3.719024  0  0  -0.009237  0  3.968642  0  0  -0.005381  0  3.987574  0  0  -0.0661  -0.011573  0  3.955788  0
C  C52  1  0.61313957  0.57011049  0.81121986  1  0  -0.134449  0  3.665362  0  0  -0.152334  0  3.908166  0  0  -0.158918  0  3.927128  0  0  -0.075202  -0.14808  0  3.895626  0
C  C53  1  0.11314029  0.92988826  0.68878293  1  0  -0.134487  0  3.665387  0  0  -0.152402  0  3.908194  0  0  -0.159006  0  3.927136  0  0  -0.075241  -0.14815  0  3.895661  0
C  C54  1  0.38686192  0.42989031  0.18878296  1  0  -0.13451  0  3.665492  0  0  -0.15243  0  3.908284  0  0  -0.159035  0  3.927232  0  0  -0.075233  -0.148177  0  3.895744  0
C  C55  1  0.88685992  0.07010927  0.31121586  1  0  -0.134563  0  3.665369  0  0  -0.152413  0  3.908149  0  0  -0.15902  0  3.927094  0  0  -0.075248  -0.148161  0  3.895617  0
C  C56  1  0.67991739  0.65444491  0.87662273  1  0  0.198184  0  3.786114  0  0  0.197317  0  4.021782  0  0  0.204887  0  4.041431  0  0  0.123138  0.192041  0  4.008615  0
C  C57  1  0.17992059  0.84555303  0.62337927  1  0  0.198177  0  3.786082  0  0  0.197325  0  4.021753  0  0  0.204953  0  4.041305  0  0  0.12316  0.192063  0  4.008594  0
C  C58  1  0.32008282  0.34555672  0.12338245  1  0  0.198123  0  3.786128  0  0  0.197322  0  4.02176  0  0  0.204951  0  4.041321  0  0  0.123154  0.192057  0  4.008605  0
C  C59  1  0.82008345  0.15444450  0.37661798  1  0  0.198126  0  3.786073  0  0  0.197279  0  4.021706  0  0  0.204917  0  4.041258  0  0  0.123114  0.192006  0  4.008546  0
C  C60  1  0.66774764  0.76972169  0.85315765  1  0  0.12243  0  3.822349  0  0  0.111089  0  4.08294  0  0  0.1176  0  4.102862  0  0  0.094111  0.10701  0  4.069201  0
C  C61  1  0.16774705  0.73027705  0.64684130  1  0  0.122468  0  3.822417  0  0  0.111068  0  4.083091  0  0  0.117583  0  4.102966  0  0  0.094078  0.106954  0  4.069392  0
C  C62  1  0.33225257  0.23027747  0.14684122  1  0  0.122533  0  3.822339  0  0  0.111143  0  4.082982  0  0  0.117643  0  4.102877  0  0  0.094101  0.10703  0  4.069286  0
C  C63  1  0.83225444  0.26972293  0.35315839  1  0  0.122485  0  3.822295  0  0  0.111133  0  4.082895  0  0  0.117623  0  4.102799  0  0  0.094146  0.107048  0  4.069165  0
C  C64  1  0.61998134  0.82032455  0.76211853  1  0  -0.222596  0  3.711438  0  0  -0.242547  0  3.972155  0  0  -0.251663  0  3.991997  0  0  -0.105675  -0.236565  0  3.958626  0
C  C65  1  0.11997957  0.67967500  0.73787813  1  0  -0.222633  0  3.711526  0  0  -0.242597  0  3.972234  0  0  -0.251693  0  3.99209  0  0  -0.105688  -0.236604  0  3.958716  0
C  C66  1  0.38001377  0.17967542  0.23787885  1  0  -0.222642  0  3.711424  0  0  -0.242614  0  3.972145  0  0  -0.251705  0  3.992006  0  0  -0.105681  -0.236619  0  3.958624  0
C  C67  1  0.88001553  0.32032580  0.26212161  1  0  -0.222525  0  3.711415  0  0  -0.24248  0  3.972109  0  0  -0.251554  0  3.991984  0  0  -0.105646  -0.236504  0  3.958584  0
C  C68  1  0.62556712  0.93178375  0.78868288  1  0  0.012124  0  3.624391  0  0  -0.049698  0  3.882734  0  0  -0.042555  0  3.896146  0  0  0.025103  -0.05397  0  3.873463  0
C  C69  1  0.12556916  0.56821581  0.71131455  1  0  0.012138  0  3.624329  0  0  -0.049706  0  3.882638  0  0  -0.042563  0  3.896044  0  0  0.025082  -0.053973  0  3.873361  0
C  C70  1  0.37442799  0.06821459  0.21131441  1  0  0.01216  0  3.624135  0  0  -0.049703  0  3.882454  0  0  -0.042562  0  3.895862  0  0  0.025097  -0.053969  0  3.873175  0
C  C71  1  0.87442850  0.43178663  0.28868682  1  0  0.012017  0  3.624231  0  0  -0.049859  0  3.882532  0  0  -0.042716  0  3.895933  0  0  0.025054  -0.054123  0  3.873261  0
C  C72  1  0.68930961  0.04395477  0.95464290  1  0  -0.186212  0  3.614043  0  0  -0.256884  0  3.856871  0  0  -0.259503  0  3.862675  0  0  -0.050978  -0.255276  0  3.853395  0
C  C73  1  0.18931017  0.45604597  0.54535576  1  0  -0.186306  0  3.614188  0  0  -0.257052  0  3.857028  0  0  -0.259687  0  3.862905  0  0  -0.051017  -0.255444  0  3.85356  0
C  C74  1  0.31068932  0.95604357  0.04535439  1  0  -0.186312  0  3.614091  0  0  -0.257076  0  3.856996  0  0  -0.259752  0  3.862868  0  0  -0.051036  -0.255471  0  3.853534  0
C  C75  1  0.81068749  0.54395565  0.45464634  1  0  -0.186296  0  3.614116  0  0  -0.257091  0  3.857053  0  0  -0.259721  0  3.862883  0  0  -0.051036  -0.255483  0  3.853591  0
C  C76  1  0.85725289  0.10542839  0.94587328  1  0  0.668446  0  3.905398  0  0  0.620387  0  4.209753  0  0  0.653719  0  4.204153  0  0  0.190635  0.59781  0  4.212696  0
C  C77  1  0.35725090  0.39457236  0.55412621  1  0  0.66858  0  3.905382  0  0  0.620522  0  4.209734  0  0  0.653868  0  4.204129  0  0  0.190657  0.597937  0  4.21268  0
C  C78  1  0.14274733  0.89456914  0.05412396  1  0  0.668454  0  3.905442  0  0  0.620419  0  4.209773  0  0  0.653766  0  4.204175  0  0  0.190606  0.597834  0  4.212718  0
C  C79  1  0.64274548  0.60542926  0.44587511  1  0  0.668442  0  3.905397  0  0  0.620379  0  4.209773  0  0  0.65372  0  4.204171  0  0  0.190609  0.597796  0  4.212717  0
C  C80  1  0.06488492  0.70190133  0.25160717  1  0  0.564288  0  3.935724  0  0  0.49445  0  4.238889  0  0  0.527715  0  4.232928  0  0  0.134852  0.471972  0  4.242089  0
C  C81  1  0.56488667  0.79810035  0.24839591  1  0  0.564465  0  3.935707  0  0  0.494626  0  4.238862  0  0  0.527896  0  4.2329  0  0  0.13497  0.472152  0  4.242062  0
C  C82  1  0.93511274  0.29809948  0.74839488  1  0  0.56435  0  3.935745  0  0  0.494549  0  4.238893  0  0  0.527818  0  4.232926  0  0  0.134905  0.47207  0  4.242102  0
C  C83  1  0.43511354  0.20190373  0.75160786  1  0  0.564356  0  3.935545  0  0  0.494546  0  4.238709  0  0  0.527814  0  4.232738  0  0  0.134865  0.472071  0  4.24191  0
N  N84  1  0.75531513  0.63273056  0.96745006  1  0  -0.376248  0  3.245333  0  0  -0.303076  0  3.504042  0  0  -0.323145  0  3.521698  0  0  -0.331618  -0.289313  0  3.491822  0
N  N85  1  0.25531567  0.86726983  0.53255287  1  0  -0.376248  0  3.245322  0  0  -0.303048  0  3.503997  0  0  -0.323136  0  3.521625  0  0  -0.33164  -0.289286  0  3.491776  0
N  N86  1  0.24468764  0.36726943  0.03255272  1  0  -0.376138  0  3.245318  0  0  -0.302986  0  3.503982  0  0  -0.323073  0  3.521614  0  0  -0.331545  -0.289226  0  3.491766  0
N  N87  1  0.74468964  0.13273015  0.46744682  1  0  -0.376216  0  3.245243  0  0  -0.303051  0  3.50392  0  0  -0.323139  0  3.521544  0  0  -0.331622  -0.28929  0  3.491706  0
N  N88  1  0.70063684  0.84658886  0.92934940  1  0  -0.325241  0  3.101082  0  0  -0.295286  0  3.371796  0  0  -0.3109  0  3.388442  0  0  -0.245718  -0.284499  0  3.360331  0
N  N89  1  0.20064127  0.65341316  0.57064820  1  0  -0.325276  0  3.101293  0  0  -0.295345  0  3.371997  0  0  -0.310966  0  3.388637  0  0  -0.245778  -0.284544  0  3.360541  0
N  N90  1  0.29936082  0.15341276  0.07064807  1  0  -0.325276  0  3.101246  0  0  -0.295366  0  3.371953  0  0  -0.31098  0  3.388596  0  0  -0.245774  -0.284568  0  3.360501  0
N  N91  1  0.79936277  0.34658683  0.42935226  1  0  -0.325328  0  3.101149  0  0  -0.295408  0  3.371834  0  0  -0.311024  0  3.388484  0  0  -0.245795  -0.284614  0  3.360366  0
N  N92  1  0.67417716  0.94384256  0.88959608  1  0  0.120367  0  3.590202  0  0  0.234053  0  3.772108  0  0  0.228075  0  3.795545  0  0  -0.131687  0.237735  0  3.756416  0
N  N93  1  0.17418165  0.55615945  0.61040073  1  0  0.120395  0  3.590099  0  0  0.234166  0  3.771928  0  0  0.228201  0  3.795365  0  0  -0.13156  0.237846  0  3.75624  0
N  N94  1  0.32581794  0.05615823  0.11040056  1  0  0.120349  0  3.58996  0  0  0.234158  0  3.771771  0  0  0.228194  0  3.79522  0  0  -0.131592  0.237838  0  3.756086  0
N  N95  1  0.82581984  0.44384135  0.38960055  1  0  0.120418  0  3.590121  0  0  0.234217  0  3.77192  0  0  0.228246  0  3.795359  0  0  -0.131591  0.237896  0  3.756234  0
O  O96  1  0.97501994  0.06588172  0.88726355  1  0  -0.636244  0  1.955357  0  0  -0.574441  0  2.197895  0  0  -0.60337  0  2.189739  0  0  -0.328421  -0.554226  0  2.202725  0
O  O97  1  0.47501546  0.43411739  0.61273746  1  0  -0.636334  0  1.955377  0  0  -0.574517  0  2.197897  0  0  -0.603445  0  2.189737  0  0  -0.328466  -0.554307  0  2.202728  0
O  O98  1  0.02498410  0.93411499  0.11273597  1  0  -0.63626  0  1.955406  0  0  -0.574468  0  2.197954  0  0  -0.603388  0  2.189777  0  0  -0.328472  -0.554259  0  2.202785  0
O  O99  1  0.52498219  0.56588505  0.38726160  1  0  -0.636258  0  1.955274  0  0  -0.57445  0  2.197829  0  0  -0.603369  0  2.189653  0  0  -0.328452  -0.554241  0  2.202658  0
O  O100  1  0.86764709  0.19610166  0.99833052  1  0  -0.64617  0  1.904754  0  0  -0.589103  0  2.136778  0  0  -0.616158  0  2.126363  0  0  -0.338161  -0.570035  0  2.143121  0
O  O101  1  0.36764761  0.30389745  0.50166966  1  0  -0.646199  0  1.904767  0  0  -0.589131  0  2.136788  0  0  -0.616193  0  2.12638  0  0  -0.338157  -0.57007  0  2.143136  0
O  O102  1  0.13235312  0.80389505  0.00166822  1  0  -0.64615  0  1.904763  0  0  -0.589088  0  2.136774  0  0  -0.616146  0  2.126358  0  0  -0.338125  -0.57003  0  2.14313  0
O  O103  1  0.63234877  0.69610254  0.49833234  1  0  -0.646155  0  1.904865  0  0  -0.589072  0  2.136878  0  0  -0.616133  0  2.126468  0  0  -0.338143  -0.570012  0  2.143226  0
O  O104  1  0.92927008  0.67553045  0.20231406  1  0  -0.606261  0  2.056471  0  0  -0.536074  0  2.315035  0  0  -0.565342  0  2.304384  0  0  -0.331687  -0.515612  0  2.321606  0
O  O105  1  0.42927093  0.82446960  0.29768830  1  0  -0.606324  0  2.056477  0  0  -0.536144  0  2.315032  0  0  -0.565412  0  2.304376  0  0  -0.331725  -0.51568  0  2.321603  0
O  O106  1  0.07072502  0.32447118  0.79769112  1  0  -0.606322  0  2.056518  0  0  -0.536121  0  2.315027  0  0  -0.565386  0  2.304369  0  0  -0.331733  -0.51566  0  2.321603  0
O  O107  1  0.57072417  0.17553284  0.70231384  1  0  -0.606286  0  2.05641  0  0  -0.536101  0  2.314987  0  0  -0.565366  0  2.304325  0  0  -0.331709  -0.51564  0  2.321559  0
O  O108  1  0.11438209  0.65604122  0.33144467  1  0  -0.596552  0  2.085584  0  0  -0.527229  0  2.347123  0  0  -0.556387  0  2.337607  0  0  -0.328157  -0.50684  0  2.352876  0
O  O109  1  0.61438247  0.84395801  0.16855675  1  0  -0.596631  0  2.085617  0  0  -0.527318  0  2.34719  0  0  -0.556464  0  2.337631  0  0  -0.328232  -0.506929  0  2.352942  0
O  O110  1  0.88561685  0.34395877  0.66855734  1  0  -0.59662  0  2.085715  0  0  -0.527318  0  2.347275  0  0  -0.556461  0  2.337718  0  0  -0.328189  -0.506925  0  2.353029  0
O  O111  1  0.38561519  0.15604280  0.83144608  1  0  -0.596637  0  2.085578  0  0  -0.527308  0  2.347105  0  0  -0.556474  0  2.337596  0  0  -0.328184  -0.506921  0  2.352861  0
