# generated using pymatgen
data_ZnH19C24N6O5
_symmetry_space_group_name_H-M   'P 1'
_cell_length_a   9.59479573
_cell_length_b   12.09916307
_cell_length_c   12.14800000
_cell_angle_alpha   64.26594533
_cell_angle_beta   75.91876760
_cell_angle_gamma   77.60854191
_symmetry_Int_Tables_number   1
_chemical_formula_structural   ZnH19C24N6O5
_chemical_formula_sum   'Zn2 H38 C48 N12 O10'
_cell_volume   1222.58968107
_cell_formula_units_Z   2
loop_
 _symmetry_equiv_pos_site_id
 _symmetry_equiv_pos_as_xyz
  1  'x, y, z'
loop_
 _atom_site_type_symbol
 _atom_site_label
 _atom_site_symmetry_multiplicity
 _atom_site_fract_x
 _atom_site_fract_y
 _atom_site_fract_z
 _atom_site_occupancy
 _atom_site_hle17_bader_spin_density
 _atom_site_hle17_ddec_charge
 _atom_site_hle17_ddec_spin_density
 _atom_site_hle17_ddec_sum_bond_order
 _atom_site_hle17_magmom
 _atom_site_hse06_10hf_bader_spin_density
 _atom_site_hse06_10hf_ddec_charge
 _atom_site_hse06_10hf_ddec_spin_density
 _atom_site_hse06_10hf_ddec_sum_bond_order
 _atom_site_hse06_10hf_magmom
 _atom_site_hse06_bader_spin_density
 _atom_site_hse06_ddec_charge
 _atom_site_hse06_ddec_spin_density
 _atom_site_hse06_ddec_sum_bond_order
 _atom_site_hse06_magmom
 _atom_site_pbe_bader_charge
 _atom_site_pbe_bader_spin_density
 _atom_site_pbe_cm5_charge
 _atom_site_pbe_ddec_charge
 _atom_site_pbe_ddec_spin_density
 _atom_site_pbe_ddec_sum_bond_order
 _atom_site_pbe_magmom
Zn  Zn0  1  0.44595209  0.30709651  0.80267836  1  0  1.014309  0  1.903331  0  0  0.826762  0  2.387584  0  0  0.872612  0  2.331733  0  1.265218  0  0.699728  0.792985  0  2.427454  0
Zn  Zn1  1  0.55404833  0.69290328  0.19732173  1  0  1.014308  0  1.903345  0  0  0.826746  0  2.38758  0  0  0.8726  0  2.331739  0  1.265218  0  0.69972  0.792974  0  2.427456  0
H  H2  1  0.00992175  0.30062995  0.77420416  1  0  0.109086  0  0.953418  0  0  0.115523  0  1.020393  0  0  0.120096  0  1.016353  0  0.124248  0  0.101895  0.112142  0  1.023325  0
H  H3  1  0.99007854  0.69937076  0.22579556  1  0  0.109093  0  0.953481  0  0  0.115542  0  1.020443  0  0  0.120115  0  1.016404  0  0.124248  0  0.101886  0.11216  0  1.023377  0
H  H4  1  0.76510555  0.01574889  0.82941321  1  0  0.121777  0  0.941906  0  0  0.129726  0  1.008183  0  0  0.133746  0  1.005207  0  0.105226  0  0.108571  0.126787  0  1.010359  0
H  H5  1  0.23489595  0.98425089  0.17058585  1  0  0.121727  0  0.941937  0  0  0.129691  0  1.0082  0  0  0.133712  0  1.005224  0  0.105248  0  0.10855  0.126752  0  1.010376  0
H  H6  1  0.20844460  0.92383343  0.89228113  1  0  0.106295  0  0.976112  0  0  0.111269  0  1.050199  0  0  0.115105  0  1.047607  0  0.091376  0  0.103197  0.108355  0  1.052342  0
H  H7  1  0.79155582  0.07616636  0.10771896  1  0  0.106261  0  0.97614  0  0  0.111248  0  1.050207  0  0  0.115086  0  1.047612  0  0.091383  0  0.103192  0.108334  0  1.052349  0
H  H8  1  0.12365018  0.74456087  0.00462736  1  0  0.070218  0  0.944515  0  0  0.082164  0  1.012254  0  0  0.0822  0  1.012383  0  0.063905  0  0.104763  0.082071  0  1.012153  0
H  H9  1  0.87634916  0.25543891  0.99537295  1  0  0.07022  0  0.94452  0  0  0.082169  0  1.012251  0  0  0.082205  0  1.012379  0  0.063904  0  0.104762  0.082076  0  1.012149  0
H  H10  1  0.17885372  0.75913630  0.84808332  1  0  0.051509  0  0.917655  0  0  0.064421  0  0.984711  0  0  0.065042  0  0.983673  0  0.046807  0  0.095896  0.063869  0  0.985555  0
H  H11  1  0.82114670  0.24086349  0.15191595  1  0  0.051521  0  0.917654  0  0  0.064428  0  0.984713  0  0  0.06505  0  0.983674  0  0.046814  0  0.095895  0.063877  0  0.985556  0
H  H12  1  0.90800106  0.67958732  0.82258276  1  0  0.093763  0  0.94832  0  0  0.103059  0  1.010413  0  0  0.106757  0  1.00835  0  0.07356  0  0.098053  0.100578  0  1.011702  0
H  H13  1  0.09199816  0.32041339  0.17741717  1  0  0.093776  0  0.948339  0  0  0.103073  0  1.010428  0  0  0.10677  0  1.008367  0  0.073568  0  0.098058  0.100593  0  1.011715  0
H  H14  1  0.15857214  0.52959507  0.11719305  1  0  0.110454  0  0.955536  0  0  0.120546  0  1.015458  0  0  0.12401  0  1.013568  0  0.096102  0  0.102126  0.118063  0  1.016906  0
H  H15  1  0.84142707  0.47040564  0.88280688  1  0  0.110431  0  0.95557  0  0  0.120545  0  1.015467  0  0  0.123998  0  1.013591  0  0.096104  0  0.102128  0.118063  0  1.016915  0
H  H16  1  0.48756764  0.08012693  0.07755350  1  0  0.143749  0  0.94348  0  0  0.151239  0  1.006478  0  0  0.154674  0  1.001058  0  0.251351  0  0.151355  0.148451  0  1.010021  0
H  H17  1  0.51243264  0.91987378  0.92244623  1  0  0.143748  0  0.943429  0  0  0.151235  0  1.006438  0  0  0.15467  0  1.001018  0  0.251346  0  0.151342  0.148448  0  1.009981  0
H  H18  1  0.41799321  0.46698603  0.96421481  1  0  0.092732  0  0.941345  0  0  0.100247  0  1.006063  0  0  0.10186  0  1.004927  0  0.169372  0  0.135702  0.098972  0  1.00699  0
H  H19  1  0.58200506  0.53301376  0.03578570  1  0  0.092732  0  0.941355  0  0  0.100247  0  1.006075  0  0  0.101862  0  1.004939  0  0.169213  0  0.135699  0.098973  0  1.007001  0
H  H20  1  0.56660404  0.16166035  0.32433580  1  0  0.097266  0  0.929253  0  0  0.105185  0  1.002856  0  0  0.106749  0  1.000935  0  0.105919  0  0.116489  0.103925  0  1.00402  0
H  H21  1  0.43339624  0.83834035  0.67566392  1  0  0.097264  0  0.929256  0  0  0.10518  0  1.002861  0  0  0.106746  0  1.000939  0  0.106058  0  0.116491  0.103921  0  1.004025  0
H  H22  1  0.58988999  0.03532983  0.28001206  1  0  0.09797  0  0.931137  0  0  0.110586  0  0.997053  0  0  0.110836  0  0.996826  0  0.126186  0  0.118954  0.110304  0  0.996717  0
H  H23  1  0.41010935  0.96466996  0.71998824  1  0  0.097969  0  0.931131  0  0  0.110583  0  0.997045  0  0  0.110834  0  0.996819  0  0.126184  0  0.118953  0.110303  0  0.99671  0
H  H24  1  0.41127165  0.89724312  0.35299748  1  0  0.11864  0  0.953659  0  0  0.125746  0  1.020875  0  0  0.129305  0  1.018223  0  0.13232  0  0.107745  0.123177  0  1.022842  0
H  H25  1  0.58872877  0.10275666  0.64700261  1  0  0.118622  0  0.953664  0  0  0.125726  0  1.020883  0  0  0.129285  0  1.018231  0  0.132302  0  0.107742  0.123157  0  1.02285  0
H  H26  1  0.05360663  0.92542857  0.63680715  1  0  0.095649  0  0.959946  0  0  0.104744  0  1.023173  0  0  0.107473  0  1.022398  0  0.103427  0  0.099643  0.102709  0  1.02446  0
H  H27  1  0.94639258  0.07457214  0.36319196  1  0  0.095661  0  0.959942  0  0  0.104752  0  1.023179  0  0  0.10748  0  1.022403  0  0.103429  0  0.09964  0.102717  0  1.024467  0
H  H28  1  0.10977587  0.13238004  0.59533556  1  0  0.087251  0  0.973481  0  0  0.098099  0  1.032919  0  0  0.099241  0  1.034953  0  0.075233  0  0.097292  0.097353  0  1.031408  0
H  H29  1  0.89022348  0.86761974  0.40466392  1  0  0.087249  0  0.97346  0  0  0.098095  0  1.032903  0  0  0.099239  0  1.034934  0  0.075237  0  0.097284  0.09735  0  1.031392  0
H  H30  1  0.32265617  0.21898555  0.43761677  1  0  0.097682  0  0.956153  0  0  0.10833  0  1.017454  0  0  0.111169  0  1.015982  0  0.075401  0  0.102326  0.10635  0  1.01853  0
H  H31  1  0.67734210  0.78101423  0.56238373  1  0  0.097666  0  0.956098  0  0  0.108326  0  1.017389  0  0  0.111167  0  1.015918  0  0.075366  0  0.102315  0.106346  0  1.018467  0
H  H32  1  0.09350897  0.75126324  0.58220977  1  0  0.086895  0  0.916616  0  0  0.103488  0  0.977356  0  0  0.104221  0  0.976919  0  0.10364  0  0.118938  0.103032  0  0.977487  0
H  H33  1  0.90649145  0.24873655  0.41778950  1  0  0.086883  0  0.916613  0  0  0.103496  0  0.977341  0  0  0.104229  0  0.976904  0  0.103631  0  0.118937  0.103039  0  0.977474  0
H  H34  1  0.20172126  0.76476044  0.43542548  1  0  0.100811  0  0.940684  0  0  0.113089  0  1.005897  0  0  0.11335  0  1.006154  0  0.130565  0  0.117261  0.11291  0  1.005586  0
H  H35  1  0.79828010  0.23524027  0.56457404  1  0  0.10078  0  0.940681  0  0  0.113051  0  1.00592  0  0  0.11331  0  1.006179  0  0.130566  0  0.11725  0.112873  0  1.005608  0
H  H36  1  0.17862904  0.52661563  0.71876134  1  0  0.119052  0  0.918565  0  0  0.129591  0  0.978276  0  0  0.132199  0  0.975351  0  0.187957  0  0.149505  0.1276  0  0.980374  0
H  H37  1  0.82137125  0.47338508  0.28123921  1  0  0.118979  0  0.918628  0  0  0.12957  0  0.978288  0  0  0.132178  0  0.975361  0  0.187959  0  0.149493  0.127579  0  0.980386  0
H  H38  1  0.62672005  0.54507395  0.62553965  1  0  0.108584  0  0.920151  0  0  0.119118  0  0.976033  0  0  0.121673  0  0.973083  0  0.146715  0  0.140875  0.117154  0  0.978239  0
H  H39  1  0.37328037  0.45492584  0.37445962  1  0  0.108576  0  0.920171  0  0  0.119108  0  0.976055  0  0  0.121662  0  0.973105  0  0.14672  0  0.140877  0.117144  0  0.97826  0
C  C40  1  0.26072080  0.15399258  0.83124821  1  0  0.643102  0  3.917923  0  0  0.597656  0  4.202148  0  0  0.631968  0  4.193941  0  1.569665  0  0.199215  0.574816  0  4.205927  0
C  C41  1  0.73927935  0.84600905  0.16875278  1  0  0.643203  0  3.917783  0  0  0.597726  0  4.202046  0  0  0.632041  0  4.193835  0  1.569648  0  0.199275  0.574887  0  4.205826  0
C  C42  1  0.12332670  0.11566944  0.82944195  1  0  -0.040949  0  3.789798  0  0  -0.014787  0  4.021359  0  0  -0.021389  0  4.043307  0  -0.002214  0  -0.021049  -0.010584  0  4.00611  0
C  C43  1  0.87667372  0.88433034  0.17055814  1  0  -0.040982  0  3.789908  0  0  -0.014814  0  4.021478  0  0  -0.021418  0  4.043429  0  -0.002208  0  -0.021062  -0.010611  0  4.006228  0
C  C44  1  0.00370730  0.20412531  0.79749388  1  0  -0.107333  0  3.736999  0  0  -0.14583  0  3.990394  0  0  -0.144287  0  4.007482  0  -0.077177  0  -0.09443  -0.146084  0  3.978772  0
C  C45  1  0.99629433  0.79587354  0.20250639  1  0  -0.107369  0  3.737049  0  0  -0.145886  0  3.990427  0  0  -0.144341  0  4.007517  0  -0.077184  0  -0.094412  -0.146138  0  3.978805  0
C  C46  1  0.87404872  0.16792903  0.79868738  1  0  -0.057855  0  3.798611  0  0  -0.03235  0  4.035605  0  0  -0.039155  0  4.057605  0  -0.095945  0  -0.025115  -0.028235  0  4.02112  0
C  C47  1  0.12595156  0.83207168  0.20131234  1  0  -0.057783  0  3.798519  0  0  -0.032248  0  4.03548  0  0  -0.039054  0  4.057481  0  -0.096016  0  -0.025079  -0.028134  0  4.020993  0
C  C48  1  0.74150630  0.26176214  0.77803076  1  0  0.623326  0  3.943606  0  0  0.579033  0  4.230525  0  0  0.612008  0  4.224044  0  1.551396  0  0.193121  0.556801  0  4.234053  0
C  C49  1  0.25849412  0.73823764  0.22196933  1  0  0.623339  0  3.943585  0  0  0.57903  0  4.230513  0  0  0.612005  0  4.224034  0  1.551499  0  0.193129  0.556798  0  4.23404  0
C  C50  1  0.86610946  0.04410541  0.82770839  1  0  -0.154528  0  3.668657  0  0  -0.191034  0  3.924344  0  0  -0.191451  0  3.94038  0  0.0449  0  -0.089545  -0.190857  0  3.914003  0
C  C51  1  0.13389096  0.95589437  0.17229171  1  0  -0.154506  0  3.668645  0  0  -0.191033  0  3.92433  0  0  -0.191453  0  3.940369  0  0.044866  0  -0.089547  -0.190859  0  3.913993  0
C  C52  1  0.98652410  0.95524614  0.86029046  1  0  0.262762  0  3.820838  0  0  0.257176  0  4.084824  0  0  0.266032  0  4.101433  0  0.396575  0  0.081712  0.250945  0  4.073748  0
C  C53  1  0.01347632  0.04475364  0.13970881  1  0  0.262767  0  3.820844  0  0  0.257166  0  4.08485  0  0  0.266023  0  4.101462  0  0.39641  0  0.081701  0.250938  0  4.073772  0
C  C54  1  0.11467261  0.99054730  0.86305049  1  0  -0.200303  0  3.732934  0  0  -0.235022  0  3.990646  0  0  -0.237714  0  4.010801  0  0.004071  0  -0.100605  -0.233409  0  3.977486  0
C  C55  1  0.88532781  0.00945248  0.13694961  1  0  -0.200254  0  3.733035  0  0  -0.234973  0  3.990722  0  0  -0.237665  0  4.010878  0  0.004063  0  -0.100591  -0.233361  0  3.977562  0
C  C56  1  0.08713009  0.74183387  0.92672219  1  0  0.0574  0  3.640415  0  0  -0.006782  0  3.905395  0  0  0.001674  0  3.909927  0  0.429305  0  -0.061095  -0.012389  0  3.901999  0
C  C57  1  0.91287033  0.25816591  0.07327790  1  0  0.057375  0  3.640452  0  0  -0.0068  0  3.905423  0  0  0.001655  0  3.909957  0  0.429298  0  -0.061103  -0.012407  0  3.902027  0
C  C58  1  0.03967412  0.61791594  0.96462884  1  0  0.0618  0  3.762092  0  0  0.07923  0  4.002834  0  0  0.078216  0  4.02793  0  -0.042748  0  -0.017269  0.080032  0  3.985694  0
C  C59  1  0.96032630  0.38208385  0.03537043  1  0  0.061844  0  3.762057  0  0  0.079278  0  4.002793  0  0  0.078267  0  4.027883  0  -0.042737  0  -0.017255  0.08008  0  3.985655  0
C  C60  1  0.94952531  0.60060242  0.89982385  1  0  -0.116976  0  3.769808  0  0  -0.140133  0  4.024483  0  0  -0.142668  0  4.046343  0  -0.069327  0  -0.099045  -0.138374  0  4.009543  0
C  C61  1  0.05047404  0.39939737  0.10017645  1  0  -0.117028  0  3.76982  0  0  -0.140189  0  4.024491  0  0  -0.142727  0  4.046356  0  -0.069349  0  -0.099061  -0.138431  0  4.009552  0
C  C62  1  0.08947742  0.51630593  0.06547482  1  0  -0.132296  0  3.758833  0  0  -0.147562  0  4.002118  0  0  -0.151781  0  4.02574  0  -0.036262  0  -0.094952  -0.144647  0  3.986007  0
C  C63  1  0.91052179  0.48369478  0.93452429  1  0  -0.132311  0  3.758862  0  0  -0.1476  0  4.002152  0  0  -0.15181  0  4.025779  0  -0.036259  0  -0.094969  -0.144686  0  3.986042  0
C  C64  1  0.46954463  0.17277271  0.07549704  1  0  0.185927  0  3.568343  0  0  0.108777  0  3.826444  0  0  0.13347  0  3.839335  0  0.961111  0  0.175026  0.098915  0  3.819869  0
C  C65  1  0.53045673  0.82722800  0.92450165  1  0  0.18597  0  3.568257  0  0  0.108796  0  3.826357  0  0  0.133494  0  3.839253  0  0.961087  0  0.175045  0.098933  0  3.819784  0
C  C66  1  0.43696754  0.36889273  0.02122576  1  0  0.206418  0  3.721141  0  0  0.154741  0  4.008162  0  0  0.166447  0  4.019051  0  0.954861  0  0.149728  0.147584  0  3.998214  0
C  C67  1  0.56303288  0.63110706  0.97877434  1  0  0.206389  0  3.72114  0  0  0.154697  0  4.00816  0  0  0.166402  0  4.019047  0  0.955035  0  0.149714  0.147541  0  3.998211  0
C  C68  1  0.51323479  0.11219989  0.29235602  1  0  -0.060543  0  3.642248  0  0  -0.138134  0  3.890219  0  0  -0.124948  0  3.902857  0  0.267228  0  -0.04215  -0.140871  0  3.883843  0
C  C69  1  0.48676456  0.88779989  0.70764428  1  0  -0.06054  0  3.642239  0  0  -0.138112  0  3.890178  0  0  -0.124922  0  3.902822  0  0.267081  0  -0.042146  -0.140852  0  3.883803  0
C  C70  1  0.38030921  0.06393879  0.38477077  1  0  0.067807  0  3.762603  0  0  0.089938  0  4.002996  0  0  0.088109  0  4.027289  0  -0.045831  0  -0.014865  0.091519  0  3.985231  0
C  C71  1  0.61969013  0.93606099  0.61522954  1  0  0.067841  0  3.762544  0  0  0.089948  0  4.002972  0  0  0.08812  0  4.027264  0  -0.045789  0  -0.014847  0.091529  0  3.985207  0
C  C72  1  0.34613846  0.94900059  0.40628971  1  0  -0.149621  0  3.691587  0  0  -0.181578  0  3.939793  0  0  -0.183952  0  3.960477  0  -0.084128  0  -0.085435  -0.179586  0  3.925357  0
C  C73  1  0.65386196  0.05099919  0.59371203  1  0  -0.149602  0  3.6915  0  0  -0.181554  0  3.939704  0  0  -0.183927  0  3.960387  0  -0.084166  0  -0.085443  -0.179566  0  3.92528  0
C  C74  1  0.22999180  0.89761024  0.49824270  1  0  0.067865  0  3.76431  0  0  0.090974  0  4.006277  0  0  0.089593  0  4.030594  0  -0.047048  0  -0.014783  0.092183  0  3.99024  0
C  C75  1  0.77000754  0.10238955  0.50175760  1  0  0.067885  0  3.764324  0  0  0.091014  0  4.006278  0  0  0.089631  0  4.030596  0  -0.04704  0  -0.014776  0.092221  0  3.99024  0
C  C76  1  0.14483181  0.96432596  0.56560792  1  0  -0.123819  0  3.755779  0  0  -0.146725  0  4.004152  0  0  -0.14927  0  4.026984  0  -0.076511  0  -0.093447  -0.145848  0  3.991308  0
C  C77  1  0.85516861  0.03567382  0.43439217  1  0  -0.123855  0  3.755817  0  0  -0.146762  0  4.004178  0  0  -0.149308  0  4.027012  0  -0.076527  0  -0.093426  -0.145885  0  3.991334  0
C  C78  1  0.17588559  0.08123474  0.54174324  1  0  -0.069931  0  3.790779  0  0  -0.078091  0  4.035568  0  0  -0.081298  0  4.060076  0  -5.2e-05  0  -0.095238  -0.075934  0  4.019611  0
C  C79  1  0.82411362  0.91876597  0.45825668  1  0  -0.069933  0  3.790837  0  0  -0.078094  0  4.035628  0  0  -0.0813  0  4.060139  0  -6e-05  0  -0.095248  -0.075936  0  4.01967  0
C  C80  1  0.29428371  0.13030497  0.45272594  1  0  -0.108042  0  3.731144  0  0  -0.129629  0  3.972581  0  0  -0.131312  0  3.993692  0  -0.038926  0  -0.088606  -0.128378  0  3.95818  0
C  C81  1  0.70571658  0.86969574  0.54727461  1  0  -0.108048  0  3.731153  0  0  -0.129641  0  3.972601  0  0  -0.131327  0  3.993715  0  -0.038873  0  -0.088606  -0.128388  0  3.958196  0
C  C82  1  0.19940162  0.77112343  0.52331794  1  0  -0.049773  0  3.630367  0  0  -0.131513  0  3.881747  0  0  -0.126671  0  3.891456  0  0.220694  0  -0.04016  -0.13446  0  3.874869  0
C  C83  1  0.80059880  0.22887635  0.47668133  1  0  -0.049721  0  3.630372  0  0  -0.131502  0  3.881785  0  0  -0.12666  0  3.8915  0  0.220696  0  -0.040153  -0.134446  0  3.874904  0
C  C84  1  0.28383804  0.55863311  0.67588358  1  0  0.170437  0  3.628081  0  0  0.094894  0  3.882204  0  0  0.109356  0  3.893752  0  0.982734  0  0.168816  0.085852  0  3.873934  0
C  C85  1  0.71616118  0.44136760  0.32411552  1  0  0.170526  0  3.628075  0  0  0.094926  0  3.882194  0  0  0.109388  0  3.893743  0  0.982743  0  0.168825  0.085883  0  3.873924  0
C  C86  1  0.51124407  0.57123611  0.62506597  1  0  0.203063  0  3.705353  0  0  0.145916  0  3.999027  0  0  0.157519  0  4.010626  0  1.012607  0  0.153264  0.138367  0  3.990885  0
C  C87  1  0.48875527  0.42876368  0.37493434  1  0  0.203132  0  3.705314  0  0  0.14599  0  3.998977  0  0  0.157596  0  4.010573  0  1.012591  0  0.153288  0.138442  0  3.990834  0
N  N88  1  0.44063157  0.27956669  0.98007835  1  0  -0.405137  0  3.268524  0  0  -0.325735  0  3.57621  0  0  -0.347553  0  3.582188  0  -1.236617  0  -0.347424  -0.310616  0  3.56953  0
N  N89  1  0.55936778  0.72043309  0.01992195  1  0  -0.405166  0  3.268548  0  0  -0.325717  0  3.576199  0  0  -0.34754  0  3.582181  0  -1.236605  0  -0.347415  -0.310602  0  3.569525  0
N  N90  1  0.46179819  0.32367303  0.13648526  1  0  -0.286075  0  2.830552  0  0  -0.28635  0  3.093188  0  0  -0.285138  0  3.111849  0  -0.688392  0  -0.229239  -0.280837  0  3.083818  0
N  N91  1  0.53820102  0.67632768  0.86351467  1  0  -0.28604  0  2.830489  0  0  -0.286321  0  3.093127  0  0  -0.285102  0  3.111791  0  -0.688382  0  -0.229233  -0.280809  0  3.083756  0
N  N92  1  0.48265048  0.19889418  0.16906714  1  0  0.049475  0  3.542636  0  0  0.167067  0  3.734569  0  0  0.128077  0  3.793312  0  -0.81397  0  -0.129334  0.173875  0  3.719305  0
N  N93  1  0.51734886  0.80110561  0.83093316  1  0  0.049438  0  3.54262  0  0  0.167044  0  3.73455  0  0  0.128037  0  3.793307  0  -0.813986  0  -0.129347  0.173859  0  3.719274  0
N  N94  1  0.30697147  0.67140170  0.58776867  1  0  0.047014  0  3.538473  0  0  0.165735  0  3.729941  0  0  0.154541  0  3.754587  0  -0.794927  0  -0.124419  0.171537  0  3.715844  0
N  N95  1  0.69302909  0.32859716  0.41223262  1  0  0.047002  0  3.538441  0  0  0.165747  0  3.729906  0  0  0.154558  0  3.754547  0  -0.79492  0  -0.124402  0.171551  0  3.715807  0
N  N96  1  0.45162857  0.68085696  0.55353522  1  0  -0.258401  0  2.854486  0  0  -0.257044  0  3.124062  0  0  -0.265199  0  3.137729  0  -0.685381  0  -0.211496  -0.251482  0  3.115156  0
N  N97  1  0.54837185  0.31914283  0.44646405  1  0  -0.258456  0  2.854508  0  0  -0.25711  0  3.124084  0  0  -0.265268  0  3.137747  0  -0.685374  0  -0.211526  -0.251548  0  3.115177  0
N  N98  1  0.41185234  0.49284950  0.70170446  1  0  -0.399676  0  3.260498  0  0  -0.321946  0  3.570201  0  0  -0.342792  0  3.578173  0  -1.250724  0  -0.346004  -0.307723  0  3.564244  0
N  N99  1  0.58814808  0.50715028  0.29829564  1  0  -0.399691  0  3.260504  0  0  -0.321958  0  3.570218  0  0  -0.342807  0  3.578192  0  -1.250729  0  -0.346001  -0.307737  0  3.564264  0
O  O100  1  0.26766820  0.27225401  0.77890614  1  0  -0.658433  0  2.033703  0  0  -0.586229  0  2.298565  0  0  -0.61484  0  2.282746  0  -1.174958  0  -0.345505  -0.565962  0  2.308673  0
O  O101  1  0.73232980  0.72774762  0.22109444  1  0  -0.65846  0  2.033697  0  0  -0.58624  0  2.298569  0  0  -0.614853  0  2.282754  0  -1.17492  0  -0.345517  -0.565975  0  2.30868  0
O  O102  1  0.35995411  0.07501600  0.88104207  1  0  -0.624812  0  1.913359  0  0  -0.577966  0  2.138049  0  0  -0.600967  0  2.128175  0  -1.191609  0  -0.32522  -0.560628  0  2.143583  0
O  O103  1  0.64004604  0.92498563  0.11895893  1  0  -0.62485  0  1.913269  0  0  -0.577999  0  2.137977  0  0  -0.601001  0  2.1281  0  -1.191614  0  -0.325258  -0.560657  0  2.143505  0
O  O104  1  0.73610911  0.36012361  0.79031244  1  0  -0.618782  0  1.892373  0  0  -0.576673  0  2.106344  0  0  -0.598429  0  2.097602  0  -1.171364  0  -0.332774  -0.561337  0  2.111707  0
O  O105  1  0.26389131  0.63987617  0.20968847  1  0  -0.618783  0  1.89239  0  0  -0.576673  0  2.106366  0  0  -0.598426  0  2.097628  0  -1.171393  0  -0.332767  -0.561337  0  2.111729  0
O  O106  1  0.63654638  0.23000358  0.75114216  1  0  -0.658172  0  2.059348  0  0  -0.585036  0  2.337002  0  0  -0.612695  0  2.320191  0  -1.174019  0  -0.34041  -0.565681  0  2.348549  0
O  O107  1  0.36345390  0.76999712  0.24885756  1  0  -0.658187  0  2.059348  0  0  -0.58505  0  2.337008  0  0  -0.612711  0  2.320202  0  -1.174039  0  -0.340423  -0.565697  0  2.348558  0
O  O108  1  0.96749486  0.83605722  0.88930656  1  0  -0.288605  0  2.310159  0  0  -0.217892  0  2.543873  0  0  -0.235791  0  2.546774  0  -1.071527  0  -0.181575  -0.205269  0  2.541406  0
O  O109  1  0.03250543  0.16394349  0.11069234  1  0  -0.288636  0  2.310171  0  0  -0.217926  0  2.543893  0  0  -0.235824  0  2.546796  0  -1.071363  0  -0.181586  -0.205302  0  2.541426  0
