# generated using pymatgen
data_FeH2(C2O3)2
_symmetry_space_group_name_H-M   'P 1'
_cell_length_a   8.18286087
_cell_length_b   8.01263698
_cell_length_c   16.05341594
_cell_angle_alpha   87.65405620
_cell_angle_beta   92.04948900
_cell_angle_gamma   87.81752394
_symmetry_Int_Tables_number   1
_chemical_formula_structural   FeH2(C2O3)2
_chemical_formula_sum   'Fe6 H12 C24 O36'
_cell_volume   1050.18348619
_cell_formula_units_Z   6
loop_
 _symmetry_equiv_pos_site_id
 _symmetry_equiv_pos_as_xyz
  1  'x, y, z'
loop_
 _atom_site_type_symbol
 _atom_site_label
 _atom_site_symmetry_multiplicity
 _atom_site_fract_x
 _atom_site_fract_y
 _atom_site_fract_z
 _atom_site_occupancy
 _atom_site_pbe_bader_charge
 _atom_site_pbe_bader_spin_density
 _atom_site_pbe_cm5_charge
 _atom_site_pbe_ddec_charge
 _atom_site_pbe_ddec_spin_density
 _atom_site_pbe_ddec_sum_bond_order
 _atom_site_pbe_magmom
Fe  Fe0  1  0.00491775  0.50033008  0.99970372  1  1.667868  2.946127  0.881578  1.226232  3.293173  3.136963  2.91
Fe  Fe1  1  0.49773664  0.00529860  0.50098429  1  1.672029  3.006272  0.877523  1.233581  3.360782  3.095735  2.969
Fe  Fe2  1  0.49757255  0.99461866  0.99864345  1  1.667985  2.966117  0.871114  1.229488  3.317538  3.119178  2.932
Fe  Fe3  1  0.99391740  0.49695534  0.50077377  1  1.660592  2.919944  0.872312  1.221889  3.265824  3.144972  2.886
Fe  Fe4  1  0.52087507  0.51936100  0.75041738  1  1.667278  2.900747  0.876097  1.218238  3.243119  3.164797  2.869
Fe  Fe5  1  0.48288192  0.48249882  0.24959706  1  1.651951  2.952915  0.867768  1.214995  3.29484  3.150045  2.922
H  H6  1  0.53465653  0.74385159  0.08784155  1  0.632094  0.00603  0.293398  0.38242  0.003032  0.945866  0.01
H  H7  1  0.75056455  0.53637533  0.41169964  1  0.633198  0.006041  0.293233  0.382741  0.002996  0.94524  0.01
H  H8  1  0.47580202  0.28204393  0.94719887  1  0.640889  0.006952  0.317923  0.41085  0.003321  0.873808  0.01
H  H9  1  0.27429043  0.46666352  0.55139533  1  0.629824  0.007053  0.319754  0.412486  0.003214  0.86746  0.009
H  H10  1  0.22919873  0.52448239  0.09699677  1  0.661513  0.005141  0.28935  0.370202  0.003135  0.97391  0.01
H  H11  1  0.52317241  0.23518797  0.40325041  1  0.66575  0.004984  0.288928  0.368347  0.003116  0.976545  0.01
H  H12  1  0.73095228  0.50057261  0.94981910  1  0.635841  0.00673  0.315762  0.402932  0.003274  0.881624  0.009
H  H13  1  0.50373497  0.72383591  0.54998858  1  0.622719  0.007042  0.315457  0.403104  0.003414  0.880884  0.009
H  H14  1  0.47971791  0.68760666  0.87139820  1  0.661307  0.003908  0.292014  0.374922  0.002143  0.958894  0.008
H  H15  1  0.68820198  0.47707500  0.63064375  1  0.614154  0.004773  0.292458  0.374421  0.002072  0.958152  0.008
H  H16  1  0.52055528  0.30946030  0.13017738  1  0.617831  0.004841  0.291899  0.376748  0.002232  0.955362  0.008
H  H17  1  0.31221028  0.52207518  0.36810601  1  0.633934  0.004742  0.292682  0.377687  0.002271  0.95127  0.009
C  C18  1  0.03396497  0.12212315  0.00985322  1  0.826535  -0.000684  0.136293  0.200147  -0.007743  4.020232  -0.003
C  C19  1  0.11815473  0.03491239  0.49006960  1  0.853105  0.000139  0.135514  0.202356  -0.006834  4.035009  -0.002
C  C20  1  0.95878974  0.87821799  0.98939317  1  0.829062  0.000416  0.134385  0.194107  -0.006822  4.033134  -0.002
C  C21  1  0.87770740  0.95780287  0.51058425  1  0.870184  0.001313  0.134963  0.197813  -0.006002  4.045515  -0.002
C  C22  1  0.12012720  0.95764800  0.99919553  1  0.868711  -0.004163  0.135842  0.198399  -0.010038  4.043283  -0.005
C  C23  1  0.95588164  0.12189824  0.49929447  1  0.813514  -0.004772  0.133912  0.193509  -0.010899  4.035616  -0.006
C  C24  1  0.87213678  0.04304475  0.99991317  1  0.865728  -0.001889  0.133909  0.198717  -0.007979  4.035392  -0.004
C  C25  1  0.04042807  0.87027961  0.50143152  1  0.84902  -0.002478  0.134678  0.196724  -0.008881  4.023137  -0.005
C  C26  1  0.97187121  0.52317750  0.68976096  1  0.821695  -0.005753  0.126011  0.177317  -0.013568  4.070889  -0.008
C  C27  1  0.52360719  0.97265427  0.81085481  1  0.815047  0.004284  0.126517  0.177468  -0.001752  4.069439  -0.001
C  C28  1  0.02980392  0.47829209  0.31048479  1  0.796429  0.002407  0.117935  0.169893  -0.001373  4.105373  0.0
C  C29  1  0.47913370  0.02830424  0.18905072  1  0.824359  0.003444  0.121762  0.17609  -0.000518  4.100995  0.001
C  C30  1  0.13910511  0.51673959  0.72936694  1  0.885015  -0.00519  0.138558  0.199266  -0.011287  4.05637  -0.005
C  C31  1  0.51883697  0.14143209  0.76968180  1  0.833249  0.000405  0.139519  0.200331  -0.004149  4.032454  -0.002
C  C32  1  0.86394764  0.48531565  0.27029548  1  0.803237  0.001148  0.132421  0.194645  -0.002195  4.043037  -0.001
C  C33  1  0.48566008  0.86050633  0.23054426  1  0.80575  -0.00319  0.135186  0.194648  -0.006725  4.024539  -0.004
C  C34  1  0.06497934  0.51519420  0.81368809  1  0.857309  -0.00749  0.139906  0.196653  -0.014126  4.040766  -0.007
C  C35  1  0.51232741  0.06411601  0.68628877  1  0.866493  0.000679  0.14252  0.201057  -0.003829  4.029049  -0.002
C  C36  1  0.93824780  0.48884090  0.18638635  1  0.846599  0.003071  0.130854  0.191555  -0.000355  4.070685  0.001
C  C37  1  0.48984552  0.93753028  0.31396856  1  0.875835  0.002974  0.136271  0.201062  -0.000422  4.063211  0.001
C  C38  1  0.89940863  0.52678859  0.77200400  1  0.814179  -0.005898  0.125647  0.183986  -0.012434  4.112059  -0.006
C  C39  1  0.52201070  0.89654420  0.72956737  1  0.824186  0.000585  0.128506  0.189576  -0.004601  4.089254  -0.003
C  C40  1  0.10233935  0.47698513  0.22861312  1  0.834481  0.001312  0.120342  0.180665  -0.002334  4.091323  -0.001
C  C41  1  0.47913512  0.10378719  0.27031028  1  0.769647  -0.002768  0.123777  0.180516  -0.006509  4.079869  -0.004
O  O42  1  0.08864807  0.26208234  0.02447831  1  -1.066317  0.029827  -0.243918  -0.340966  0.009502  2.444654  0.021
O  O43  1  0.25634093  0.08775763  0.47545306  1  -1.074396  0.034968  -0.243559  -0.348106  0.012434  2.420074  0.027
O  O44  1  0.90769391  0.73633822  0.97586371  1  -1.07575  0.026746  -0.244193  -0.35104  0.007301  2.454349  0.019
O  O45  1  0.73793102  0.90809588  0.52410484  1  -1.082384  0.029955  -0.243566  -0.357255  0.008916  2.428664  0.023
O  O46  1  0.26425339  0.90186445  0.99807408  1  -1.071449  0.02901  -0.238044  -0.332083  0.008743  2.431946  0.022
O  O47  1  0.89788844  0.26844359  0.49853137  1  -1.065515  0.026987  -0.240112  -0.32914  0.007495  2.456627  0.02
O  O48  1  0.72738824  0.09764791  0.00179041  1  -1.080816  0.029821  -0.244759  -0.356172  0.009403  2.440664  0.023
O  O49  1  0.09717916  0.72314469  0.50129076  1  -1.07448  0.026892  -0.246444  -0.350677  0.007445  2.462896  0.019
O  O50  1  0.90255416  0.52747476  0.61840831  1  -1.09215  0.02805  -0.242537  -0.360263  0.00895  2.46125  0.022
O  O51  1  0.52981298  0.90430679  0.88320850  1  -1.091317  0.044256  -0.247421  -0.364315  0.020099  2.477409  0.035
O  O52  1  0.09398982  0.47536168  0.38320445  1  -1.106356  0.040931  -0.254593  -0.393205  0.019161  2.462909  0.033
O  O53  1  0.47545463  0.09121752  0.11558121  1  -1.109565  0.037993  -0.254125  -0.391656  0.017966  2.480703  0.029
O  O54  1  0.57753861  0.79485818  0.03646910  1  -0.975837  0.208284  -0.517408  -0.678903  0.088067  1.885461  0.159
O  O55  1  0.80218702  0.58491185  0.46128232  1  -0.974604  0.207492  -0.517365  -0.678913  0.087831  1.89054  0.158
O  O56  1  0.40724596  0.18514395  0.95379765  1  -0.976241  0.192748  -0.512119  -0.680937  0.079865  1.900776  0.148
O  O57  1  0.17656866  0.40011104  0.54765381  1  -0.966609  0.189469  -0.511996  -0.683267  0.078951  1.908256  0.146
O  O58  1  0.12290875  0.50688368  0.88635589  1  -1.043585  0.009837  -0.219076  -0.299448  -0.006038  2.413359  0.005
O  O59  1  0.50235249  0.12148655  0.61295931  1  -1.050563  0.035527  -0.226238  -0.307663  0.014592  2.427891  0.027
O  O60  1  0.88375499  0.50081124  0.11281224  1  -1.07074  0.033111  -0.238873  -0.344584  0.014321  2.430025  0.026
O  O61  1  0.50175506  0.88480636  0.38810143  1  -1.069026  0.029604  -0.237567  -0.344253  0.012832  2.443864  0.022
O  O62  1  0.18928005  0.57473605  0.04210123  1  -0.980511  0.234601  -0.51053  -0.659159  0.100573  1.903014  0.18
O  O63  1  0.56658255  0.19707407  0.45950649  1  -0.988426  0.232076  -0.512043  -0.66084  0.099557  1.898337  0.178
O  O64  1  0.82488406  0.42056201  0.95258273  1  -0.966941  0.1913  -0.509919  -0.675237  0.080294  1.933141  0.148
O  O65  1  0.42301773  0.81778171  0.54651479  1  -0.953485  0.200167  -0.510288  -0.67394  0.084085  1.922838  0.156
O  O66  1  0.75843191  0.53805749  0.79846036  1  -1.076751  0.020426  -0.242295  -0.355457  0.001532  2.500966  0.015
O  O67  1  0.52897984  0.75183086  0.70325740  1  -1.067865  0.032295  -0.250096  -0.358628  0.012434  2.548137  0.024
O  O68  1  0.24444192  0.46987069  0.20084511  1  -1.119407  0.047879  -0.259576  -0.40062  0.022443  2.514134  0.039
O  O69  1  0.47368935  0.24863685  0.29819741  1  -1.108246  0.040231  -0.259217  -0.390014  0.018742  2.560432  0.032
O  O70  1  0.27840513  0.51549785  0.70097030  1  -1.082561  0.017344  -0.231735  -0.333889  -0.000783  2.439616  0.012
O  O71  1  0.52187688  0.28390280  0.79844984  1  -1.07437  0.032375  -0.24117  -0.338241  0.012412  2.487337  0.023
O  O72  1  0.72432513  0.48877108  0.30015978  1  -1.11626  0.047164  -0.247022  -0.37338  0.022213  2.452298  0.038
O  O73  1  0.48860455  0.71846321  0.20012908  1  -1.099995  0.042026  -0.247923  -0.364448  0.019905  2.495949  0.033
O  O74  1  0.46100132  0.57388610  0.85220316  1  -1.008485  0.206651  -0.513469  -0.676174  0.089063  1.891795  0.158
O  O75  1  0.57600594  0.45800530  0.64901961  1  -0.962036  0.211168  -0.51292  -0.673488  0.091764  1.893283  0.162
O  O76  1  0.54658969  0.42089965  0.15012642  1  -0.974021  0.209473  -0.521739  -0.67662  0.091088  1.884322  0.162
O  O77  1  0.42203455  0.54882697  0.34881514  1  -0.989065  0.205052  -0.520626  -0.674803  0.088739  1.885928  0.157
