# generated using pymatgen
data_Na2H9C9NO11
_symmetry_space_group_name_H-M   'P 1'
_cell_length_a   5.56364052
_cell_length_b   6.65604896
_cell_length_c   18.54502570
_cell_angle_alpha   81.62545823
_cell_angle_beta   85.62131502
_cell_angle_gamma   67.26264366
_symmetry_Int_Tables_number   1
_chemical_formula_structural   Na2H9C9NO11
_chemical_formula_sum   'Na4 H18 C18 N2 O22'
_cell_volume   626.48134017
_cell_formula_units_Z   2
loop_
 _symmetry_equiv_pos_site_id
 _symmetry_equiv_pos_as_xyz
  1  'x, y, z'
loop_
 _atom_site_type_symbol
 _atom_site_label
 _atom_site_symmetry_multiplicity
 _atom_site_fract_x
 _atom_site_fract_y
 _atom_site_fract_z
 _atom_site_occupancy
 _atom_site_hle17_bader_spin_density
 _atom_site_hle17_ddec_charge
 _atom_site_hle17_ddec_spin_density
 _atom_site_hle17_ddec_sum_bond_order
 _atom_site_hle17_magmom
 _atom_site_hse06_10hf_bader_spin_density
 _atom_site_hse06_10hf_ddec_charge
 _atom_site_hse06_10hf_ddec_spin_density
 _atom_site_hse06_10hf_ddec_sum_bond_order
 _atom_site_hse06_10hf_magmom
 _atom_site_hse06_bader_spin_density
 _atom_site_hse06_ddec_charge
 _atom_site_hse06_ddec_spin_density
 _atom_site_hse06_ddec_sum_bond_order
 _atom_site_hse06_magmom
 _atom_site_pbe_bader_spin_density
 _atom_site_pbe_cm5_charge
 _atom_site_pbe_ddec_charge
 _atom_site_pbe_ddec_spin_density
 _atom_site_pbe_ddec_sum_bond_order
 _atom_site_pbe_magmom
Na  Na0  1  0.28901509  0.40905063  0.44572279  1  0  0.898498  0  0.373151  0  0  0.847625  0  0.533284  0  0  0.858908  0  0.510005  0  0  0.657556  0.839306  0  0.54995  0
Na  Na1  1  0.71089147  0.59100829  0.55429099  1  0  0.898491  0  0.373199  0  0  0.847666  0  0.53327  0  0  0.858953  0  0.509987  0  0  0.657591  0.839348  0  0.549937  0
Na  Na2  1  0.69631749  0.05218161  0.05338249  1  0  0.907366  0  0.361218  0  0  0.862508  0  0.5133  0  0  0.873923  0  0.490583  0  0  0.662262  0.854047  0  0.529697  0
Na  Na3  1  0.30380716  0.94771969  0.94661648  1  0  0.907351  0  0.361389  0  0  0.862495  0  0.513495  0  0  0.873915  0  0.490763  0  0  0.662348  0.854032  0  0.529891  0
H  H4  1  0.03573827  0.57799469  0.10236552  1  0  0.097789  0  0.998392  0  0  0.104263  0  1.066946  0  0  0.109115  0  1.0619  0  0  0.120044  0.100678  0  1.070734  0
H  H5  1  0.96434744  0.42197542  0.89761871  1  0  0.097555  0  0.998571  0  0  0.104114  0  1.067037  0  0  0.108977  0  1.061965  0  0  0.119965  0.10053  0  1.070831  0
H  H6  1  0.86449029  0.07944658  0.26180531  1  0  0.392087  0  0.926979  0  0  0.356364  0  1.008558  0  0  0.369669  0  0.990799  0  0  0.294598  0.347131  0  1.020386  0
H  H7  1  0.13547713  0.92056095  0.73820137  1  0  0.392034  0  0.926921  0  0  0.356239  0  1.008713  0  0  0.369535  0  0.990975  0  0  0.294591  0.347011  0  1.020467  0
H  H8  1  0.51044074  0.85126904  0.20737450  1  0  0.386251  0  0.94365  0  0  0.352357  0  1.018502  0  0  0.365361  0  1.001018  0  0  0.293299  0.343308  0  1.030625  0
H  H9  1  0.48959390  0.14871669  0.79263417  1  0  0.385943  0  0.943926  0  0  0.352175  0  1.018707  0  0  0.365182  0  1.001221  0  0  0.293312  0.343129  0  1.030824  0
H  H10  1  0.85367689  0.19968299  0.46390035  1  0  0.408243  0  0.897932  0  0  0.382968  0  0.95346  0  0  0.391936  0  0.940224  0  0  0.298349  0.376635  0  0.962815  0
H  H11  1  0.14624844  0.80035438  0.53610773  1  0  0.408209  0  0.897937  0  0  0.382901  0  0.953549  0  0  0.391871  0  0.940307  0  0  0.298368  0.376565  0  0.962906  0
H  H12  1  0.74340366  0.11027889  0.53572219  1  0  0.41731  0  0.882098  0  0  0.390582  0  0.939564  0  0  0.40026  0  0.925088  0  0  0.299221  0.383738  0  0.949804  0
H  H13  1  0.25651076  0.88975860  0.46428717  1  0  0.417462  0  0.88193  0  0  0.39072  0  0.939396  0  0  0.400397  0  0.924922  0  0  0.299375  0.383874  0  0.949637  0
H  H14  1  0.87529169  0.82156949  0.40191299  1  0  0.421613  0  0.869327  0  0  0.392714  0  0.930241  0  0  0.402899  0  0.91479  0  0  0.29769  0.385418  0  0.941317  0
H  H15  1  0.12466650  0.17846273  0.59809633  1  0  0.421539  0  0.869414  0  0  0.392637  0  0.930346  0  0  0.402821  0  0.914894  0  0  0.297618  0.385339  0  0.941429  0
H  H16  1  0.73779813  0.65678473  0.40327046  1  0  0.418551  0  0.889239  0  0  0.389851  0  0.949338  0  0  0.400663  0  0.93362  0  0  0.290346  0.382185  0  0.960473  0
H  H17  1  0.26208643  0.34327927  0.59674186  1  0  0.418646  0  0.889136  0  0  0.38985  0  0.949366  0  0  0.400666  0  0.93364  0  0  0.290324  0.382185  0  0.9605  0
H  H18  1  0.25257267  0.41000496  0.97065916  1  0  0.42769  0  0.868375  0  0  0.403622  0  0.920962  0  0  0.412545  0  0.90771  0  0  0.301775  0.397301  0  0.93036  0
H  H19  1  0.74753087  0.58995559  0.02934679  1  0  0.427812  0  0.868216  0  0  0.403682  0  0.920921  0  0  0.41261  0  0.907662  0  0  0.3018  0.397351  0  0.930335  0
H  H20  1  0.13170471  0.29243533  0.03525593  1  0  0.416148  0  0.890175  0  0  0.388005  0  0.951404  0  0  0.39726  0  0.937563  0  0  0.297868  0.381461  0  0.961189  0
H  H21  1  0.86836228  0.70755155  0.96474126  1  0  0.415978  0  0.890376  0  0  0.387823  0  0.951603  0  0  0.397082  0  0.937759  0  0  0.297693  0.381284  0  0.96138  0
C  C22  1  0.11056739  0.32120680  0.27516722  1  0  0.1057  0  3.659269  0  0  0.101818  0  3.91401  0  0  0.105241  0  3.929205  0  0  0.136854  0.099546  0  3.903965  0
C  C23  1  0.88940380  0.67882175  0.72482694  1  0  0.105379  0  3.659776  0  0  0.101616  0  3.914435  0  0  0.10502  0  3.929662  0  0  0.136757  0.099349  0  3.90439  0
C  C24  1  0.03020460  0.36926613  0.20149185  1  0  -0.109842  0  3.651031  0  0  -0.094149  0  3.892766  0  0  -0.102456  0  3.912864  0  0  0.00046  -0.089  0  3.879523  0
C  C25  1  0.96980436  0.63073424  0.79850038  1  0  -0.109704  0  3.65077  0  0  -0.094111  0  3.892579  0  0  -0.102408  0  3.912677  0  0  0.000518  -0.088968  0  3.879341  0
C  C26  1  0.09691586  0.53065592  0.15853527  1  0  0.002374  0  3.669289  0  0  -0.038981  0  3.920815  0  0  -0.033594  0  3.934526  0  0  -0.048897  -0.042271  0  3.911575  0
C  C27  1  0.90311362  0.46933108  0.84145187  1  0  0.002615  0  3.669369  0  0  -0.038828  0  3.920929  0  0  -0.033431  0  3.934619  0  0  -0.048855  -0.042132  0  3.911707  0
C  C28  1  0.23848843  0.63857188  0.18351685  1  0  -0.101309  0  3.641095  0  0  -0.086206  0  3.879858  0  0  -0.093494  0  3.898555  0  0  0.003604  -0.081722  0  3.867561  0
C  C29  1  0.76153336  0.36140243  0.81648891  1  0  -0.101352  0  3.641453  0  0  -0.086278  0  3.880182  0  0  -0.093565  0  3.89887  0  0  0.003574  -0.081792  0  3.867879  0
C  C30  1  0.31617523  0.57363390  0.25690268  1  0  0.09956  0  3.68649  0  0  0.094347  0  3.944369  0  0  0.097646  0  3.959562  0  0  0.131422  0.092164  0  3.934289  0
C  C31  1  0.68383188  0.42635357  0.74309942  1  0  0.099379  0  3.686803  0  0  0.094415  0  3.944343  0  0  0.097721  0  3.959519  0  0  0.131412  0.092227  0  3.934263  0
C  C32  1  0.05805849  0.16011676  0.33598363  1  0  0.647558  0  3.810734  0  0  0.585884  0  4.12356  0  0  0.618733  0  4.114785  0  0  0.243193  0.563583  0  4.128996  0
C  C33  1  0.94189213  0.83993336  0.66401628  1  0  0.647741  0  3.810173  0  0  0.586062  0  4.122962  0  0  0.618917  0  4.114174  0  0  0.243233  0.563748  0  4.128435  0
C  C34  1  0.87923270  0.27167482  0.16253707  1  0  0.653644  0  3.872741  0  0  0.595649  0  4.183974  0  0  0.628457  0  4.178034  0  0  0.221367  0.573513  0  4.187369  0
C  C35  1  0.12077983  0.72834665  0.83744696  1  0  0.653902  0  3.872361  0  0  0.595955  0  4.183542  0  0  0.628761  0  4.177589  0  0  0.221616  0.573823  0  4.18694  0
C  C36  1  0.28474379  0.81040314  0.12671172  1  0  0.678633  0  3.867056  0  0  0.629301  0  4.163981  0  0  0.662116  0  4.157029  0  0  0.224885  0.607113  0  4.16809  0
C  C37  1  0.71538853  0.18949449  0.87327004  1  0  0.678837  0  3.867346  0  0  0.629418  0  4.164431  0  0  0.662243  0  4.157456  0  0  0.225057  0.607233  0  4.168549  0
C  C38  1  0.48099410  0.65526548  0.29821091  1  0  0.61539  0  3.850005  0  0  0.557053  0  4.164299  0  0  0.58858  0  4.15743  0  0  0.229759  0.535636  0  4.168469  0
C  C39  1  0.51895651  0.34474241  0.70180740  1  0  0.615202  0  3.849527  0  0  0.556787  0  4.163876  0  0  0.58832  0  4.157008  0  0  0.229535  0.535375  0  4.168046  0
N  N40  1  0.24746186  0.42311858  0.29925905  1  0  -0.300568  0  3.162734  0  0  -0.280487  0  3.434894  0  0  -0.287803  0  3.447543  0  0  -0.310973  -0.27559  0  3.426444  0
N  N41  1  0.75249051  0.57691043  0.70075110  1  0  -0.300423  0  3.163156  0  0  -0.280483  0  3.435259  0  0  -0.287789  0  3.447904  0  0  -0.310932  -0.275593  0  3.426813  0
O  O42  1  0.13509940  0.14902294  0.39844274  1  0  -0.607869  0  2.027863  0  0  -0.553715  0  2.252723  0  0  -0.57476  0  2.240215  0  0  -0.306671  -0.539183  0  2.260979  0
O  O43  1  0.86486232  0.85098267  0.60154635  1  0  -0.608075  0  2.026978  0  0  -0.553871  0  2.251812  0  0  -0.574951  0  2.239368  0  0  -0.306805  -0.539329  0  2.260071  0
O  O44  1  0.93572819  0.04022277  0.32155518  1  0  -0.556644  0  2.106092  0  0  -0.4959  0  2.32816  0  0  -0.520342  0  2.313039  0  0  -0.295956  -0.478934  0  2.337987  0
O  O45  1  0.06420233  0.95982417  0.67844151  1  0  -0.556489  0  2.105972  0  0  -0.495762  0  2.328229  0  0  -0.520192  0  2.313114  0  0  -0.295869  -0.478791  0  2.338025  0
O  O46  1  0.79843822  0.12737628  0.19736255  1  0  -0.565886  0  2.066177  0  0  -0.514111  0  2.297433  0  0  -0.538589  0  2.287274  0  0  -0.305612  -0.497165  0  2.303734  0
O  O47  1  0.20157581  0.87263370  0.80262097  1  0  -0.565872  0  2.066618  0  0  -0.514071  0  2.297973  0  0  -0.538578  0  2.287891  0  0  -0.305643  -0.497134  0  2.30425  0
O  O48  1  0.83632870  0.33312351  0.09535286  1  0  -0.653613  0  2.003518  0  0  -0.596253  0  2.229698  0  0  -0.619018  0  2.218899  0  0  -0.329391  -0.580479  0  2.236767  0
O  O49  1  0.16370234  0.66684381  0.90463313  1  0  -0.653707  0  2.003182  0  0  -0.596406  0  2.229305  0  0  -0.619174  0  2.218535  0  0  -0.32956  -0.580655  0  2.236383  0
O  O50  1  0.16680984  0.85650544  0.06803129  1  0  -0.665314  0  1.965013  0  0  -0.623269  0  2.208567  0  0  -0.644296  0  2.197352  0  0  -0.395386  -0.608662  0  2.215923  0
O  O51  1  0.83339065  0.14339661  0.93195375  1  0  -0.665719  0  1.964701  0  0  -0.623491  0  2.207943  0  0  -0.644561  0  2.196781  0  0  -0.395517  -0.608888  0  2.215307  0
O  O52  1  0.44159472  0.90009526  0.14046377  1  0  -0.634737  0  2.056884  0  0  -0.582703  0  2.290515  0  0  -0.60735  0  2.278362  0  0  -0.356447  -0.565549  0  2.298511  0
O  O53  1  0.55852849  0.09984544  0.85954016  1  0  -0.634371  0  2.057712  0  0  -0.58238  0  2.291312  0  0  -0.607012  0  2.27914  0  0  -0.35637  -0.565235  0  2.299313  0
O  O54  1  0.56250547  0.80507641  0.26624617  1  0  -0.534805  0  2.102247  0  0  -0.481524  0  2.320935  0  0  -0.505012  0  2.3087  0  0  -0.31532  -0.465259  0  2.329041  0
O  O55  1  0.43745003  0.19493776  0.73375986  1  0  -0.534357  0  2.102651  0  0  -0.481191  0  2.321397  0  0  -0.504666  0  2.309161  0  0  -0.315235  -0.464934  0  2.329502  0
O  O56  1  0.53602664  0.57237056  0.36223744  1  0  -0.575588  0  2.045934  0  0  -0.525748  0  2.279418  0  0  -0.54769  0  2.271154  0  0  -0.312876  -0.510633  0  2.284861  0
O  O57  1  0.46386775  0.42768009  0.63776623  1  0  -0.575729  0  2.044653  0  0  -0.525865  0  2.278261  0  0  -0.54783  0  2.270011  0  0  -0.312834  -0.510749  0  2.283706  0
O  O58  1  0.70182674  0.23663768  0.49742092  1  0  -0.879443  0  1.792363  0  0  -0.834324  0  1.953525  0  0  -0.850431  0  1.923208  0  0  -0.66202  -0.822918  0  1.974727  0
O  O59  1  0.29809657  0.76339638  0.50258414  1  0  -0.87965  0  1.792329  0  0  -0.834458  0  1.953482  0  0  -0.850561  0  1.923162  0  0  -0.662239  -0.823053  0  1.974684  0
O  O60  1  0.85981267  0.69186560  0.43101687  1  0  -0.908958  0  1.779856  0  0  -0.865418  0  1.954499  0  0  -0.881817  0  1.920781  0  0  -0.684638  -0.85359  0  1.978188  0
O  O61  1  0.14010215  0.30818332  0.56899081  1  0  -0.908974  0  1.779797  0  0  -0.865338  0  1.954543  0  0  -0.881732  0  1.920828  0  0  -0.684543  -0.853527  0  1.978262  0
O  O62  1  0.28545876  0.27105820  0.00267662  1  0  -0.899739  0  1.809677  0  0  -0.8621  0  1.985846  0  0  -0.876627  0  1.954184  0  0  -0.680348  -0.851747  0  2.008051  0
O  O63  1  0.71460850  0.72889110  0.99732471  1  0  -0.899744  0  1.809792  0  0  -0.86204  0  1.986079  0  0  -0.876574  0  1.954399  0  0  -0.680306  -0.851684  0  2.008292  0
