# generated using pymatgen
data_CaH2(C3O2)2
_symmetry_space_group_name_H-M   'P 1'
_cell_length_a   8.26653630
_cell_length_b   8.26654452
_cell_length_c   8.26653483
_cell_angle_alpha   66.28679500
_cell_angle_beta   66.28690927
_cell_angle_gamma   66.28669519
_symmetry_Int_Tables_number   1
_chemical_formula_structural   CaH2(C3O2)2
_chemical_formula_sum   'Ca3 H6 C18 O12'
_cell_volume   453.64221008
_cell_formula_units_Z   3
loop_
 _symmetry_equiv_pos_site_id
 _symmetry_equiv_pos_as_xyz
  1  'x, y, z'
loop_
 _atom_site_type_symbol
 _atom_site_label
 _atom_site_symmetry_multiplicity
 _atom_site_fract_x
 _atom_site_fract_y
 _atom_site_fract_z
 _atom_site_occupancy
 _atom_site_hle17_bader_spin_density
 _atom_site_hle17_ddec_charge
 _atom_site_hle17_ddec_spin_density
 _atom_site_hle17_ddec_sum_bond_order
 _atom_site_hle17_magmom
 _atom_site_hse06_10hf_bader_spin_density
 _atom_site_hse06_10hf_ddec_charge
 _atom_site_hse06_10hf_ddec_spin_density
 _atom_site_hse06_10hf_ddec_sum_bond_order
 _atom_site_hse06_10hf_magmom
 _atom_site_hse06_bader_spin_density
 _atom_site_hse06_ddec_charge
 _atom_site_hse06_ddec_spin_density
 _atom_site_hse06_ddec_sum_bond_order
 _atom_site_hse06_magmom
 _atom_site_pbe_bader_spin_density
 _atom_site_pbe_cm5_charge
 _atom_site_pbe_ddec_charge
 _atom_site_pbe_ddec_spin_density
 _atom_site_pbe_ddec_sum_bond_order
 _atom_site_pbe_magmom
Ca  Ca0  1  0.32603355  0.32603010  0.32603535  1  0  1.584744  0  1.13289  0  0  1.459382  0  1.489465  0  0  1.50337  0  1.4423  0  0  0.939181  1.426211  0  1.522915  0
Ca  Ca1  1  0.67396440  0.67396680  0.67396584  1  0  1.58473  0  1.132885  0  0  1.459496  0  1.48923  0  0  1.503344  0  1.442319  0  0  0.939192  1.426329  0  1.522671  0
Ca  Ca2  1  0.49999632  0.49999843  0.49999805  1  0  1.569425  0  1.196049  0  0  1.448217  0  1.547561  0  0  1.491082  0  1.5032  0  0  0.966373  1.415989  0  1.57873  0
H  H3  1  0.63122781  0.92586022  0.18050774  1  0  0.107322  0  0.945204  0  0  0.11242  0  1.016762  0  0  0.117301  0  1.01147  0  0  0.123521  0.108837  0  1.020623  0
H  H4  1  0.18050861  0.63122585  0.92586145  1  0  0.107337  0  0.945133  0  0  0.112408  0  1.016711  0  0  0.117283  0  1.011433  0  0  0.123535  0.108828  0  1.020567  0
H  H5  1  0.92586558  0.18050647  0.63122668  1  0  0.107343  0  0.945151  0  0  0.112403  0  1.016738  0  0  0.11728  0  1.011456  0  0  0.123512  0.108825  0  1.020592  0
H  H6  1  0.36877502  0.07413807  0.81949091  1  0  0.107338  0  0.94514  0  0  0.112406  0  1.016717  0  0  0.117282  0  1.011437  0  0  0.123534  0.108826  0  1.020575  0
H  H7  1  0.81949277  0.36876829  0.07413826  1  0  0.107361  0  0.945135  0  0  0.112426  0  1.016711  0  0  0.117304  0  1.011426  0  0  0.123511  0.108833  0  1.020582  0
H  H8  1  0.07414069  0.81948907  0.36877168  1  0  0.107356  0  0.945151  0  0  0.112451  0  1.016697  0  0  0.11733  0  1.011409  0  0  0.123537  0.108858  0  1.02057  0
C  C9  1  0.75192323  0.91737672  0.06056334  1  0  -0.026073  0  3.661906  0  0  -0.069438  0  3.91266  0  0  -0.063637  0  3.929567  0  0  -0.051391  -0.072696  0  3.901032  0
C  C10  1  0.06056246  0.75192007  0.91737984  1  0  -0.026076  0  3.661864  0  0  -0.069378  0  3.912663  0  0  -0.06358  0  3.929568  0  0  -0.051437  -0.07264  0  3.901034  0
C  C11  1  0.91737854  0.06056145  0.75192284  1  0  -0.026082  0  3.661899  0  0  -0.069343  0  3.912703  0  0  -0.063542  0  3.929608  0  0  -0.051375  -0.072605  0  3.901072  0
C  C12  1  0.24808001  0.08262020  0.93943691  1  0  -0.02606  0  3.661811  0  0  -0.069345  0  3.912609  0  0  -0.063543  0  3.929513  0  0  -0.051404  -0.07261  0  3.900985  0
C  C13  1  0.93943893  0.24807408  0.08262228  1  0  -0.026034  0  3.661852  0  0  -0.069291  0  3.912641  0  0  -0.063488  0  3.929547  0  0  -0.051337  -0.072539  0  3.901016  0
C  C14  1  0.08262245  0.93943408  0.24807768  1  0  -0.026092  0  3.661928  0  0  -0.069393  0  3.912684  0  0  -0.06359  0  3.929588  0  0  -0.051387  -0.072644  0  3.901062  0
C  C15  1  0.90271411  0.75907538  0.06910453  1  0  -0.095235  0  3.737127  0  0  -0.065218  0  3.971511  0  0  -0.077287  0  3.995549  0  0  -0.009434  -0.05762  0  3.955398  0
C  C16  1  0.06910401  0.90271143  0.75907869  1  0  -0.09522  0  3.737004  0  0  -0.065414  0  3.971672  0  0  -0.077482  0  3.995708  0  0  -0.009445  -0.057815  0  3.955559  0
C  C17  1  0.75907728  0.06910175  0.90271580  1  0  -0.095216  0  3.737058  0  0  -0.065311  0  3.971571  0  0  -0.07738  0  3.995607  0  0  -0.009461  -0.057713  0  3.955455  0
C  C18  1  0.09728688  0.24092016  0.93089719  1  0  -0.095258  0  3.737036  0  0  -0.065446  0  3.971611  0  0  -0.077518  0  3.995647  0  0  -0.009462  -0.057846  0  3.955493  0
C  C19  1  0.93089869  0.09728271  0.24092048  1  0  -0.095274  0  3.737182  0  0  -0.065437  0  3.971745  0  0  -0.077508  0  3.995782  0  0  -0.009498  -0.057839  0  3.955624  0
C  C20  1  0.24092332  0.93089517  0.09728793  1  0  -0.095198  0  3.737113  0  0  -0.065285  0  3.971581  0  0  -0.077354  0  3.995616  0  0  -0.009444  -0.057685  0  3.955461  0
C  C21  1  0.90411837  0.60803318  0.24743162  1  0  0.728224  0  3.863579  0  0  0.676009  0  4.156427  0  0  0.711664  0  4.146563  0  0  0.251697  0.651542  0  4.162606  0
C  C22  1  0.24743450  0.90411739  0.60803268  1  0  0.728196  0  3.86343  0  0  0.676029  0  4.156313  0  0  0.711684  0  4.146453  0  0  0.251732  0.651563  0  4.162488  0
C  C23  1  0.60803484  0.24742941  0.90411887  1  0  0.728211  0  3.863652  0  0  0.676059  0  4.156457  0  0  0.711714  0  4.146591  0  0  0.251699  0.651596  0  4.162625  0
C  C24  1  0.09587746  0.39196647  0.75256811  1  0  0.728213  0  3.863558  0  0  0.676151  0  4.156259  0  0  0.711807  0  4.146397  0  0  0.25176  0.651685  0  4.162436  0
C  C25  1  0.75257267  0.09587952  0.39195993  1  0  0.728257  0  3.863547  0  0  0.676146  0  4.15631  0  0  0.711799  0  4.146452  0  0  0.251752  0.651684  0  4.16248  0
C  C26  1  0.39196271  0.75256887  0.09588193  1  0  0.728196  0  3.863568  0  0  0.676062  0  4.156334  0  0  0.711716  0  4.146474  0  0  0.251715  0.6516  0  4.162498  0
O  O27  1  0.05377274  0.48610702  0.26355175  1  0  -0.701571  0  1.967734  0  0  -0.64586  0  2.221264  0  0  -0.673021  0  2.208645  0  0  -0.372992  -0.626582  0  2.229485  0
O  O28  1  0.26354930  0.05377327  0.48610867  1  0  -0.701534  0  1.967705  0  0  -0.645835  0  2.221254  0  0  -0.672998  0  2.208639  0  0  -0.373012  -0.626558  0  2.229476  0
O  O29  1  0.48611030  0.26354819  0.05377122  1  0  -0.701537  0  1.967777  0  0  -0.645836  0  2.221286  0  0  -0.672995  0  2.208668  0  0  -0.372973  -0.62656  0  2.229504  0
O  O30  1  0.94622377  0.51388574  0.73645171  1  0  -0.701522  0  1.96785  0  0  -0.645884  0  2.221325  0  0  -0.673018  0  2.208736  0  0  -0.372975  -0.62661  0  2.229545  0
O  O31  1  0.73645535  0.94622776  0.51387966  1  0  -0.701538  0  1.967806  0  0  -0.645874  0  2.221293  0  0  -0.673006  0  2.208705  0  0  -0.372978  -0.626601  0  2.229512  0
O  O32  1  0.51388329  0.73645009  0.94623118  1  0  -0.70153  0  1.967832  0  0  -0.645867  0  2.221323  0  0  -0.673  0  2.208736  0  0  -0.372972  -0.626594  0  2.229543  0
O  O33  1  0.75192301  0.61450352  0.37866966  1  0  -0.802512  0  2.017855  0  0  -0.735741  0  2.280543  0  0  -0.764634  0  2.266322  0  0  -0.415506  -0.714879  0  2.289609  0
O  O34  1  0.37867453  0.75192032  0.61450307  1  0  -0.80246  0  2.017772  0  0  -0.735678  0  2.280449  0  0  -0.764564  0  2.266219  0  0  -0.4155  -0.714816  0  2.289515  0
O  O35  1  0.61450525  0.37866911  0.75192324  1  0  -0.802547  0  2.017876  0  0  -0.73579  0  2.280532  0  0  -0.764683  0  2.266313  0  0  -0.415526  -0.714928  0  2.289597  0
O  O36  1  0.24807067  0.38549885  0.62132137  1  0  -0.802532  0  2.017814  0  0  -0.735777  0  2.280451  0  0  -0.764687  0  2.266209  0  0  -0.415584  -0.714913  0  2.289517  0
O  O37  1  0.62132460  0.24807244  0.38549690  1  0  -0.802592  0  2.017802  0  0  -0.735828  0  2.280463  0  0  -0.764739  0  2.266222  0  0  -0.415588  -0.714967  0  2.289532  0
O  O38  1  0.38549732  0.62132089  0.24807404  1  0  -0.80256  0  2.017803  0  0  -0.735799  0  2.280483  0  0  -0.764708  0  2.26624  0  0  -0.415575  -0.714945  0  2.289572  0
