# generated using pymatgen
data_BaH14(C2O3)4
_symmetry_space_group_name_H-M   'P 1'
_cell_length_a   6.44079660
_cell_length_b   11.50378592
_cell_length_c   18.95851638
_cell_angle_alpha   89.99994036
_cell_angle_beta   90.00020298
_cell_angle_gamma   93.13219365
_symmetry_Int_Tables_number   1
_chemical_formula_structural   BaH14(C2O3)4
_chemical_formula_sum   'Ba4 H56 C32 O48'
_cell_volume   1402.60524024
_cell_formula_units_Z   4
loop_
 _symmetry_equiv_pos_site_id
 _symmetry_equiv_pos_as_xyz
  1  'x, y, z'
loop_
 _atom_site_type_symbol
 _atom_site_label
 _atom_site_symmetry_multiplicity
 _atom_site_fract_x
 _atom_site_fract_y
 _atom_site_fract_z
 _atom_site_occupancy
 _atom_site_hle17_bader_spin_density
 _atom_site_hle17_ddec_charge
 _atom_site_hle17_ddec_spin_density
 _atom_site_hle17_ddec_sum_bond_order
 _atom_site_hle17_magmom
 _atom_site_hse06_10hf_bader_spin_density
 _atom_site_hse06_10hf_ddec_charge
 _atom_site_hse06_10hf_ddec_spin_density
 _atom_site_hse06_10hf_ddec_sum_bond_order
 _atom_site_hse06_10hf_magmom
 _atom_site_hse06_bader_spin_density
 _atom_site_hse06_ddec_charge
 _atom_site_hse06_ddec_spin_density
 _atom_site_hse06_ddec_sum_bond_order
 _atom_site_hse06_magmom
 _atom_site_pbe_bader_spin_density
 _atom_site_pbe_cm5_charge
 _atom_site_pbe_ddec_charge
 _atom_site_pbe_ddec_spin_density
 _atom_site_pbe_ddec_sum_bond_order
 _atom_site_pbe_magmom
Ba  Ba0  1  0.51169784  0.29943080  0.48855268  1  0  1.672052  0  1.122054  0  0  1.526731  0  1.526006  0  0  1.564985  0  1.47995  0  0  0.937845  1.498611  0  1.558707  0
Ba  Ba1  1  0.48830177  0.20056970  0.98855227  1  0  1.672017  0  1.122086  0  0  1.526695  0  1.526049  0  0  1.56495  0  1.479994  0  0  0.937842  1.498563  0  1.558772  0
Ba  Ba2  1  0.48830436  0.70056712  0.51144780  1  0  1.672051  0  1.122027  0  0  1.526722  0  1.525979  0  0  1.564975  0  1.479923  0  0  0.937838  1.498564  0  1.558741  0
Ba  Ba3  1  0.51169607  0.79943169  0.01144821  1  0  1.672054  0  1.122039  0  0  1.52673  0  1.525988  0  0  1.564984  0  1.479932  0  0  0.937838  1.498586  0  1.558735  0
H  H4  1  0.71373172  0.37273279  0.28132612  1  0  0.386085  0  0.935345  0  0  0.354607  0  1.011305  0  0  0.367532  0  0.994088  0  0  0.293284  0.345652  0  1.020741  0
H  H5  1  0.28626872  0.12726628  0.78132709  1  0  0.386034  0  0.935398  0  0  0.354592  0  1.011313  0  0  0.367517  0  0.994097  0  0  0.293275  0.345637  0  1.020723  0
H  H6  1  0.28626901  0.62726601  0.71867277  1  0  0.386049  0  0.935409  0  0  0.354638  0  1.011243  0  0  0.36755  0  0.994049  0  0  0.293309  0.345684  0  1.02066  0
H  H7  1  0.71372912  0.87273511  0.21867286  1  0  0.386094  0  0.935397  0  0  0.354656  0  1.011237  0  0  0.367582  0  0.99402  0  0  0.293321  0.345702  0  1.020707  0
H  H8  1  0.03435102  0.18829252  0.51785166  1  0  0.414427  0  0.890917  0  0  0.387579  0  0.948158  0  0  0.398354  0  0.932349  0  0  0.297076  0.379943  0  0.959347  0
H  H9  1  0.96565152  0.31170868  0.01785156  1  0  0.414399  0  0.890951  0  0  0.387553  0  0.948186  0  0  0.398328  0  0.932377  0  0  0.297061  0.379918  0  0.959375  0
H  H10  1  0.96565303  0.81170889  0.48214829  1  0  0.414395  0  0.890957  0  0  0.387546  0  0.948197  0  0  0.398321  0  0.932389  0  0  0.297054  0.37991  0  0.959386  0
H  H11  1  0.03435083  0.68829099  0.98214839  1  0  0.414379  0  0.890982  0  0  0.387527  0  0.948228  0  0  0.398304  0  0.932416  0  0  0.297062  0.379892  0  0.959417  0
H  H12  1  0.14535019  0.15070160  0.58782768  1  0  0.421672  0  0.878376  0  0  0.387275  0  0.947697  0  0  0.398849  0  0.93068  0  0  0.292118  0.379068  0  0.959747  0
H  H13  1  0.85465158  0.34930036  0.08782743  1  0  0.42157  0  0.8785  0  0  0.387146  0  0.947873  0  0  0.398721  0  0.930854  0  0  0.29207  0.378939  0  0.959923  0
H  H14  1  0.85465075  0.84929980  0.41217227  1  0  0.421678  0  0.878365  0  0  0.387275  0  0.947697  0  0  0.39885  0  0.930678  0  0  0.292124  0.379069  0  0.959746  0
H  H15  1  0.14535239  0.65070018  0.91217253  1  0  0.421466  0  0.878611  0  0  0.387024  0  0.94802  0  0  0.398601  0  0.930998  0  0  0.292036  0.378817  0  0.96007  0
H  H16  1  0.24953205  0.46558052  0.24411246  1  0  0.38436  0  0.935527  0  0  0.350955  0  1.015675  0  0  0.36374  0  0.99918  0  0  0.292985  0.342103  0  1.023122  0
H  H17  1  0.75047126  0.03442036  0.74411247  1  0  0.384388  0  0.935454  0  0  0.351006  0  1.015543  0  0  0.363787  0  0.999092  0  0  0.292966  0.342156  0  1.022989  0
H  H18  1  0.75047348  0.53442003  0.75588907  1  0  0.384361  0  0.93543  0  0  0.351005  0  1.01547  0  0  0.363788  0  0.999075  0  0  0.292933  0.342155  0  1.022915  0
H  H19  1  0.24952946  0.96557843  0.25588801  1  0  0.384306  0  0.935562  0  0  0.350906  0  1.015697  0  0  0.363691  0  0.999236  0  0  0.292948  0.342056  0  1.023141  0
H  H20  1  0.97874673  0.35264804  0.56244903  1  0  0.426727  0  0.867247  0  0  0.40004  0  0.924146  0  0  0.409589  0  0.910146  0  0  0.302241  0.393219  0  0.934149  0
H  H21  1  0.02125316  0.14735309  0.06244842  1  0  0.4267  0  0.867287  0  0  0.40003  0  0.924149  0  0  0.409578  0  0.910152  0  0  0.302264  0.393208  0  0.934157  0
H  H22  1  0.02125259  0.64735249  0.43755145  1  0  0.42672  0  0.867254  0  0  0.400019  0  0.924176  0  0  0.409568  0  0.910177  0  0  0.302233  0.393198  0  0.934179  0
H  H23  1  0.97874778  0.85264831  0.93755101  1  0  0.426763  0  0.867221  0  0  0.400059  0  0.924147  0  0  0.409611  0  0.910142  0  0  0.30225  0.393239  0  0.934149  0
H  H24  1  0.89399286  0.48055316  0.56518385  1  0  0.428776  0  0.852725  0  0  0.397316  0  0.921773  0  0  0.407941  0  0.905915  0  0  0.308997  0.389707  0  0.933122  0
H  H25  1  0.10600706  0.01944796  0.06518396  1  0  0.428711  0  0.852773  0  0  0.397277  0  0.921819  0  0  0.407903  0  0.90596  0  0  0.308982  0.389669  0  0.933169  0
H  H26  1  0.10600661  0.51944911  0.43481610  1  0  0.428777  0  0.852751  0  0  0.397313  0  0.921773  0  0  0.407937  0  0.905917  0  0  0.309001  0.389706  0  0.933121  0
H  H27  1  0.89399226  0.98055256  0.93481758  1  0  0.428793  0  0.852751  0  0  0.397337  0  0.921754  0  0  0.407962  0  0.905897  0  0  0.308989  0.389728  0  0.933105  0
H  H28  1  0.37129125  0.03386036  0.39891645  1  0  0.431849  0  0.867329  0  0  0.396899  0  0.937214  0  0  0.408426  0  0.920225  0  0  0.294289  0.388706  0  0.949279  0
H  H29  1  0.62869982  0.46614198  0.89891762  1  0  0.431867  0  0.867313  0  0  0.396919  0  0.937186  0  0  0.40844  0  0.920207  0  0  0.294325  0.388726  0  0.949252  0
H  H30  1  0.62869882  0.96614100  0.60108297  1  0  0.431867  0  0.867303  0  0  0.396921  0  0.937174  0  0  0.40844  0  0.920198  0  0  0.29432  0.388727  0  0.94924  0
H  H31  1  0.37129366  0.53386287  0.10108339  1  0  0.431876  0  0.867301  0  0  0.396941  0  0.937162  0  0  0.408466  0  0.920177  0  0  0.294326  0.388748  0  0.949227  0
H  H32  1  0.34897856  0.01980523  0.48019390  1  0  0.425643  0  0.836781  0  0  0.405511  0  0.898189  0  0  0.414454  0  0.884735  0  0  0.322739  0.399073  0  0.906473  0
H  H33  1  0.65104559  0.48019277  0.98019350  1  0  0.425603  0  0.836746  0  0  0.405471  0  0.898221  0  0  0.414411  0  0.884772  0  0  0.32273  0.399034  0  0.906438  0
H  H34  1  0.65104665  0.98018931  0.51980658  1  0  0.425586  0  0.836803  0  0  0.405449  0  0.898258  0  0  0.414392  0  0.884806  0  0  0.322739  0.39901  0  0.906504  0
H  H35  1  0.34897695  0.51980698  0.01980645  1  0  0.425649  0  0.836783  0  0  0.405518  0  0.898181  0  0  0.414462  0  0.884725  0  0  0.322736  0.39908  0  0.90647  0
H  H36  1  0.97232030  0.23987328  0.41932921  1  0  0.414481  0  0.891846  0  0  0.384057  0  0.955879  0  0  0.39425  0  0.94098  0  0  0.300674  0.376834  0  0.966426  0
H  H37  1  0.02767704  0.26012732  0.91932820  1  0  0.414473  0  0.891845  0  0  0.384052  0  0.955871  0  0  0.394243  0  0.940977  0  0  0.30067  0.376829  0  0.966419  0
H  H38  1  0.02768057  0.76012725  0.58067180  1  0  0.414465  0  0.891855  0  0  0.384048  0  0.955875  0  0  0.394238  0  0.940982  0  0  0.300659  0.376825  0  0.966422  0
H  H39  1  0.97232213  0.73987147  0.08067070  1  0  0.41449  0  0.891829  0  0  0.384068  0  0.955856  0  0  0.394259  0  0.940961  0  0  0.30066  0.376845  0  0.966402  0
H  H40  1  0.86000266  0.11289679  0.41365627  1  0  0.422333  0  0.880749  0  0  0.387112  0  0.9512  0  0  0.398263  0  0.934805  0  0  0.293149  0.379246  0  0.96275  0
H  H41  1  0.13999928  0.38710383  0.91365532  1  0  0.422356  0  0.880729  0  0  0.387112  0  0.951221  0  0  0.398264  0  0.934824  0  0  0.293137  0.37924  0  0.962779  0
H  H42  1  0.14000124  0.88710288  0.58634474  1  0  0.422378  0  0.880698  0  0  0.387141  0  0.951179  0  0  0.398293  0  0.934784  0  0  0.293155  0.379269  0  0.962738  0
H  H43  1  0.86000151  0.61289583  0.08634411  1  0  0.422346  0  0.880745  0  0  0.387119  0  0.951205  0  0  0.398272  0  0.934808  0  0  0.29316  0.379252  0  0.962757  0
H  H44  1  0.69702553  0.67413015  0.32990050  1  0  0.133318  0  0.949576  0  0  0.137601  0  1.015855  0  0  0.141938  0  1.013258  0  0  0.119811  0.134529  0  1.017798  0
H  H45  1  0.30297204  0.82586905  0.82990242  1  0  0.1333  0  0.949616  0  0  0.137563  0  1.015924  0  0  0.141898  0  1.01333  0  0  0.119801  0.13449  0  1.017869  0
H  H46  1  0.30297512  0.32586777  0.67009893  1  0  0.13331  0  0.949614  0  0  0.137593  0  1.015901  0  0  0.141928  0  1.013306  0  0  0.119816  0.134519  0  1.017844  0
H  H47  1  0.69703039  0.17413148  0.17009806  1  0  0.133308  0  0.949604  0  0  0.137552  0  1.015943  0  0  0.141885  0  1.013354  0  0  0.119807  0.134481  0  1.017885  0
H  H48  1  0.78108756  0.65733488  0.21082794  1  0  0.122391  0  0.942812  0  0  0.133084  0  0.99972  0  0  0.13676  0  0.998322  0  0  0.115854  0.130424  0  1.000886  0
H  H49  1  0.21891344  0.84266451  0.71082975  1  0  0.122402  0  0.942806  0  0  0.133091  0  0.999708  0  0  0.136768  0  0.998311  0  0  0.115852  0.130432  0  1.000875  0
H  H50  1  0.21891642  0.34266566  0.78917201  1  0  0.122409  0  0.942775  0  0  0.133095  0  0.999686  0  0  0.136771  0  0.998288  0  0  0.115854  0.130434  0  1.000854  0
H  H51  1  0.78108587  0.15733601  0.28917126  1  0  0.122397  0  0.942796  0  0  0.133081  0  0.999701  0  0  0.136759  0  0.9983  0  0  0.115845  0.130422  0  1.000867  0
H  H52  1  0.26623729  0.16738308  0.19059625  1  0  0.128466  0  0.959925  0  0  0.134504  0  1.023947  0  0  0.138689  0  1.021239  0  0  0.116911  0.131503  0  1.026029  0
H  H53  1  0.73376089  0.33261872  0.69059868  1  0  0.128415  0  0.959928  0  0  0.134458  0  1.023952  0  0  0.138642  0  1.021245  0  0  0.116908  0.131455  0  1.026035  0
H  H54  1  0.73375596  0.83261916  0.80940160  1  0  0.128424  0  0.959928  0  0  0.134467  0  1.023955  0  0  0.13865  0  1.021248  0  0  0.116913  0.131464  0  1.026039  0
H  H55  1  0.26624457  0.66738096  0.30940233  1  0  0.128425  0  0.959928  0  0  0.134468  0  1.023963  0  0  0.138652  0  1.021255  0  0  0.116908  0.131466  0  1.026045  0
H  H56  1  0.18255596  0.17838400  0.31119846  1  0  0.126247  0  0.938728  0  0  0.135696  0  0.996042  0  0  0.139667  0  0.994466  0  0  0.116958  0.132835  0  0.997307  0
H  H57  1  0.81743857  0.32161501  0.81120100  1  0  0.126284  0  0.9387  0  0  0.135716  0  0.996041  0  0  0.139709  0  0.994412  0  0  0.116929  0.132855  0  0.997305  0
H  H58  1  0.81744158  0.82161391  0.68880044  1  0  0.126264  0  0.938708  0  0  0.135694  0  0.996056  0  0  0.139691  0  0.99442  0  0  0.11695  0.132836  0  0.997319  0
H  H59  1  0.18255749  0.67838377  0.18880106  1  0  0.126246  0  0.938737  0  0  0.135706  0  0.996048  0  0  0.139676  0  0.994472  0  0  0.116967  0.13285  0  0.997306  0
C  C60  1  0.65426758  0.49384762  0.36229336  1  0  0.696106  0  3.871528  0  0  0.650199  0  4.162363  0  0  0.685058  0  4.152002  0  0  0.226052  0.62659  0  4.16871  0
C  C61  1  0.34573066  0.00615219  0.86229500  1  0  0.696338  0  3.871211  0  0  0.650258  0  4.162303  0  0  0.685117  0  4.151943  0  0  0.226127  0.626649  0  4.16865  0
C  C62  1  0.34573300  0.50614943  0.63770554  1  0  0.696186  0  3.871532  0  0  0.650265  0  4.162398  0  0  0.685124  0  4.152039  0  0  0.226133  0.626658  0  4.168739  0
C  C63  1  0.65427021  0.99384834  0.13770548  1  0  0.69638  0  3.871295  0  0  0.65031  0  4.162374  0  0  0.685171  0  4.152014  0  0  0.226146  0.626701  0  4.168718  0
C  C64  1  0.70535524  0.58613334  0.30899594  1  0  -0.147769  0  3.600002  0  0  -0.168181  0  3.860025  0  0  -0.172555  0  3.872602  0  0  -0.065081  -0.165332  0  3.851679  0
C  C65  1  0.29464366  0.91386590  0.80899674  1  0  -0.147833  0  3.599901  0  0  -0.168198  0  3.859987  0  0  -0.172571  0  3.872567  0  0  -0.065119  -0.16535  0  3.851646  0
C  C66  1  0.29464075  0.41386456  0.69100296  1  0  -0.147863  0  3.600087  0  0  -0.168287  0  3.860105  0  0  -0.17266  0  3.872685  0  0  -0.065125  -0.16544  0  3.851765  0
C  C67  1  0.70536031  0.08613464  0.19100269  1  0  -0.1479  0  3.599956  0  0  -0.168274  0  3.860057  0  0  -0.172648  0  3.872634  0  0  -0.06516  -0.165427  0  3.851716  0
C  C68  1  0.75527422  0.57643071  0.24030389  1  0  -0.169679  0  3.63396  0  0  -0.191408  0  3.896716  0  0  -0.197264  0  3.910945  0  0  -0.075971  -0.187513  0  3.887148  0
C  C69  1  0.24472553  0.92356864  0.74030568  1  0  -0.169705  0  3.633974  0  0  -0.191406  0  3.896687  0  0  -0.197265  0  3.910917  0  0  -0.075968  -0.187512  0  3.887122  0
C  C70  1  0.24472347  0.42356894  0.75969395  1  0  -0.169623  0  3.633932  0  0  -0.191307  0  3.896665  0  0  -0.197165  0  3.9109  0  0  -0.075941  -0.187415  0  3.887098  0
C  C71  1  0.75527548  0.07643364  0.25969375  1  0  -0.169678  0  3.633983  0  0  -0.191342  0  3.896689  0  0  -0.197199  0  3.910912  0  0  -0.075927  -0.187448  0  3.887122  0
C  C72  1  0.78433579  0.47132823  0.19668502  1  0  0.693544  0  3.829178  0  0  0.637286  0  4.137479  0  0  0.672231  0  4.127057  0  0  0.226895  0.61363  0  4.143953  0
C  C73  1  0.21566533  0.02867096  0.69668544  1  0  0.693571  0  3.829139  0  0  0.637332  0  4.137404  0  0  0.67228  0  4.126977  0  0  0.22692  0.613676  0  4.143884  0
C  C74  1  0.21566352  0.52867229  0.80331282  1  0  0.693589  0  3.828991  0  0  0.637286  0  4.137331  0  0  0.672226  0  4.126923  0  0  0.226945  0.613634  0  4.143804  0
C  C75  1  0.78433710  0.97132958  0.30331399  1  0  0.693659  0  3.82899  0  0  0.637379  0  4.137321  0  0  0.672331  0  4.126887  0  0  0.226927  0.613724  0  4.143799  0
C  C76  1  0.32429199  0.34799686  0.16264203  1  0  0.699767  0  3.862289  0  0  0.650652  0  4.157664  0  0  0.684982  0  4.147353  0  0  0.225916  0.627355  0  4.164038  0
C  C77  1  0.67570752  0.15200585  0.66264293  1  0  0.699607  0  3.862613  0  0  0.650564  0  4.157843  0  0  0.684901  0  4.147521  0  0  0.225852  0.627268  0  4.164223  0
C  C78  1  0.67570599  0.65200627  0.83735845  1  0  0.699765  0  3.862548  0  0  0.650691  0  4.157806  0  0  0.685019  0  4.147504  0  0  0.225904  0.627399  0  4.164182  0
C  C79  1  0.32429476  0.84799294  0.33735966  1  0  0.699721  0  3.862449  0  0  0.650606  0  4.157801  0  0  0.685006  0  4.147387  0  0  0.225926  0.627308  0  4.16418  0
C  C80  1  0.26336553  0.25386178  0.21411441  1  0  -0.133852  0  3.592195  0  0  -0.156015  0  3.850458  0  0  -0.159079  0  3.863367  0  0  -0.06333  -0.153979  0  3.841815  0
C  C81  1  0.73662992  0.24614171  0.71411585  1  0  -0.133564  0  3.592014  0  0  -0.155801  0  3.850316  0  0  -0.158871  0  3.863232  0  0  -0.063246  -0.153769  0  3.841676  0
C  C82  1  0.73662942  0.74614221  0.78588396  1  0  -0.13368  0  3.592037  0  0  -0.155903  0  3.850348  0  0  -0.158971  0  3.86327  0  0  -0.06329  -0.153872  0  3.841709  0
C  C83  1  0.26336932  0.75385794  0.28588463  1  0  -0.133687  0  3.592084  0  0  -0.155896  0  3.850423  0  0  -0.158979  0  3.863309  0  0  -0.063278  -0.153863  0  3.841783  0
C  C84  1  0.19327708  0.36411775  0.32857529  1  0  0.696187  0  3.846746  0  0  0.64133  0  4.152178  0  0  0.676856  0  4.141121  0  0  0.232711  0.61727  0  4.159038  0
C  C85  1  0.80671600  0.13588035  0.82857636  1  0  0.696412  0  3.846372  0  0  0.641395  0  4.152029  0  0  0.676916  0  4.14098  0  0  0.232753  0.617334  0  4.158892  0
C  C86  1  0.80671884  0.63587928  0.67142677  1  0  0.696118  0  3.846712  0  0  0.641327  0  4.152059  0  0  0.676847  0  4.141015  0  0  0.232731  0.617266  0  4.158919  0
C  C87  1  0.19327991  0.86411668  0.17142571  1  0  0.696276  0  3.846497  0  0  0.641327  0  4.152073  0  0  0.676852  0  4.141019  0  0  0.232719  0.617266  0  4.158935  0
C  C88  1  0.21287659  0.26031516  0.28296470  1  0  -0.189279  0  3.640871  0  0  -0.20618  0  3.900169  0  0  -0.213625  0  3.91459  0  0  -0.077999  -0.20119  0  3.890477  0
C  C89  1  0.78711610  0.23968387  0.78296726  1  0  -0.189508  0  3.640679  0  0  -0.206348  0  3.900051  0  0  -0.213796  0  3.914475  0  0  -0.078015  -0.201357  0  3.890362  0
C  C90  1  0.78712110  0.73968448  0.71703420  1  0  -0.189328  0  3.640786  0  0  -0.206236  0  3.900086  0  0  -0.213684  0  3.91451  0  0  -0.07801  -0.201246  0  3.890395  0
C  C91  1  0.21287989  0.76031403  0.21703428  1  0  -0.189367  0  3.640872  0  0  -0.206264  0  3.900247  0  0  -0.213707  0  3.914666  0  0  -0.078046  -0.201275  0  3.89055  0
O  O92  1  0.65981496  0.38445727  0.34617715  1  0  -0.645079  0  2.038714  0  0  -0.586234  0  2.26142  0  0  -0.613188  0  2.250553  0  0  -0.330453  -0.567508  0  2.267381  0
O  O93  1  0.34018458  0.11554171  0.84617820  1  0  -0.645161  0  2.03873  0  0  -0.586266  0  2.261479  0  0  -0.61322  0  2.250614  0  0  -0.330502  -0.567537  0  2.267429  0
O  O94  1  0.34018561  0.61553979  0.65382174  1  0  -0.645121  0  2.038833  0  0  -0.586313  0  2.261515  0  0  -0.613259  0  2.250654  0  0  -0.33053  -0.567584  0  2.267466  0
O  O95  1  0.65981481  0.88445969  0.15382176  1  0  -0.645204  0  2.038836  0  0  -0.586324  0  2.261579  0  0  -0.613275  0  2.250708  0  0  -0.330549  -0.567595  0  2.267552  0
O  O96  1  0.20623615  0.46819580  0.30173139  1  0  -0.557969  0  2.1083  0  0  -0.499561  0  2.332799  0  0  -0.525277  0  2.320122  0  0  -0.30807  -0.481862  0  2.338825  0
O  O97  1  0.79376294  0.03180323  0.80173040  1  0  -0.558032  0  2.108188  0  0  -0.499589  0  2.332707  0  0  -0.525312  0  2.320074  0  0  -0.308092  -0.481894  0  2.338734  0
O  O98  1  0.79376775  0.53180387  0.69827014  1  0  -0.557902  0  2.108401  0  0  -0.49955  0  2.33281  0  0  -0.525275  0  2.320211  0  0  -0.308047  -0.481855  0  2.338836  0
O  O99  1  0.20623623  0.96819555  0.19826850  1  0  -0.557925  0  2.108298  0  0  -0.499481  0  2.332798  0  0  -0.525204  0  2.320155  0  0  -0.308043  -0.481786  0  2.338823  0
O  O100  1  0.76122870  0.36759957  0.22422569  1  0  -0.566274  0  2.090781  0  0  -0.506841  0  2.311309  0  0  -0.532692  0  2.299133  0  0  -0.315872  -0.489019  0  2.317869  0
O  O101  1  0.23877263  0.13239872  0.72422713  1  0  -0.56629  0  2.090824  0  0  -0.506863  0  2.311304  0  0  -0.532719  0  2.299128  0  0  -0.315863  -0.489042  0  2.317851  0
O  O102  1  0.23877209  0.63240010  0.77577162  1  0  -0.566282  0  2.090829  0  0  -0.506866  0  2.311329  0  0  -0.532713  0  2.299167  0  0  -0.315931  -0.489049  0  2.317879  0
O  O103  1  0.76122514  0.86760180  0.27577229  1  0  -0.566346  0  2.090863  0  0  -0.506905  0  2.311305  0  0  -0.532761  0  2.299126  0  0  -0.315881  -0.489082  0  2.317886  0
O  O104  1  0.13190938  0.21762264  0.55529452  1  0  -0.880797  0  1.837464  0  0  -0.821454  0  2.010436  0  0  -0.842509  0  1.978185  0  0  -0.610604  -0.806405  0  2.033017  0
O  O105  1  0.86809036  0.28237762  0.05529326  1  0  -0.880639  0  1.837539  0  0  -0.82129  0  2.0105  0  0  -0.842345  0  1.978252  0  0  -0.610525  -0.806237  0  2.033078  0
O  O106  1  0.86808993  0.78237788  0.44470649  1  0  -0.880765  0  1.837466  0  0  -0.82141  0  2.010438  0  0  -0.842466  0  1.978186  0  0  -0.610578  -0.806356  0  2.033019  0
O  O107  1  0.13191059  0.71762378  0.94470616  1  0  -0.880533  0  1.837611  0  0  -0.821154  0  2.010585  0  0  -0.842214  0  1.978336  0  0  -0.610509  -0.806102  0  2.033162  0
O  O108  1  0.30849515  0.45675802  0.17952780  1  0  -0.619979  0  2.059853  0  0  -0.553162  0  2.273547  0  0  -0.580571  0  2.262249  0  0  -0.31113  -0.53409  0  2.279315  0
O  O109  1  0.69150771  0.04324555  0.67952720  1  0  -0.620066  0  2.060051  0  0  -0.553232  0  2.273637  0  0  -0.580614  0  2.262307  0  0  -0.311119  -0.534142  0  2.279356  0
O  O110  1  0.69150764  0.54324687  0.82047373  1  0  -0.620101  0  2.059996  0  0  -0.553288  0  2.273618  0  0  -0.580655  0  2.262281  0  0  -0.311123  -0.534198  0  2.279337  0
O  O111  1  0.30849316  0.95675498  0.32047275  1  0  -0.620024  0  2.059799  0  0  -0.553194  0  2.273475  0  0  -0.580612  0  2.262122  0  0  -0.311155  -0.534109  0  2.279211  0
O  O112  1  0.60290042  0.52513280  0.42320578  1  0  -0.685542  0  1.974952  0  0  -0.624068  0  2.216425  0  0  -0.65017  0  2.206951  0  0  -0.36271  -0.605785  0  2.222476  0
O  O113  1  0.39709817  0.97486715  0.92320719  1  0  -0.685593  0  1.97485  0  0  -0.624049  0  2.216386  0  0  -0.650151  0  2.206914  0  0  -0.362714  -0.605767  0  2.222438  0
O  O114  1  0.39711073  0.47486081  0.57679522  1  0  -0.685533  0  1.974831  0  0  -0.624033  0  2.216266  0  0  -0.650134  0  2.206794  0  0  -0.362736  -0.605754  0  2.222318  0
O  O115  1  0.60289670  0.02513597  0.07679328  1  0  -0.685598  0  1.974782  0  0  -0.624044  0  2.216291  0  0  -0.650147  0  2.206817  0  0  -0.362695  -0.605761  0  2.222341  0
O  O116  1  0.86978180  0.40245865  0.54536111  1  0  -0.876755  0  1.812255  0  0  -0.824664  0  1.991376  0  0  -0.843048  0  1.960182  0  0  -0.625087  -0.811485  0  2.013403  0
O  O117  1  0.13021784  0.09754163  0.04535908  1  0  -0.876685  0  1.812382  0  0  -0.824634  0  1.991466  0  0  -0.843018  0  1.960273  0  0  -0.62511  -0.811453  0  2.013488  0
O  O118  1  0.13021737  0.59754014  0.45463990  1  0  -0.87675  0  1.812277  0  0  -0.824633  0  1.991424  0  0  -0.843017  0  1.960227  0  0  -0.625081  -0.81145  0  2.013453  0
O  O119  1  0.86978140  0.90245802  0.95463929  1  0  -0.876837  0  1.812304  0  0  -0.82474  0  1.991376  0  0  -0.843126  0  1.96018  0  0  -0.625091  -0.811557  0  2.013406  0
O  O120  1  0.16115522  0.34961015  0.39369535  1  0  -0.647567  0  1.972087  0  0  -0.583911  0  2.197479  0  0  -0.608202  0  2.185872  0  0  -0.300913  -0.566992  0  2.205141  0
O  O121  1  0.83883380  0.15038697  0.89369697  1  0  -0.647625  0  1.971897  0  0  -0.583898  0  2.197358  0  0  -0.608187  0  2.185751  0  0  -0.300922  -0.566979  0  2.205023  0
O  O122  1  0.83883759  0.65038687  0.60630407  1  0  -0.647553  0  1.97184  0  0  -0.583898  0  2.197181  0  0  -0.608189  0  2.185576  0  0  -0.30092  -0.566973  0  2.204842  0
O  O123  1  0.16115901  0.84961005  0.10630351  1  0  -0.647624  0  1.971866  0  0  -0.583923  0  2.197323  0  0  -0.608215  0  2.185717  0  0  -0.300922  -0.567001  0  2.204986  0
O  O124  1  0.83420034  0.48422855  0.13302395  1  0  -0.586731  0  1.980977  0  0  -0.523957  0  2.195048  0  0  -0.547831  0  2.183142  0  0  -0.273977  -0.507515  0  2.20298  0
O  O125  1  0.16580331  0.01577162  0.63302590  1  0  -0.586693  0  1.980992  0  0  -0.523955  0  2.195074  0  0  -0.547832  0  2.183168  0  0  -0.273974  -0.507519  0  2.203018  0
O  O126  1  0.16580356  0.51577113  0.86697548  1  0  -0.586742  0  1.980907  0  0  -0.523931  0  2.194991  0  0  -0.547811  0  2.183093  0  0  -0.273958  -0.507484  0  2.202914  0
O  O127  1  0.83420067  0.98422892  0.36697406  1  0  -0.586764  0  1.980866  0  0  -0.524029  0  2.19498  0  0  -0.547906  0  2.183069  0  0  -0.274004  -0.507593  0  2.202917  0
O  O128  1  0.39138418  0.31821430  0.10389592  1  0  -0.654298  0  1.969966  0  0  -0.600811  0  2.216678  0  0  -0.62563  0  2.206485  0  0  -0.363001  -0.583416  0  2.223293  0
O  O129  1  0.60860090  0.18179018  0.60389830  1  0  -0.65426  0  1.97014  0  0  -0.60079  0  2.216796  0  0  -0.625619  0  2.206607  0  0  -0.362988  -0.583388  0  2.22339  0
O  O130  1  0.60859842  0.68179051  0.89610192  1  0  -0.65431  0  1.970114  0  0  -0.600832  0  2.216777  0  0  -0.625657  0  2.206591  0  0  -0.363007  -0.583436  0  2.223388  0
O  O131  1  0.39139849  0.81821122  0.39610112  1  0  -0.654279  0  1.970249  0  0  -0.600759  0  2.216919  0  0  -0.625605  0  2.206694  0  0  -0.362975  -0.583359  0  2.223529  0
O  O132  1  0.39194910  0.07646002  0.44417579  1  0  -0.886205  0  1.787661  0  0  -0.83546  0  1.97077  0  0  -0.853711  0  1.938551  0  0  -0.628587  -0.822422  0  1.992073  0
O  O133  1  0.60803799  0.42354485  0.94417749  1  0  -0.886144  0  1.787611  0  0  -0.835422  0  1.970838  0  0  -0.853674  0  1.938628  0  0  -0.628603  -0.822384  0  1.992073  0
O  O134  1  0.60803638  0.92354219  0.55582363  1  0  -0.886142  0  1.787678  0  0  -0.835402  0  1.97085  0  0  -0.853652  0  1.938644  0  0  -0.628615  -0.822361  0  1.992112  0
O  O135  1  0.39195090  0.57646086  0.05582352  1  0  -0.886238  0  1.787664  0  0  -0.835495  0  1.970754  0  0  -0.853744  0  1.938538  0  0  -0.628612  -0.822452  0  1.992065  0
O  O136  1  0.87038277  0.18499108  0.44289957  1  0  -0.876648  0  1.856763  0  0  -0.816518  0  2.031257  0  0  -0.837208  0  1.998963  0  0  -0.603718  -0.801778  0  2.053811  0
O  O137  1  0.12961777  0.31500776  0.94289813  1  0  -0.876648  0  1.856731  0  0  -0.816514  0  2.031238  0  0  -0.837206  0  1.998948  0  0  -0.603708  -0.801772  0  2.053799  0
O  O138  1  0.12961788  0.81500684  0.55710196  1  0  -0.876673  0  1.856711  0  0  -0.816546  0  2.031217  0  0  -0.837238  0  1.998929  0  0  -0.603716  -0.801798  0  2.053779  0
O  O139  1  0.87038147  0.68499190  0.05710130  1  0  -0.876659  0  1.856741  0  0  -0.816536  0  2.031259  0  0  -0.837225  0  1.998965  0  0  -0.603719  -0.801793  0  2.053816  0
