# generated using pymatgen
data_ZnH15C20(NO2)3
_symmetry_space_group_name_H-M   'P 1'
_cell_length_a   9.04025121
_cell_length_b   15.04118598
_cell_length_c   16.17203765
_cell_angle_alpha   92.64308703
_cell_angle_beta   89.99997559
_cell_angle_gamma   90.00009013
_symmetry_Int_Tables_number   1
_chemical_formula_structural   ZnH15C20(NO2)3
_chemical_formula_sum   'Zn4 H60 C80 N12 O24'
_cell_volume   2196.67124027
_cell_formula_units_Z   4
loop_
 _symmetry_equiv_pos_site_id
 _symmetry_equiv_pos_as_xyz
  1  'x, y, z'
loop_
 _atom_site_type_symbol
 _atom_site_label
 _atom_site_symmetry_multiplicity
 _atom_site_fract_x
 _atom_site_fract_y
 _atom_site_fract_z
 _atom_site_occupancy
 _atom_site_pbe_bader_charge
 _atom_site_pbe_bader_spin_density
 _atom_site_pbe_cm5_charge
 _atom_site_pbe_ddec_charge
 _atom_site_pbe_ddec_spin_density
 _atom_site_pbe_ddec_sum_bond_order
 _atom_site_pbe_magmom
Zn  Zn0  1  0.92362769  0.75000211  0.75000127  1  1.252101  0  0.693193  0.754453  0  2.421466  0
Zn  Zn1  1  0.07637200  0.25000104  0.24999964  1  1.251925  0  0.693222  0.754468  0  2.421486  0
Zn  Zn2  1  0.63191474  0.75000087  0.25000056  1  1.255259  0  0.691902  0.757366  0  2.419431  0
Zn  Zn3  1  0.36808495  0.24999962  0.75000024  1  1.255242  0  0.691864  0.757351  0  2.419313  0
H  H4  1  0.28486340  0.71545898  0.50221572  1  0.132137  0  0.110752  0.112624  0  1.020056  0
H  H5  1  0.28485557  0.78454132  0.99778928  1  0.132144  0  0.110778  0.112653  0  1.020091  0
H  H6  1  0.71513518  0.28453951  0.49778313  1  0.132174  0  0.110776  0.112654  0  1.020059  0
H  H7  1  0.71514744  0.21545984  0.00221464  1  0.132155  0  0.110785  0.112647  0  1.020067  0
H  H8  1  0.40820547  0.96209391  0.39641234  1  0.155239  0  0.115683  0.126173  0  1.008679  0
H  H9  1  0.40819618  0.53790495  0.10359118  1  0.155186  0  0.115713  0.126158  0  1.008695  0
H  H10  1  0.59180639  0.03790458  0.60359270  1  0.155143  0  0.115693  0.126135  0  1.008679  0
H  H11  1  0.59179798  0.46209421  0.89641203  1  0.155241  0  0.115688  0.126151  0  1.008704  0
H  H12  1  0.10438972  0.96201983  0.60292678  1  0.121036  0  0.115443  0.124314  0  1.012853  0
H  H13  1  0.10438685  0.53798096  0.89707272  1  0.121027  0  0.115448  0.124297  0  1.012904  0
H  H14  1  0.89561107  0.03797866  0.39707269  1  0.121034  0  0.115411  0.124274  0  1.01291  0
H  H15  1  0.89561395  0.46202219  0.10292819  1  0.120977  0  0.115443  0.12428  0  1.012902  0
H  H16  1  0.75180178  0.76426687  0.60108456  1  0.149052  0  0.112368  0.082316  0  1.045861  0
H  H17  1  0.75180606  0.73573653  0.89891736  1  0.14911  0  0.112346  0.082306  0  1.045805  0
H  H18  1  0.24820233  0.23573296  0.39891435  1  0.149084  0  0.11236  0.082317  0  1.045765  0
H  H19  1  0.24820027  0.26426795  0.10108546  1  0.149061  0  0.112344  0.082284  0  1.045786  0
H  H20  1  0.56867294  0.67717303  0.51598582  1  0.126903  0  0.109714  0.126967  0  1.019339  0
H  H21  1  0.56867295  0.82282753  0.98401665  1  0.126881  0  0.109729  0.126986  0  1.019244  0
H  H22  1  0.43133449  0.32282546  0.48401365  1  0.126906  0  0.109741  0.127035  0  1.019262  0
H  H23  1  0.43133116  0.17717495  0.01598609  1  0.126884  0  0.109737  0.127048  0  1.019256  0
H  H24  1  0.60962943  0.46694393  0.68812576  1  0.126907  0  0.114367  0.136139  0  0.993078  0
H  H25  1  0.60962218  0.03305754  0.81187599  1  0.12679  0  0.114351  0.136135  0  0.99313  0
H  H26  1  0.39037358  0.53305789  0.31187509  1  0.126871  0  0.114343  0.136097  0  0.993104  0
H  H27  1  0.39036755  0.96694295  0.18812295  1  0.126916  0  0.114369  0.136161  0  0.993065  0
H  H28  1  0.79155035  0.56427932  0.76822504  1  0.132021  0  0.119665  0.091911  0  0.984825  0
H  H29  1  0.79154532  0.93572544  0.73177693  1  0.132049  0  0.119727  0.091884  0  0.984853  0
H  H30  1  0.20845265  0.43572316  0.23177584  1  0.132042  0  0.119708  0.091874  0  0.984882  0
H  H31  1  0.20844884  0.06427704  0.26822271  1  0.132042  0  0.119702  0.091912  0  0.984884  0
H  H32  1  0.36327360  0.54720403  0.53756039  1  0.044772  0  0.09901  0.106357  0  0.982831  0
H  H33  1  0.36326844  0.95279767  0.96244033  1  0.04473  0  0.099017  0.106401  0  0.982841  0
H  H34  1  0.63672940  0.45279646  0.46243856  1  0.044753  0  0.099011  0.106355  0  0.982817  0
H  H35  1  0.63672793  0.04720415  0.03755991  1  0.044766  0  0.098996  0.106364  0  0.982827  0
H  H36  1  0.44245821  0.44788243  0.57349625  1  0.063574  0  0.098662  0.109623  0  1.009712  0
H  H37  1  0.44245535  0.05211755  0.92650362  1  0.063562  0  0.098705  0.109689  0  1.009732  0
H  H38  1  0.55754259  0.55211806  0.42650331  1  0.063551  0  0.098665  0.109609  0  1.009727  0
H  H39  1  0.55753992  0.94788294  0.07349656  1  0.063588  0  0.098666  0.109633  0  1.00972  0
H  H40  1  0.14930020  0.97399422  0.03678834  1  0.019292  0  0.095788  0.099901  0  0.996582  0
H  H41  1  0.14929504  0.52600572  0.46320911  1  0.019381  0  0.095762  0.099872  0  0.996635  0
H  H42  1  0.85070612  0.02600360  0.96320926  1  0.019378  0  0.095781  0.099902  0  0.9966  0
H  H43  1  0.85070133  0.47399477  0.53678983  1  0.019326  0  0.095784  0.099913  0  0.996571  0
H  H44  1  0.04256304  0.06854936  0.06975714  1  0.076205  0  0.096333  0.106228  0  1.01963  0
H  H45  1  0.04255785  0.43145003  0.43023956  1  0.076117  0  0.096321  0.106246  0  1.019611  0
H  H46  1  0.95744329  0.93144780  0.93023980  1  0.076118  0  0.096287  0.106195  0  1.019629  0
H  H47  1  0.95744074  0.56854913  0.56975933  1  0.07614  0  0.096318  0.106245  0  1.019567  0
H  H48  1  0.86700799  0.05092453  0.18066646  1  0.167766  0  0.112847  0.138892  0  1.00508  0
H  H49  1  0.86700292  0.44907496  0.31933252  1  0.167709  0  0.112835  0.13885  0  1.005172  0
H  H50  1  0.13299502  0.94907596  0.81933186  1  0.167731  0  0.112834  0.138864  0  1.005168  0
H  H51  1  0.13299566  0.55092420  0.68066513  1  0.167744  0  0.112827  0.138904  0  1.005099  0
H  H52  1  0.71170039  0.94817872  0.26369983  1  0.116688  0  0.120327  0.093162  0  0.98297  0
H  H53  1  0.71169656  0.55182109  0.23629748  1  0.116608  0  0.120316  0.093181  0  0.98296  0
H  H54  1  0.28829930  0.05182244  0.73629729  1  0.116624  0  0.120316  0.093174  0  0.982986  0
H  H55  1  0.28830534  0.44817940  0.76369961  1  0.117082  0  0.120322  0.093161  0  0.982999  0
H  H56  1  0.84826605  0.72742588  0.12045688  1  0.114869  0  0.113399  0.086357  0  1.04316  0
H  H57  1  0.84826380  0.77257406  0.37954287  1  0.114879  0  0.113386  0.086312  0  1.043138  0
H  H58  1  0.15173254  0.27257328  0.87954386  1  0.114907  0  0.113374  0.086343  0  1.04307  0
H  H59  1  0.15173700  0.22742577  0.62045604  1  0.114865  0  0.113393  0.086353  0  1.043145  0
H  H60  1  0.00667676  0.81974469  0.03223537  1  0.084507  0  0.109577  0.123935  0  1.015948  0
H  H61  1  0.00667199  0.68025313  0.46776511  1  0.084303  0  0.109572  0.123854  0  1.015973  0
H  H62  1  0.99332404  0.18025047  0.96776520  1  0.08434  0  0.109578  0.123881  0  1.015923  0
H  H63  1  0.99332881  0.31974537  0.53223498  1  0.084255  0  0.109589  0.123928  0  1.015977  0
C  C64  1  0.18684414  0.83322610  0.55965936  1  0.040273  0  -0.010491  -0.014812  0  3.955604  0
C  C65  1  0.18683603  0.66677543  0.94034634  1  0.039327  0  -0.010518  -0.01489  0  3.955675  0
C  C66  1  0.81315887  0.16677372  0.44034203  1  0.040307  0  -0.010456  -0.014796  0  3.95564  0
C  C67  1  0.81316255  0.33322772  0.05965705  1  0.040141  0  -0.010422  -0.014872  0  3.955561  0
C  C68  1  0.27704181  0.78766603  0.50171590  1  -0.048423  0  -0.056931  -0.07776  0  3.88767  0
C  C69  1  0.27703600  0.71233360  0.99828722  1  -0.047608  0  -0.056952  -0.077775  0  3.887828  0
C  C70  1  0.72295788  0.21233180  0.49828416  1  -0.048413  0  -0.056951  -0.077806  0  3.887816  0
C  C71  1  0.72296148  0.28766623  0.00171479  1  -0.048242  0  -0.056974  -0.077729  0  3.887587  0
C  C72  1  0.35697662  0.83311730  0.44292171  1  0.034073  0  -0.009551  -0.010654  0  3.953169  0
C  C73  1  0.35696327  0.66688551  0.05708632  1  0.033833  0  -0.009597  -0.010787  0  3.953109  0
C  C74  1  0.64302749  0.16688186  0.55708027  1  0.034053  0  -0.009588  -0.010732  0  3.953329  0
C  C75  1  0.64302978  0.33311698  0.94291765  1  0.034046  0  -0.009642  -0.010845  0  3.953222  0
C  C76  1  0.34682658  0.92568134  0.44178868  1  -0.036148  0  -0.067268  -0.123181  0  3.919575  0
C  C77  1  0.34681963  0.57431946  0.05821680  1  -0.03567  0  -0.067246  -0.123018  0  3.91936  0
C  C78  1  0.65318306  0.07431782  0.55821454  1  -0.035654  0  -0.067258  -0.123084  0  3.919655  0
C  C79  1  0.65317564  0.42568103  0.94178771  1  -0.035699  0  -0.067221  -0.123011  0  3.919508  0
C  C80  1  0.25515328  0.97004673  0.49948375  1  0.179276  0  0.07413  0.053785  0  3.963181  0
C  C81  1  0.25514294  0.52995398  0.00052236  1  0.179175  0  0.074103  0.053733  0  3.96309  0
C  C82  1  0.74485637  0.02995242  0.50052256  1  0.179136  0  0.074085  0.053812  0  3.963221  0
C  C83  1  0.74485122  0.47004784  0.99948220  1  0.179143  0  0.074157  0.053778  0  3.963193  0
C  C84  1  0.17491870  0.92569631  0.55861259  1  0.002109  0  -0.066508  -0.119033  0  3.923443  0
C  C85  1  0.17491478  0.57430322  0.94138993  1  0.001856  0  -0.066493  -0.119  0  3.92349  0
C  C86  1  0.82508541  0.07430218  0.44138874  1  0.001802  0  -0.066484  -0.119051  0  3.923462  0
C  C87  1  0.82508159  0.42569794  0.05861213  1  0.001833  0  -0.066567  -0.119048  0  3.923584  0
C  C88  1  0.10193601  0.78159820  0.62131311  1  1.520829  0  0.198853  0.561802  0  4.229159  0
C  C89  1  0.10193583  0.71840259  0.87868701  1  1.521195  0  0.19886  0.561802  0  4.229173  0
C  C90  1  0.89805815  0.21840229  0.37868397  1  1.520844  0  0.198746  0.561727  0  4.229187  0
C  C91  1  0.89806386  0.28159856  0.12131382  1  1.520847  0  0.198915  0.56194  0  4.228982  0
C  C92  1  0.45157129  0.78124945  0.38129685  1  1.553704  0  0.197382  0.562446  0  4.229939  0
C  C93  1  0.45156578  0.71875211  0.11870616  1  1.553676  0  0.197486  0.562599  0  4.229709  0
C  C94  1  0.54842729  0.21875037  0.61870083  1  1.553705  0  0.197458  0.56257  0  4.22986  0
C  C95  1  0.54842949  0.28124838  0.88129773  1  1.553699  0  0.197424  0.562569  0  4.229824  0
C  C96  1  0.71692323  0.69840561  0.61877716  1  0.411523  0  0.04335  0.09151  0  3.952695  0
C  C97  1  0.71692106  0.80159842  0.88122542  1  0.410931  0  0.043322  0.091457  0  3.952706  0
C  C98  1  0.28308088  0.30159555  0.38122366  1  0.410828  0  0.043301  0.091534  0  3.952549  0
C  C99  1  0.28307863  0.19840539  0.11877614  1  0.411312  0  0.043346  0.091572  0  3.952637  0
C  C100  1  0.61455656  0.64978243  0.57183172  1  0.000438  0  -0.080286  -0.174934  0  3.909421  0
C  C101  1  0.61455559  0.85021951  0.92816770  1  0.000617  0  -0.080267  -0.174873  0  3.909643  0
C  C102  1  0.38544755  0.35021806  0.42816537  1  0.000755  0  -0.080253  -0.174983  0  3.909552  0
C  C103  1  0.38544521  0.14978365  0.07183321  1  0.001128  0  -0.080266  -0.175034  0  3.909412  0
C  C104  1  0.57295583  0.56506162  0.59604772  1  -0.016451  0  0.020656  0.180927  0  3.928008  0
C  C105  1  0.57295177  0.93493829  0.90395410  1  -0.016307  0  0.020629  0.180927  0  3.928133  0
C  C106  1  0.42704607  0.43493821  0.40395305  1  -0.016296  0  0.020613  0.180864  0  3.928121  0
C  C107  1  0.42704349  0.06506353  0.09604675  1  -0.016939  0  0.020614  0.180924  0  3.927887  0
C  C108  1  0.63698938  0.53320890  0.66787748  1  -0.057033  0  -0.079914  -0.18828  0  3.915486  0
C  C109  1  0.63698325  0.96679372  0.83212320  1  -0.057281  0  -0.079913  -0.18839  0  3.915362  0
C  C110  1  0.36301252  0.46679225  0.33212211  1  -0.05735  0  -0.079896  -0.188265  0  3.915365  0
C  C111  1  0.36300980  0.03320810  0.16787641  1  -0.05718  0  -0.07994  -0.188338  0  3.915413  0
C  C112  1  0.73836383  0.58628496  0.71212827  1  0.423645  0  0.050816  0.100826  0  3.945051  0
C  C113  1  0.73836091  0.91371776  0.78787239  1  0.42384  0  0.050851  0.101054  0  3.944837  0
C  C114  1  0.26163807  0.41371686  0.28787258  1  0.423789  0  0.050815  0.100975  0  3.945018  0
C  C115  1  0.26163436  0.08628339  0.21212658  1  0.423653  0  0.050817  0.100872  0  3.94506  0
C  C116  1  0.46756711  0.51015510  0.54363427  1  -0.023784  0  -0.154417  -0.204257  0  3.920328  0
C  C117  1  0.46756316  0.98984603  0.95636516  1  -0.000415  0  -0.154464  -0.204383  0  3.920508  0
C  C118  1  0.53243479  0.48984605  0.45636594  1  -0.000665  0  -0.154403  -0.204223  0  3.920346  0
C  C119  1  0.53243210  0.01015512  0.04363381  1  -0.024039  0  -0.154403  -0.204282  0  3.920323  0
C  C120  1  0.03609633  0.00016834  0.04336599  1  0.025812  0  -0.156267  -0.20126  0  3.915358  0
C  C121  1  0.03609129  0.49982904  0.45663372  1  -0.003147  0  -0.156209  -0.201257  0  3.915195  0
C  C122  1  0.96391000  0.99982683  0.95663272  1  -0.003177  0  -0.156186  -0.201182  0  3.915099  0
C  C123  1  0.96390508  0.50016945  0.54336699  1  0.025868  0  -0.156259  -0.201271  0  3.915209  0
C  C124  1  0.94957436  0.94314720  0.09955397  1  -0.069498  0  0.019697  0.179089  0  3.92745  0
C  C125  1  0.94956932  0.55685017  0.40044317  1  -0.069381  0  0.019617  0.178983  0  3.927342  0
C  C126  1  0.05043086  0.05684996  0.90044297  1  -0.069619  0  0.019611  0.178955  0  3.927344  0
C  C127  1  0.05042926  0.44314766  0.59955504  1  -0.069483  0  0.019675  0.179035  0  3.927383  0
C  C128  1  0.86649483  0.97932599  0.16616034  1  -0.043232  0  -0.07961  -0.185362  0  3.906022  0
C  C129  1  0.86648422  0.52067396  0.33383693  1  -0.043267  0  -0.079566  -0.185207  0  3.906297  0
C  C130  1  0.13351260  0.02067316  0.83383607  1  -0.043061  0  -0.079586  -0.185243  0  3.906231  0
C  C131  1  0.13350883  0.47932520  0.66616010  1  -0.043224  0  -0.079563  -0.185314  0  3.906038  0
C  C132  1  0.78051151  0.92303829  0.21234633  1  0.435195  0  0.05108  0.101393  0  3.94303  0
C  C133  1  0.78051103  0.57696026  0.28765152  1  0.435083  0  0.051077  0.101232  0  3.943286  0
C  C134  1  0.21948818  0.07696020  0.78765129  1  0.435236  0  0.051091  0.101296  0  3.943276  0
C  C135  1  0.21949087  0.42303890  0.71234675  1  0.434732  0  0.051078  0.101348  0  3.943052  0
C  C136  1  0.85671723  0.79913445  0.13258100  1  0.466012  0  0.04311  0.089837  0  3.9561  0
C  C137  1  0.85671701  0.70086550  0.36741813  1  0.465869  0  0.043144  0.089927  0  3.955805  0
C  C138  1  0.14328025  0.20086405  0.86741971  1  0.465661  0  0.043146  0.089906  0  3.955831  0
C  C139  1  0.14328268  0.29913499  0.63258143  1  0.466073  0  0.043083  0.089816  0  3.955956  0
C  C140  1  0.94443833  0.85084224  0.08365139  1  0.035069  0  -0.081293  -0.174393  0  3.919539  0
C  C141  1  0.94443241  0.64915380  0.41634941  1  0.035444  0  -0.081281  -0.174294  0  3.919446  0
C  C142  1  0.05556689  0.14915093  0.91634786  1  0.03555  0  -0.081279  -0.174314  0  3.919603  0
C  C143  1  0.05556396  0.35084337  0.58364939  1  0.035236  0  -0.081288  -0.174345  0  3.919429  0
N  N144  1  0.24085715  0.06686835  0.49716934  1  0.35586  0  0.059409  0.521929  0  4.188255  0
N  N145  1  0.24085228  0.43312989  0.00283159  1  0.35555  0  0.059419  0.521916  0  4.188306  0
N  N146  1  0.75914918  0.93313014  0.50283199  1  0.355545  0  0.059325  0.521764  0  4.188203  0
N  N147  1  0.75914631  0.56686993  0.99716979  1  0.355699  0  0.059301  0.521784  0  4.188338  0
N  N148  1  0.77802103  0.66736457  0.68784610  1  -1.251011  0  -0.337334  -0.244783  0  3.605561  0
N  N149  1  0.77802120  0.83263952  0.81215462  1  -1.250476  0  -0.337356  -0.244869  0  3.605453  0
N  N150  1  0.22198198  0.33263792  0.31215293  1  -1.250469  0  -0.337326  -0.244862  0  3.60546  0
N  N151  1  0.22198070  0.16736363  0.18784629  1  -1.250757  0  -0.33732  -0.244808  0  3.605496  0
N  N152  1  0.77480470  0.83454215  0.19552279  1  -1.272786  0  -0.338567  -0.247832  0  3.614102  0
N  N153  1  0.77480112  0.66545572  0.30447689  1  -1.272714  0  -0.338552  -0.247759  0  3.614011  0
N  N154  1  0.22519609  0.16545434  0.80447722  1  -1.272825  0  -0.338535  -0.247804  0  3.613997  0
N  N155  1  0.22519635  0.33454277  0.69552135  1  -1.272727  0  -0.338524  -0.247774  0  3.614065  0
O  O156  1  0.02220928  0.82910773  0.67360356  1  -1.163333  0  -0.338683  -0.55354  0  2.298226  0
O  O157  1  0.02221123  0.67089232  0.82639593  1  -1.163327  0  -0.338688  -0.553548  0  2.298202  0
O  O158  1  0.97777824  0.17089143  0.32639038  1  -1.163308  0  -0.338646  -0.553492  0  2.298109  0
O  O159  1  0.97779178  0.32910817  0.17360487  1  -1.163366  0  -0.338715  -0.553576  0  2.298228  0
O  O160  1  0.11041575  0.69852717  0.61923878  1  -1.12682  0  -0.321227  -0.554047  0  2.136424  0
O  O161  1  0.11041689  0.80147363  0.88076257  1  -1.126853  0  -0.321237  -0.554025  0  2.13645  0
O  O162  1  0.88958172  0.30147266  0.38076199  1  -1.12684  0  -0.321175  -0.553975  0  2.136443  0
O  O163  1  0.88958722  0.19852686  0.11923637  1  -1.126806  0  -0.321285  -0.554113  0  2.13626  0
O  O164  1  0.45441402  0.69814474  0.38172602  1  -1.128866  0  -0.323667  -0.555359  0  2.130542  0
O  O165  1  0.45439877  0.80185616  0.11828005  1  -1.128877  0  -0.323709  -0.555396  0  2.130419  0
O  O166  1  0.54557792  0.30185508  0.61826671  1  -1.128867  0  -0.323692  -0.555427  0  2.130521  0
O  O167  1  0.54558986  0.19814433  0.88172693  1  -1.128894  0  -0.323674  -0.555411  0  2.130536  0
O  O168  1  0.52547861  0.82879737  0.33040897  1  -1.175214  0  -0.340178  -0.556225  0  2.295221  0
O  O169  1  0.52547957  0.67120560  0.16959099  1  -1.175173  0  -0.340259  -0.556328  0  2.295269  0
O  O170  1  0.47451665  0.17120379  0.66958815  1  -1.175128  0  -0.340204  -0.556254  0  2.295205  0
O  O171  1  0.47452344  0.32879622  0.83040924  1  -1.17513  0  -0.340172  -0.556244  0  2.295173  0
O  O172  1  0.32552300  0.10686548  0.45100096  1  -0.474256  0  -0.12559  -0.338685  0  1.94884  0
O  O173  1  0.32552242  0.39313550  0.04899822  1  -0.474058  0  -0.125572  -0.338639  0  1.948863  0
O  O174  1  0.67448000  0.89313368  0.54899855  1  -0.474053  0  -0.125507  -0.338586  0  1.948823  0
O  O175  1  0.67447837  0.60686632  0.95100078  1  -0.474236  0  -0.125559  -0.33868  0  1.948846  0
O  O176  1  0.14396717  0.10403373  0.54107745  1  -0.478733  0  -0.127192  -0.33997  0  1.95869  0
O  O177  1  0.14396850  0.39596597  0.95891878  1  -0.478623  0  -0.127197  -0.339967  0  1.958726  0
O  O178  1  0.85603584  0.89596543  0.45891958  1  -0.478671  0  -0.127164  -0.339905  0  1.958672  0
O  O179  1  0.85603340  0.60403452  0.04107955  1  -0.478628  0  -0.127125  -0.339827  0  1.958689  0
