# generated using pymatgen
data_Cu2H8C10S(IN)2
_symmetry_space_group_name_H-M   'P 1'
_cell_length_a   7.80208552
_cell_length_b   10.31060618
_cell_length_c   18.05925807
_cell_angle_alpha   89.99982501
_cell_angle_beta   93.33666144
_cell_angle_gamma   89.99980131
_symmetry_Int_Tables_number   1
_chemical_formula_structural   Cu2H8C10S(IN)2
_chemical_formula_sum   'Cu8 H32 C40 S4 I8 N8'
_cell_volume   1450.30037687
_cell_formula_units_Z   4
loop_
 _symmetry_equiv_pos_site_id
 _symmetry_equiv_pos_as_xyz
  1  'x, y, z'
loop_
 _atom_site_type_symbol
 _atom_site_label
 _atom_site_symmetry_multiplicity
 _atom_site_fract_x
 _atom_site_fract_y
 _atom_site_fract_z
 _atom_site_occupancy
 _atom_site_pbe_bader_spin_density
 _atom_site_pbe_cm5_charge
 _atom_site_pbe_ddec_charge
 _atom_site_pbe_ddec_spin_density
 _atom_site_pbe_ddec_sum_bond_order
 _atom_site_pbe_magmom
Cu  Cu0  1  0.84709780  0.35166178  0.81163080  1  0  0.241338  0.131462  0  2.787978  0
Cu  Cu1  1  0.65289373  0.35166625  0.68836921  1  0  0.24131  0.131408  0  2.78796  0
Cu  Cu2  1  0.15290896  0.64833751  0.18836961  1  0  0.241346  0.131475  0  2.788011  0
Cu  Cu3  1  0.34710789  0.64833014  0.31163162  1  0  0.241325  0.131485  0  2.787861  0
Cu  Cu4  1  0.61123310  0.51667379  0.78722510  1  0  0.243025  0.137705  0  2.787395  0
Cu  Cu5  1  0.88875506  0.51667751  0.71277786  1  0  0.243058  0.137732  0  2.78715  0
Cu  Cu6  1  0.38876082  0.48332162  0.21277665  1  0  0.243054  0.137704  0  2.787378  0
Cu  Cu7  1  0.11123886  0.48332954  0.28722223  1  0  0.243034  0.137706  0  2.787248  0
H  H8  1  0.42246504  0.49521131  0.92454418  1  0  0.101593  0.080063  0  1.027694  0
H  H9  1  0.07752322  0.49521172  0.57545948  1  0  0.101613  0.080136  0  1.027698  0
H  H10  1  0.57751861  0.50478702  0.07545786  1  0  0.101599  0.080086  0  1.027794  0
H  H11  1  0.92247327  0.50478563  0.42454233  1  0  0.101596  0.080056  0  1.027843  0
H  H12  1  0.30448899  0.64994389  0.01575903  1  0  0.098144  0.116906  0  1.029018  0
H  H13  1  0.19550988  0.64994568  0.48424618  1  0  0.098079  0.116759  0  1.028954  0
H  H14  1  0.69550236  0.35005735  0.98424376  1  0  0.098083  0.116772  0  1.02908  0
H  H15  1  0.80449302  0.35005555  0.51575691  1  0  0.098103  0.116793  0  1.028999  0
H  H16  1  0.43363648  0.96141294  0.86782951  1  0  0.097858  0.113687  0  1.035981  0
H  H17  1  0.06635593  0.96142084  0.63216847  1  0  0.097847  0.11369  0  1.036106  0
H  H18  1  0.56637027  0.03858248  0.13217146  1  0  0.097857  0.113638  0  1.036088  0
H  H19  1  0.93363285  0.03858524  0.36782651  1  0  0.097872  0.113681  0  1.036038  0
H  H20  1  0.54192765  0.79321050  0.78298436  1  0  0.103615  0.079341  0  1.009957  0
H  H21  1  0.95806301  0.79321692  0.71701321  1  0  0.103623  0.079356  0  1.009948  0
H  H22  1  0.45807268  0.20678395  0.21701479  1  0  0.103622  0.079389  0  1.009906  0
H  H23  1  0.04192962  0.20679110  0.28298242  1  0  0.103611  0.079337  0  1.009955  0
H  H24  1  0.24478040  0.20663149  0.02963960  1  0  0.098072  0.118243  0  1.022802  0
H  H25  1  0.25521291  0.20662835  0.47036458  1  0  0.098058  0.118268  0  1.022847  0
H  H26  1  0.75522378  0.79337363  0.97036241  1  0  0.09808  0.11823  0  1.022936  0
H  H27  1  0.74478357  0.79336900  0.52963557  1  0  0.098073  0.118241  0  1.022904  0
H  H28  1  0.07558936  0.36415732  0.95070869  1  0  0.09955  0.076886  0  1.026892  0
H  H29  1  0.42440210  0.36415988  0.54929196  1  0  0.099563  0.076927  0  1.026911  0
H  H30  1  0.92441611  0.63584585  0.04929058  1  0  0.099545  0.076903  0  1.02691  0
H  H31  1  0.57559567  0.63584426  0.45070601  1  0  0.099562  0.076919  0  1.026903  0
H  H32  1  0.92132848  0.07915786  0.79959295  1  0  0.102242  0.079109  0  1.013708  0
H  H33  1  0.57867977  0.07915469  0.70040464  1  0  0.102289  0.079191  0  1.013669  0
H  H34  1  0.07867699  0.92083950  0.20040909  1  0  0.102258  0.079108  0  1.013584  0
H  H35  1  0.42132956  0.92084363  0.29959086  1  0  0.102281  0.079173  0  1.01364  0
H  H36  1  0.07942995  0.90776960  0.87212566  1  0  0.099672  0.11726  0  1.020772  0
H  H37  1  0.42057813  0.90776787  0.62787336  1  0  0.099646  0.117223  0  1.020809  0
H  H38  1  0.92057295  0.09222776  0.12787798  1  0  0.099646  0.117194  0  1.020807  0
H  H39  1  0.57942991  0.09223531  0.37212100  1  0  0.099631  0.117164  0  1.020807  0
C  C40  1  0.42282033  0.59964069  0.91471543  1  0  0.037503  0.100485  0  3.918216  0
C  C41  1  0.07716485  0.59964591  0.58528798  1  0  0.037346  0.100178  0  3.918446  0
C  C42  1  0.57716460  0.40035569  0.08528610  1  0  0.037429  0.100384  0  3.918417  0
C  C43  1  0.92283292  0.40035630  0.41471387  1  0  0.037439  0.100384  0  3.918443  0
C  C44  1  0.35746242  0.68577234  0.96512415  1  0  -0.093155  -0.170478  0  3.962373  0
C  C45  1  0.14252748  0.68577086  0.53487977  1  0  -0.093105  -0.170288  0  3.962301  0
C  C46  1  0.64252765  0.31422501  0.03487805  1  0  -0.093091  -0.17037  0  3.962384  0
C  C47  1  0.85747029  0.31422843  0.46512263  1  0  -0.093133  -0.170351  0  3.962294  0
C  C48  1  0.36008782  0.81857543  0.94914356  1  0  0.003854  0.091088  0  4.023493  0
C  C49  1  0.13990657  0.81857679  0.55085637  1  0  0.003953  0.091199  0  4.023553  0
C  C50  1  0.63991508  0.18142192  0.05085897  1  0  0.003908  0.091179  0  4.023618  0
C  C51  1  0.86008863  0.18142541  0.44914153  1  0  0.00398  0.091212  0  4.023387  0
C  C52  1  0.42753327  0.85909206  0.88249705  1  0  -0.092962  -0.18645  0  3.999692  0
C  C53  1  0.07246349  0.85909905  0.61750121  1  0  -0.093013  -0.186554  0  4.000059  0
C  C54  1  0.57246835  0.14090433  0.11750323  1  0  -0.092937  -0.186395  0  3.999934  0
C  C55  1  0.92753428  0.14090606  0.38249510  1  0  -0.092998  -0.186522  0  3.999793  0
C  C56  1  0.48823243  0.76612279  0.83528395  1  0  0.032915  0.090044  0  3.939676  0
C  C57  1  0.01176478  0.76613066  0.66471725  1  0  0.032872  0.08995  0  3.94001  0
C  C58  1  0.51176662  0.23387554  0.16471737  1  0  0.03289  0.089932  0  3.939912  0
C  C59  1  0.98823299  0.23387349  0.33528072  1  0  0.03288  0.09004  0  3.939729  0
C  C60  1  0.17944408  0.04361152  0.95651201  1  0  0.003523  0.090951  0  4.021006  0
C  C61  1  0.32055279  0.04361050  0.54349045  1  0  0.003535  0.091004  0  4.021019  0
C  C62  1  0.82056396  0.95639166  0.04348955  1  0  0.003524  0.091064  0  4.020956  0
C  C63  1  0.67945012  0.95639171  0.45650378  1  0  0.003501  0.09093  0  4.021111  0
C  C64  1  0.17555433  0.17352914  0.97899789  1  0  -0.094809  -0.173876  0  3.958198  0
C  C65  1  0.32443805  0.17352920  0.52100312  1  0  -0.094857  -0.173939  0  3.958238  0
C  C66  1  0.82445242  0.82647404  0.02100419  1  0  -0.094885  -0.173996  0  3.958591  0
C  C67  1  0.67555972  0.82647494  0.47899319  1  0  -0.094841  -0.173937  0  3.958432  0
C  C68  1  0.08082150  0.26194125  0.93527406  1  0  0.037411  0.098723  0  3.937203  0
C  C69  1  0.41917174  0.26194471  0.56472737  1  0  0.037432  0.098658  0  3.937124  0
C  C70  1  0.91917884  0.73805901  0.06472675  1  0  0.037446  0.098709  0  3.937319  0
C  C71  1  0.58082988  0.73805749  0.43526959  1  0  0.037457  0.098766  0  3.937345  0
C  C72  1  0.99577623  0.10299424  0.85076114  1  0  0.030187  0.087699  0  3.963883  0
C  C73  1  0.50422420  0.10299446  0.64924230  1  0  0.030096  0.087655  0  3.963769  0
C  C74  1  0.00422411  0.89700505  0.14924244  1  0  0.030133  0.087709  0  3.963819  0
C  C75  1  0.49577485  0.89700193  0.35075736  1  0  0.030113  0.087682  0  3.963836  0
C  C76  1  0.08519592  0.00815221  0.89099838  1  0  -0.094151  -0.17688  0  3.977272  0
C  C77  1  0.41480626  0.00815060  0.60900316  1  0  -0.09406  -0.176817  0  3.977285  0
C  C78  1  0.91480827  0.99184805  0.10900695  1  0  -0.094096  -0.176815  0  3.977376  0
C  C79  1  0.58519665  0.99184773  0.39099328  1  0  -0.094089  -0.176738  0  3.977351  0
S  S80  1  0.28743472  0.92930382  0.01429645  1  0  0.05755  0.035581  0  2.867163  0
S  S81  1  0.21256664  0.92930266  0.48570335  1  0  0.057562  0.035575  0  2.867143  0
S  S82  1  0.71257075  0.07069547  0.98570559  1  0  0.057554  0.035536  0  2.867171  0
S  S83  1  0.78743113  0.07069761  0.51429351  1  0  0.057538  0.035567  0  2.867055  0
I  I84  1  0.94383601  0.59242431  0.85242190  1  0  -0.192148  -0.29917  0  1.824365  0
I  I85  1  0.55614921  0.59243894  0.64759082  1  0  -0.192163  -0.299182  0  1.824448  0
I  I86  1  0.05616176  0.40757305  0.14758216  1  0  -0.192151  -0.299161  0  1.824367  0
I  I87  1  0.44385498  0.40756132  0.35240953  1  0  -0.19216  -0.299196  0  1.824462  0
I  I88  1  0.52311142  0.27688771  0.82680275  1  0  -0.179919  -0.287233  0  1.894982  0
I  I89  1  0.97688175  0.27689141  0.67320076  1  0  -0.179919  -0.287199  0  1.89495  0
I  I90  1  0.47689276  0.72310577  0.17320147  1  0  -0.179941  -0.287274  0  1.895037  0
I  I91  1  0.02311602  0.72310595  0.32680054  1  0  -0.179916  -0.287216  0  1.894996  0
N  N92  1  0.48819028  0.63803328  0.85095474  1  0  -0.369097  -0.169681  0  3.648909  0
N  N93  1  0.01179728  0.63804221  0.64904755  1  0  -0.368947  -0.169439  0  3.648916  0
N  N94  1  0.51180107  0.36196019  0.14904639  1  0  -0.36907  -0.169584  0  3.649104  0
N  N95  1  0.98819920  0.36196291  0.35095260  1  0  -0.369032  -0.1696  0  3.648797  0
N  N96  1  0.99276888  0.22861726  0.87183619  1  0  -0.371818  -0.181468  0  3.670489  0
N  N97  1  0.50723222  0.22862146  0.62816428  1  0  -0.371818  -0.181481  0  3.670465  0
N  N98  1  0.00724172  0.77138106  0.12816376  1  0  -0.371817  -0.181452  0  3.670442  0
N  N99  1  0.49277453  0.77137881  0.37183281  1  0  -0.37181  -0.181544  0  3.670703  0
