# generated using pymatgen
data_ZnH3C8Br3(NO2)2
_symmetry_space_group_name_H-M   'P 1'
_cell_length_a   10.54419719
_cell_length_b   11.21857853
_cell_length_c   13.35652592
_cell_angle_alpha   84.14860338
_cell_angle_beta   73.62004079
_cell_angle_gamma   87.44462227
_symmetry_Int_Tables_number   1
_chemical_formula_structural   ZnH3C8Br3(NO2)2
_chemical_formula_sum   'Zn2 H6 C16 Br6 N4 O8'
_cell_volume   1507.72380906
_cell_formula_units_Z   2
loop_
 _symmetry_equiv_pos_site_id
 _symmetry_equiv_pos_as_xyz
  1  'x, y, z'
loop_
 _atom_site_type_symbol
 _atom_site_label
 _atom_site_symmetry_multiplicity
 _atom_site_fract_x
 _atom_site_fract_y
 _atom_site_fract_z
 _atom_site_occupancy
 _atom_site_pbe_bader_charge
 _atom_site_pbe_bader_spin_density
 _atom_site_pbe_cm5_charge
 _atom_site_pbe_ddec_charge
 _atom_site_pbe_ddec_spin_density
 _atom_site_pbe_ddec_sum_bond_order
 _atom_site_pbe_magmom
Zn  Zn0  1  0.64164572  0.50971024  0.49364321  1  1.325566  0  0.669479  0.896832  0  2.335645  0
Zn  Zn1  1  0.35835399  0.49027901  0.50636185  1  1.325704  0  0.669463  0.896796  0  2.335723  0
H  H2  1  0.61891641  0.10059871  0.58434433  1  0.129824  0  0.101777  0.133888  0  1.030801  0
H  H3  1  0.38108823  0.89939160  0.41565811  1  0.12969  0  0.101815  0.133901  0  1.030848  0
H  H4  1  0.75575941  0.53892292  0.90941373  1  0.465887  0  0.318283  0.315963  0  0.924518  0
H  H5  1  0.64071296  0.53898893  0.83975027  1  0.467426  0  0.299809  0.301697  0  0.969592  0
H  H6  1  0.24423142  0.46109410  0.09058990  1  0.466194  0  0.318301  0.315959  0  0.924562  0
H  H7  1  0.35927766  0.46103332  0.16025544  1  0.467704  0  0.299894  0.301735  0  0.96962  0
C  C8  1  0.45086059  0.72620072  0.47290812  1  1.550018  0  0.208135  0.662794  0  4.147854  0
C  C9  1  0.92780651  0.50477793  0.51620930  1  0.596942  0  0.122815  0.174316  0  3.926151  0
C  C10  1  0.59614615  0.49083422  0.09566906  1  -0.452655  0  -0.043929  -0.10549  0  4.114555  0
C  C11  1  0.40384917  0.50916755  0.90433570  1  -0.452694  0  -0.043979  -0.105534  0  4.114673  0
C  C12  1  0.44418527  0.85929732  0.46266213  1  0.056473  0  -0.100215  -0.260996  0  3.859465  0
C  C13  1  0.55582542  0.14069059  0.53733610  1  0.056026  0  -0.100147  -0.261024  0  3.859436  0
C  C14  1  0.50408944  0.93448630  0.50694193  1  -0.052125  0  -0.015372  0.090378  0  3.964874  0
C  C15  1  0.49593224  0.06549923  0.49305177  1  -0.121308  0  -0.015289  0.090416  0  3.964901  0
C  C16  1  0.54914510  0.27378778  0.52709492  1  1.550128  0  0.207873  0.662561  0  4.147594  0
C  C17  1  0.57408616  0.48355156  0.29951385  1  1.698257  0  0.215004  0.660074  0  4.247735  0
C  C18  1  0.42590774  0.51643507  0.70049032  1  1.698213  0  0.215043  0.660046  0  4.247466  0
C  C19  1  0.40456808  0.51686341  0.81214455  1  0.117723  0  -0.031643  -0.141622  0  3.92316  0
C  C20  1  0.59542478  0.48312504  0.18785903  1  0.117693  0  -0.031677  -0.141649  0  3.923124  0
C  C21  1  0.43289620  0.49867310  0.00098062  1  0.634298  0  0.10358  0.214623  0  4.11787  0
C  C22  1  0.56709894  0.50133414  0.99902246  1  0.568239  0  0.103627  0.214709  0  4.117849  0
C  C23  1  0.07219640  0.49523404  0.48378966  1  0.668547  0  0.12284  0.174343  0  3.926102  0
Br  Br24  1  0.87781859  0.69430900  0.37272955  1  0.251869  0  0.173089  0.115258  0  1.508318  0
Br  Br25  1  0.12216691  0.30567428  0.62724359  1  0.251559  0  0.173129  0.115276  0  1.508042  0
Br  Br26  1  0.39787675  0.12938598  0.39818649  1  -0.044444  0  0.032541  -0.040681  0  1.446326  0
Br  Br27  1  0.60215882  0.87060018  0.60179742  1  -0.044411  0  0.032569  -0.040657  0  1.446369  0
Br  Br28  1  0.83780931  0.42857137  0.65136551  1  0.062699  0  0.108479  0.039033  0  1.617824  0
Br  Br29  1  0.16219198  0.57147959  0.34865174  1  0.062796  0  0.108475  0.039042  0  1.617839  0
N  N30  1  0.15890496  0.43862120  0.52524627  1  -0.96158  0  -0.311431  -0.246706  0  3.236243  0
N  N31  1  0.84109553  0.56137780  0.47474624  1  -0.96158  0  -0.311484  -0.246819  0  3.23655  0
N  N32  1  0.66700212  0.51133381  0.90616653  1  -1.210413  0  -0.572022  -0.587192  0  3.325298  0
N  N33  1  0.33299293  0.48867617  0.09383571  1  -1.211118  0  -0.572074  -0.587157  0  3.32532  0
O  O34  1  0.56282280  0.67628616  0.46632764  1  -1.167161  0  -0.320429  -0.572952  0  2.426357  0
O  O35  1  0.43718308  0.32370033  0.53366494  1  -1.166867  0  -0.320301  -0.572791  0  2.4263  0
O  O36  1  0.34247646  0.67297721  0.48420522  1  -1.146225  0  -0.323631  -0.544053  0  2.262657  0
O  O37  1  0.65752296  0.32701554  0.51581476  1  -1.14613  0  -0.323593  -0.543991  0  2.262403  0
O  O38  1  0.67275133  0.49103811  0.33502383  1  -1.140368  0  -0.314428  -0.534218  0  2.26617  0
O  O39  1  0.32724401  0.50893596  0.66498129  1  -1.140425  0  -0.314457  -0.534246  0  2.266178  0
O  O40  1  0.45174057  0.47758056  0.35034164  1  -1.150132  0  -0.319956  -0.570963  0  2.351168  0
O  O41  1  0.54825187  0.52241953  0.64966157  1  -1.149843  0  -0.319965  -0.570899  0  2.350809  0
