# generated using pymatgen
data_ZnH22C29(NO4)2
_symmetry_space_group_name_H-M   'P 1'
_cell_length_a   8.62636771
_cell_length_b   12.34516897
_cell_length_c   13.32484399
_cell_angle_alpha   72.89994800
_cell_angle_beta   80.88109129
_cell_angle_gamma   85.70453040
_symmetry_Int_Tables_number   1
_chemical_formula_structural   ZnH22C29(NO4)2
_chemical_formula_sum   'Zn2 H44 C58 N4 O16'
_cell_volume   1338.54116956
_cell_formula_units_Z   2
loop_
 _symmetry_equiv_pos_site_id
 _symmetry_equiv_pos_as_xyz
  1  'x, y, z'
loop_
 _atom_site_type_symbol
 _atom_site_label
 _atom_site_symmetry_multiplicity
 _atom_site_fract_x
 _atom_site_fract_y
 _atom_site_fract_z
 _atom_site_occupancy
 _atom_site_hle17_bader_spin_density
 _atom_site_hle17_ddec_charge
 _atom_site_hle17_ddec_spin_density
 _atom_site_hle17_ddec_sum_bond_order
 _atom_site_hle17_magmom
 _atom_site_hse06_10hf_bader_spin_density
 _atom_site_hse06_10hf_ddec_charge
 _atom_site_hse06_10hf_ddec_spin_density
 _atom_site_hse06_10hf_ddec_sum_bond_order
 _atom_site_hse06_10hf_magmom
 _atom_site_hse06_bader_spin_density
 _atom_site_hse06_ddec_charge
 _atom_site_hse06_ddec_spin_density
 _atom_site_hse06_ddec_sum_bond_order
 _atom_site_hse06_magmom
 _atom_site_pbe_bader_spin_density
 _atom_site_pbe_cm5_charge
 _atom_site_pbe_ddec_charge
 _atom_site_pbe_ddec_spin_density
 _atom_site_pbe_ddec_sum_bond_order
 _atom_site_pbe_magmom
Zn  Zn0  1  0.94221571  0.39319748  0.24656612  1  0  0.980774  0  1.883598  0  0  0.785824  0  2.36584  0  0  0.832941  0  2.311674  0  0  0.69779  0.753066  0  2.402996  0
Zn  Zn1  1  0.05778484  0.60680158  0.75343361  1  0  0.980766  0  1.88363  0  0  0.785802  0  2.365879  0  0  0.83292  0  2.31171  0  0  0.697794  0.753045  0  2.403033  0
H  H2  1  0.00533083  0.97054496  0.58774175  1  0  0.394035  0  0.901225  0  0  0.362728  0  0.980862  0  0  0.375966  0  0.964696  0  0  0.302034  0.35344  0  0.990755  0
H  H3  1  0.99466966  0.02945580  0.41225753  1  0  0.394066  0  0.901141  0  0  0.362739  0  0.980814  0  0  0.375976  0  0.964671  0  0  0.302032  0.353451  0  0.990706  0
H  H4  1  0.54441522  0.28196349  0.18687719  1  0  0.41932  0  0.880143  0  0  0.387457  0  0.952761  0  0  0.400377  0  0.934236  0  0  0.304799  0.378387  0  0.965736  0
H  H5  1  0.45558406  0.71803812  0.81312199  1  0  0.419362  0  0.880108  0  0  0.387483  0  0.952737  0  0  0.400404  0  0.934211  0  0  0.304786  0.378412  0  0.965713  0
H  H6  1  0.40013373  0.18283393  0.36130448  1  0  0.108395  0  0.945602  0  0  0.115602  0  1.012499  0  0  0.119777  0  1.008777  0  0  0.109516  0.112534  0  1.015174  0
H  H7  1  0.59986678  0.81716598  0.63869578  1  0  0.108411  0  0.945602  0  0  0.115618  0  1.012497  0  0  0.119795  0  1.008771  0  0  0.109532  0.112556  0  1.015172  0
H  H8  1  0.31697421  0.01468104  0.69732308  1  0  0.125218  0  0.929201  0  0  0.134555  0  0.98909  0  0  0.138706  0  0.985533  0  0  0.114095  0.13154  0  0.991704  0
H  H9  1  0.68302513  0.98531887  0.30267729  1  0  0.125228  0  0.929185  0  0  0.134565  0  0.989071  0  0  0.138715  0  0.985515  0  0  0.114101  0.131549  0  0.991683  0
H  H10  1  0.73399563  0.20674965  0.56055462  1  0  0.108732  0  0.933865  0  0  0.120077  0  0.991662  0  0  0.124178  0  0.988285  0  0  0.108339  0.117121  0  0.994097  0
H  H11  1  0.26600242  0.79325279  0.43944670  1  0  0.108582  0  0.93401  0  0  0.119973  0  0.991767  0  0  0.124076  0  0.988387  0  0  0.108288  0.117007  0  0.994212  0
H  H12  1  0.70835078  0.09215326  0.73986772  1  0  0.084542  0  0.928722  0  0  0.103874  0  0.984777  0  0  0.105235  0  0.983438  0  0  0.098143  0.102855  0  0.985809  0
H  H13  1  0.29164860  0.90784581  0.26013212  1  0  0.084527  0  0.928736  0  0  0.103859  0  0.984791  0  0  0.105221  0  0.983451  0  0  0.098146  0.10284  0  0.985822  0
H  H14  1  0.55550232  0.99408590  0.79421201  1  0  0.103731  0  0.950819  0  0  0.120617  0  1.010825  0  0  0.121427  0  1.011051  0  0  0.101955  0.119996  0  1.010739  0
H  H15  1  0.44450061  0.00591231  0.20578771  1  0  0.103728  0  0.950795  0  0  0.12061  0  1.010822  0  0  0.121422  0  1.011043  0  0  0.101935  0.119988  0  1.010736  0
H  H16  1  0.33653302  0.24363793  0.70931608  1  0  0.099229  0  0.974411  0  0  0.106764  0  1.041188  0  0  0.110312  0  1.038749  0  0  0.101717  0.104189  0  1.042981  0
H  H17  1  0.66346882  0.75635774  0.29068518  1  0  0.099208  0  0.974367  0  0  0.106739  0  1.04115  0  0  0.110287  0  1.038717  0  0  0.101706  0.104164  0  1.042942  0
H  H18  1  0.31957606  0.36112799  0.98291179  1  0  0.110864  0  0.943839  0  0  0.118867  0  1.009366  0  0  0.122827  0  1.006005  0  0  0.106074  0.11596  0  1.011835  0
H  H19  1  0.68042558  0.63887362  0.01708640  1  0  0.110856  0  0.943804  0  0  0.118885  0  1.009301  0  0  0.122847  0  1.005941  0  0  0.106054  0.115977  0  1.011773  0
H  H20  1  0.64153824  0.08861913  0.94346339  1  0  0.097468  0  0.958601  0  0  0.105811  0  1.02706  0  0  0.109379  0  1.024458  0  0  0.101836  0.103229  0  1.028926  0
H  H21  1  0.35845995  0.91137906  0.05654131  1  0  0.097509  0  0.958615  0  0  0.10585  0  1.027074  0  0  0.109418  0  1.024472  0  0  0.101856  0.10327  0  1.02894  0
H  H22  1  0.00461460  0.37371143  0.46121823  1  0  0.088408  0  0.929653  0  0  0.098941  0  0.987666  0  0  0.101668  0  0.985232  0  0  0.12131  0.096879  0  0.989555  0
H  H23  1  0.99538474  0.62629021  0.53877643  1  0  0.0884  0  0.929651  0  0  0.098907  0  0.987685  0  0  0.101635  0  0.98525  0  0  0.121298  0.096845  0  0.989572  0
H  H24  1  0.21308422  0.42427861  0.54663499  1  0  0.131126  0  0.98455  0  0  0.138223  0  1.048635  0  0  0.142236  0  1.046561  0  0  0.108297  0.135295  0  1.050371  0
H  H25  1  0.78691519  0.57572048  0.45336184  1  0  0.13112  0  0.98446  0  0  0.138229  0  1.048541  0  0  0.142246  0  1.04646  0  0  0.108292  0.135302  0  1.050277  0
H  H26  1  0.49588967  0.51680866  0.23634795  1  0  0.115453  0  0.959421  0  0  0.126739  0  1.016719  0  0  0.129066  0  1.017529  0  0  0.108994  0.125031  0  1.016359  0
H  H27  1  0.50411317  0.48319209  0.76365110  1  0  0.115472  0  0.959342  0  0  0.126729  0  1.016668  0  0  0.129056  0  1.017478  0  0  0.109012  0.12502  0  1.016308  0
H  H28  1  0.27591004  0.46093751  0.16487677  1  0  0.081215  0  0.923186  0  0  0.093777  0  0.979333  0  0  0.096309  0  0.976802  0  0  0.119958  0.091828  0  0.981307  0
H  H29  1  0.72409270  0.53906665  0.83511913  1  0  0.081223  0  0.923077  0  0  0.093757  0  0.979266  0  0  0.096291  0  0.976737  0  0  0.119927  0.091809  0  0.981241  0
H  H30  1  0.13572338  0.18140665  0.25186201  1  0  0.085795  0  0.951828  0  0  0.093648  0  1.017198  0  0  0.096639  0  1.014034  0  0  0.116763  0.091399  0  1.019573  0
H  H31  1  0.86427595  0.81859326  0.74813836  1  0  0.085793  0  0.951828  0  0  0.093648  0  1.017196  0  0  0.096637  0  1.014033  0  0  0.116767  0.0914  0  1.019571  0
H  H32  1  0.51745920  0.60692380  0.40481403  1  0  0.085054  0  0.93863  0  0  0.10489  0  0.999853  0  0  0.104809  0  1.00141  0  0  0.099172  0.104953  0  0.998766  0
H  H33  1  0.48254013  0.39307611  0.59518634  1  0  0.085044  0  0.938637  0  0  0.104879  0  0.999858  0  0  0.104803  0  1.00142  0  0  0.099167  0.104942  0  0.998773  0
H  H34  1  0.61746986  0.47811563  0.40768781  1  0  0.0926  0  0.942055  0  0  0.111409  0  1.000922  0  0  0.112115  0  1.001545  0  0  0.100771  0.110896  0  1.000507  0
H  H35  1  0.38252826  0.52188513  0.59231320  1  0  0.092631  0  0.942052  0  0  0.111426  0  1.000928  0  0  0.112136  0  1.001554  0  0  0.100781  0.110912  0  1.000511  0
H  H36  1  0.17033190  0.03901019  0.15086602  1  0  0.09717  0  0.969849  0  0  0.108942  0  1.031045  0  0  0.111452  0  1.0311  0  0  0.105793  0.107103  0  1.031222  0
H  H37  1  0.82966867  0.96098802  0.84913469  1  0  0.097164  0  0.969845  0  0  0.108937  0  1.031042  0  0  0.111447  0  1.031097  0  0  0.105797  0.107099  0  1.03122  0
H  H38  1  0.17321238  0.02378891  0.95361704  1  0  0.096311  0  0.931506  0  0  0.112693  0  0.992678  0  0  0.114097  0  0.992345  0  0  0.100168  0.111617  0  0.993025  0
H  H39  1  0.82678580  0.97621101  0.04638194  1  0  0.096377  0  0.931423  0  0  0.112713  0  0.992641  0  0  0.114117  0  0.992305  0  0  0.10017  0.111637  0  0.992989  0
H  H40  1  0.01150858  0.09011279  0.89082204  1  0  0.083662  0  0.920313  0  0  0.102721  0  0.974524  0  0  0.104158  0  0.973972  0  0  0.09835  0.101612  0  0.975029  0
H  H41  1  0.98848963  0.90988628  0.10917716  1  0  0.083648  0  0.920286  0  0  0.102722  0  0.974479  0  0  0.104154  0  0.973932  0  0  0.098361  0.101614  0  0.974982  0
H  H42  1  0.90017857  0.26386383  0.92389409  1  0  0.108224  0  0.931089  0  0  0.121735  0  0.98401  0  0  0.12443  0  0.984346  0  0  0.111582  0.119804  0  0.983962  0
H  H43  1  0.09981957  0.73613694  0.07610467  1  0  0.108217  0  0.931107  0  0  0.121716  0  0.984042  0  0  0.124409  0  0.984381  0  0  0.111585  0.119785  0  0.983992  0
H  H44  1  0.87356289  0.39764861  0.03580254  1  0  0.089523  0  0.922031  0  0  0.101414  0  0.978793  0  0  0.104051  0  0.975932  0  0  0.123636  0.099373  0  0.981026  0
H  H45  1  0.12643648  0.60235046  0.96419730  1  0  0.089523  0  0.922004  0  0  0.101418  0  0.978762  0  0  0.104056  0  0.975898  0  0  0.123631  0.099372  0  0.981  0
C  C46  1  0.57841716  0.20180098  0.45150450  1  0  -0.074455  0  3.775391  0  0  -0.048955  0  4.015583  0  0  -0.059395  0  4.040057  0  0  -0.019917  -0.042386  0  3.999159  0
C  C47  1  0.42158330  0.79819976  0.54849705  1  0  -0.074458  0  3.775343  0  0  -0.048953  0  4.015548  0  0  -0.059393  0  4.040023  0  0  -0.019919  -0.042384  0  3.999123  0
C  C48  1  0.43680909  0.16253652  0.43939876  1  0  -0.056588  0  3.700858  0  0  -0.09842  0  3.956469  0  0  -0.094862  0  3.976501  0  0  -0.070383  -0.100259  0  3.942782  0
C  C49  1  0.56319020  0.83746423  0.56060290  1  0  -0.056657  0  3.700892  0  0  -0.098482  0  3.956506  0  0  -0.094923  0  3.97654  0  0  -0.070425  -0.100329  0  3.942825  0
C  C50  1  0.34209767  0.09619846  0.52816833  1  0  -0.088184  0  3.796828  0  0  -0.064521  0  4.037884  0  0  -0.076372  0  4.064234  0  0  -0.019417  -0.056937  0  4.020143  0
C  C51  1  0.65790285  0.90380059  0.47183366  1  0  -0.088124  0  3.796701  0  0  -0.064464  0  4.037794  0  0  -0.076315  0  4.064143  0  0  -0.019396  -0.056881  0  4.020053  0
C  C52  1  0.38959342  0.06841539  0.62893983  1  0  -0.085231  0  3.636526  0  0  -0.120455  0  3.882641  0  0  -0.117793  0  3.899985  0  0  -0.068177  -0.121817  0  3.870804  0
C  C53  1  0.61040590  0.93158451  0.37106130  1  0  -0.085284  0  3.636519  0  0  -0.120493  0  3.88265  0  0  -0.117831  0  3.899993  0  0  -0.068201  -0.121853  0  3.870809  0
C  C54  1  0.53060512  0.10823515  0.64185439  1  0  0.095386  0  3.75265  0  0  0.120453  0  3.995732  0  0  0.11755  0  4.019967  0  0  -0.00596  0.122084  0  3.979317  0
C  C55  1  0.46939424  0.89176390  0.35814696  1  0  0.095339  0  3.752702  0  0  0.120374  0  3.99583  0  0  0.11747  0  4.020068  0  0  -0.005981  0.122005  0  3.979407  0
C  C56  1  0.62317348  0.17503217  0.55277461  1  0  -0.089508  0  3.671943  0  0  -0.128065  0  3.921906  0  0  -0.125695  0  3.939821  0  0  -0.074075  -0.129223  0  3.909662  0
C  C57  1  0.37682578  0.82496942  0.44722683  1  0  -0.089276  0  3.671958  0  0  -0.127854  0  3.921907  0  0  -0.125484  0  3.939824  0  0  -0.073984  -0.129008  0  3.90967  0
C  C58  1  0.58049129  0.08267651  0.74970439  1  0  -0.198983  0  3.730999  0  0  -0.251399  0  3.973381  0  0  -0.25182  0  3.986385  0  0  -0.153493  -0.250867  0  3.964514  0
C  C59  1  0.41950933  0.91732086  0.25029503  1  0  -0.198896  0  3.730957  0  0  -0.251314  0  3.973338  0  0  -0.251734  0  3.986345  0  0  -0.153467  -0.250784  0  3.964471  0
C  C60  1  0.50151445  0.15776290  0.81605184  1  0  0.104899  0  3.727148  0  0  0.130694  0  3.966003  0  0  0.128485  0  3.990622  0  0  -0.00549  0.131902  0  3.949325  0
C  C61  1  0.49848735  0.84223274  0.18395243  1  0  0.104809  0  3.727165  0  0  0.130645  0  3.965974  0  0  0.128432  0  3.990599  0  0  -0.005495  0.131856  0  3.949294  0
C  C62  1  0.38115941  0.23599789  0.78318697  1  0  -0.110679  0  3.694014  0  0  -0.143794  0  3.936462  0  0  -0.14316  0  3.955999  0  0  -0.081207  -0.143833  0  3.923172  0
C  C63  1  0.61884119  0.76399947  0.21681471  1  0  -0.110595  0  3.693973  0  0  -0.143717  0  3.936416  0  0  -0.143087  0  3.955958  0  0  -0.081158  -0.143755  0  3.923122  0
C  C64  1  0.31550333  0.30904117  0.84254970  1  0  -0.064824  0  3.78039  0  0  -0.037365  0  4.015231  0  0  -0.046165  0  4.038667  0  0  -0.020066  -0.031832  0  3.999553  0
C  C65  1  0.68449600  0.69095874  0.15745067  1  0  -0.064779  0  3.780391  0  0  -0.037318  0  4.015233  0  0  -0.046117  0  4.038669  0  0  -0.020064  -0.031787  0  3.999556  0
C  C66  1  0.36874780  0.30312616  0.93770994  1  0  -0.068724  0  3.703222  0  0  -0.111451  0  3.957631  0  0  -0.10848  0  3.976245  0  0  -0.079503  -0.113021  0  3.944973  0
C  C67  1  0.63125148  0.69687544  0.06228999  1  0  -0.06878  0  3.703232  0  0  -0.111536  0  3.95765  0  0  -0.10857  0  3.976267  0  0  -0.079504  -0.113108  0  3.944995  0
C  C68  1  0.48481368  0.22182788  0.97409694  1  0  -0.086025  0  3.807729  0  0  -0.06064  0  4.045161  0  0  -0.070383  0  4.070387  0  0  -0.024736  -0.054421  0  4.028176  0
C  C69  1  0.51518567  0.77817117  0.02590516  1  0  -0.085847  0  3.80765  0  0  -0.060447  0  4.045063  0  0  -0.070185  0  4.070284  0  0  -0.024676  -0.054228  0  4.02808  0
C  C70  1  0.55040199  0.15024327  0.91317168  1  0  -0.111271  0  3.697786  0  0  -0.145641  0  3.944722  0  0  -0.14477  0  3.964324  0  0  -0.079864  -0.145768  0  3.931299  0
C  C71  1  0.44959621  0.84975493  0.08683152  1  0  -0.111373  0  3.69783  0  0  -0.145778  0  3.94479  0  0  -0.144905  0  3.964387  0  0  -0.079917  -0.145905  0  3.931359  0
C  C72  1  0.68336922  0.27174537  0.35807337  1  0  0.654482  0  3.901252  0  0  0.603517  0  4.192039  0  0  0.638049  0  4.184679  0  0  0.21101  0.580152  0  4.196295  0
C  C73  1  0.31663011  0.72825453  0.64192776  1  0  0.654339  0  3.901331  0  0  0.603344  0  4.19216  0  0  0.637877  0  4.184803  0  0  0.210969  0.579979  0  4.196414  0
C  C74  1  0.19240515  0.05471116  0.51424841  1  0  0.662771  0  3.803282  0  0  0.61265  0  4.098633  0  0  0.646937  0  4.090329  0  0  0.240785  0.589394  0  4.103758  0
C  C75  1  0.80759533  0.94528960  0.48575163  1  0  0.662864  0  3.803173  0  0  0.612684  0  4.098606  0  0  0.646972  0  4.090302  0  0  0.240794  0.589428  0  4.10373  0
C  C76  1  0.19620834  0.39751280  0.79727956  1  0  0.619504  0  3.95143  0  0  0.571739  0  4.246329  0  0  0.605349  0  4.23963  0  0  0.192877  0.548964  0  4.250148  0
C  C77  1  0.80379108  0.60248542  0.20271975  1  0  0.619486  0  3.951549  0  0  0.57173  0  4.246429  0  0  0.605339  0  4.239732  0  0  0.192875  0.548955  0  4.250246  0
C  C78  1  0.54345090  0.20893323  0.07660460  1  0  0.63448  0  3.849934  0  0  0.588514  0  4.145141  0  0  0.621024  0  4.136999  0  0  0.221834  0.566443  0  4.15018  0
C  C79  1  0.45654720  0.79106837  0.92339620  1  0  0.634351  0  3.850105  0  0  0.588387  0  4.14531  0  0  0.620896  0  4.13717  0  0  0.221748  0.566316  0  4.15035  0
C  C80  1  0.11590695  0.40605108  0.41470515  1  0  0.144976  0  3.688688  0  0  0.112013  0  3.938284  0  0  0.119965  0  3.956005  0  0  0.050264  0.106913  0  3.926167  0
C  C81  1  0.88409359  0.59394972  0.58528962  1  0  0.145067  0  3.688656  0  0  0.11212  0  3.938231  0  0  0.120073  0  3.955953  0  0  0.050326  0.107022  0  3.926111  0
C  C82  1  0.23364129  0.43539098  0.46127415  1  0  -0.180989  0  3.674355  0  0  -0.195433  0  3.915866  0  0  -0.204818  0  3.937813  0  0  -0.084215  -0.189391  0  3.901203  0
C  C83  1  0.76635929  0.56460810  0.53872332  1  0  -0.181043  0  3.674408  0  0  -0.19553  0  3.915883  0  0  -0.204918  0  3.937827  0  0  -0.084242  -0.189488  0  3.901221  0
C  C84  1  0.37401791  0.47803805  0.39796516  1  0  0.166916  0  3.681944  0  0  0.180485  0  3.922591  0  0  0.186031  0  3.944725  0  0  0.018932  0.176921  0  3.907543  0
C  C85  1  0.62598616  0.52196100  0.60203423  1  0  0.166927  0  3.682051  0  0  0.180583  0  3.922548  0  0  0.186138  0  3.944685  0  0  0.018933  0.177018  0  3.907501  0
C  C86  1  0.38847829  0.48697248  0.28938677  1  0  -0.161273  0  3.696847  0  0  -0.180249  0  3.9444  0  0  -0.188516  0  3.967093  0  0  -0.084503  -0.174999  0  3.929278  0
C  C87  1  0.61152683  0.51302995  0.71061236  1  0  -0.161265  0  3.696828  0  0  -0.180219  0  3.944335  0  0  -0.188485  0  3.967026  0  0  -0.084485  -0.174968  0  3.92921  0
C  C88  1  0.26633045  0.45574386  0.24875902  1  0  0.129334  0  3.721571  0  0  0.096941  0  3.973374  0  0  0.104295  0  3.991342  0  0  0.045738  0.09222  0  3.96116  0
C  C89  1  0.73367238  0.54425775  0.75123831  1  0  0.129257  0  3.721435  0  0  0.096852  0  3.97325  0  0  0.1042  0  3.991224  0  0  0.045711  0.092131  0  3.961037  0
C  C90  1  0.50727301  0.51449119  0.43995388  1  0  -0.156673  0  3.698089  0  0  -0.200589  0  3.946136  0  0  -0.201786  0  3.957935  0  0  -0.157669  -0.199605  0  3.937852  0
C  C91  1  0.49272631  0.48550871  0.56004725  1  0  -0.156652  0  3.698135  0  0  -0.200572  0  3.946137  0  0  -0.20181  0  3.957982  0  0  -0.157625  -0.199588  0  3.937852  0
C  C92  1  0.08537530  0.19635923  0.17873389  1  0  0.140403  0  3.698019  0  0  0.106959  0  3.950516  0  0  0.115023  0  3.968246  0  0  0.04844  0.101831  0  3.938383  0
C  C93  1  0.91462643  0.80363983  0.82126497  1  0  0.140425  0  3.698055  0  0  0.106983  0  3.950549  0  0  0.115048  0  3.968277  0  0  0.048438  0.101855  0  3.938419  0
C  C94  1  0.10351862  0.11741537  0.12200027  1  0  -0.164957  0  3.702606  0  0  -0.182638  0  3.947313  0  0  -0.191944  0  3.97028  0  0  -0.083482  -0.176677  0  3.931949  0
C  C95  1  0.89648078  0.88258284  0.87800054  1  0  -0.164932  0  3.702675  0  0  -0.182618  0  3.947383  0  0  -0.191925  0  3.970352  0  0  -0.083482  -0.176656  0  3.93202  0
C  C96  1  0.03631754  0.13876853  0.02881137  1  0  0.168503  0  3.705859  0  0  0.184379  0  3.943268  0  0  0.190213  0  3.96598  0  0  0.02136  0.180696  0  3.927749  0
C  C97  1  0.96368063  0.86123138  0.97118911  1  0  0.168415  0  3.705915  0  0  0.184297  0  3.943311  0  0  0.190131  0  3.966026  0  0  0.021322  0.180615  0  3.927794  0
C  C98  1  0.04988812  0.05213121  0.96881057  1  0  -0.155014  0  3.672499  0  0  -0.199126  0  3.923425  0  0  -0.200916  0  3.934806  0  0  -0.150135  -0.197627  0  3.915285  0
C  C99  1  0.95011118  0.94787041  0.03118786  1  0  -0.155016  0  3.672425  0  0  -0.199096  0  3.923341  0  0  -0.200883  0  3.934724  0  0  -0.150134  -0.197601  0  3.915199  0
C  C100  1  0.95357511  0.24188743  0.99646275  1  0  -0.153186  0  3.68646  0  0  -0.173383  0  3.937343  0  0  -0.182456  0  3.959302  0  0  -0.076492  -0.167642  0  3.922682  0
C  C101  1  0.04642420  0.75811333  0.00353740  1  0  -0.153127  0  3.686429  0  0  -0.173318  0  3.937314  0  0  -0.182392  0  3.959272  0  0  -0.076463  -0.167576  0  3.922648  0
C  C102  1  0.93901199  0.31717277  0.05725771  1  0  0.162031  0  3.667065  0  0  0.126056  0  3.922524  0  0  0.135443  0  3.938547  0  0  0.057705  0.119995  0  3.911639  0
C  C103  1  0.06098618  0.68282714  0.94274203  1  0  0.162053  0  3.667047  0  0  0.126082  0  3.922493  0  0  0.135469  0  3.938515  0  0  0.057721  0.120026  0  3.911607  0
N  N104  1  0.13092300  0.41620242  0.31016043  1  0  -0.342462  0  3.347131  0  0  -0.258335  0  3.631592  0  0  -0.277994  0  3.645273  0  0  -0.339267  -0.245117  0  3.622104  0
N  N105  1  0.86907984  0.58379920  0.68983539  1  0  -0.342469  0  3.347022  0  0  -0.258307  0  3.631439  0  0  -0.277968  0  3.645123  0  0  -0.339278  -0.245091  0  3.621951  0
N  N106  1  0.00310553  0.29468647  0.14735292  1  0  -0.343842  0  3.315507  0  0  -0.258982  0  3.598237  0  0  -0.279149  0  3.611879  0  0  -0.337876  -0.24545  0  3.588785  0
N  N107  1  0.99689502  0.70531259  0.85264681  1  0  -0.34388  0  3.315606  0  0  -0.259026  0  3.598344  0  0  -0.279193  0  3.611984  0  0  -0.33788  -0.245494  0  3.588891  0
O  O108  1  0.81052371  0.30509927  0.37831222  1  0  -0.639312  0  2.028726  0  0  -0.56956  0  2.299121  0  0  -0.597956  0  2.28387  0  0  -0.328971  -0.549695  0  2.308862  0
O  O109  1  0.18947560  0.69490149  0.62168793  1  0  -0.639245  0  2.028724  0  0  -0.569486  0  2.299136  0  0  -0.597879  0  2.283877  0  0  -0.32896  -0.549619  0  2.308875  0
O  O110  1  0.64767142  0.29694591  0.26598574  1  0  -0.624502  0  2.040367  0  0  -0.571169  0  2.271679  0  0  -0.596073  0  2.261765  0  0  -0.307698  -0.5539  0  2.278026  0
O  O111  1  0.35232784  0.70305568  0.73401569  1  0  -0.624453  0  2.040426  0  0  -0.571099  0  2.271746  0  0  -0.596005  0  2.261834  0  0  -0.307682  -0.553834  0  2.278102  0
O  O112  1  0.15124066  0.07286750  0.42463949  1  0  -0.574157  0  1.996887  0  0  -0.523898  0  2.213468  0  0  -0.547091  0  2.203798  0  0  -0.286613  -0.507988  0  2.219489  0
O  O113  1  0.84875867  0.92713240  0.57536163  1  0  -0.574212  0  1.996857  0  0  -0.523932  0  2.213451  0  0  -0.547126  0  2.203775  0  0  -0.286619  -0.508024  0  2.219474  0
O  O114  1  0.10720213  0.99794923  0.60305228  1  0  -0.536734  0  2.097676  0  0  -0.485183  0  2.306938  0  0  -0.507594  0  2.291264  0  0  -0.322046  -0.469627  0  2.316242  0
O  O115  1  0.89279836  0.00205153  0.39694701  1  0  -0.53679  0  2.09758  0  0  -0.485204  0  2.306879  0  0  -0.507612  0  2.29122  0  0  -0.322047  -0.469649  0  2.316182  0
O  O116  1  0.14457706  0.39637850  0.71498003  1  0  -0.616153  0  1.923276  0  0  -0.573581  0  2.143695  0  0  -0.595252  0  2.134753  0  0  -0.329563  -0.558415  0  2.149388  0
O  O117  1  0.85542586  0.60362057  0.28501796  1  0  -0.61612  0  1.923396  0  0  -0.573556  0  2.143809  0  0  -0.595228  0  2.134871  0  0  -0.329528  -0.55839  0  2.149501  0
O  O118  1  0.15856012  0.47482899  0.84617060  1  0  -0.65442  0  2.051095  0  0  -0.584287  0  2.327471  0  0  -0.613268  0  2.312517  0  0  -0.339307  -0.563901  0  2.336934  0
O  O119  1  0.84143926  0.52517008  0.15382849  1  0  -0.654457  0  2.051078  0  0  -0.584326  0  2.327442  0  0  -0.613307  0  2.312489  0  0  -0.339343  -0.563941  0  2.336906  0
O  O120  1  0.48856140  0.28944523  0.12275992  1  0  -0.573841  0  2.077362  0  0  -0.524638  0  2.287249  0  0  -0.547009  0  2.269375  0  0  -0.343147  -0.508903  0  2.299106  0
O  O121  1  0.51143437  0.71055553  0.87724133  1  0  -0.573862  0  2.077341  0  0  -0.524658  0  2.287219  0  0  -0.547029  0  2.269342  0  0  -0.343111  -0.508921  0  2.299079  0
O  O122  1  0.63403515  0.13069050  0.11449615  1  0  -0.558588  0  1.928139  0  0  -0.519982  0  2.143444  0  0  -0.53982  0  2.136893  0  0  -0.296792  -0.506349  0  2.147671  0
O  O123  1  0.36596179  0.86931025  0.88550574  1  0  -0.558556  0  1.928305  0  0  -0.51995  0  2.143606  0  0  -0.539787  0  2.137051  0  0  -0.296764  -0.506316  0  2.147831  0
