# generated using pymatgen
data_ZnH13C20N5O4
_symmetry_space_group_name_H-M   'P 1'
_cell_length_a   8.48162302
_cell_length_b   10.02780065
_cell_length_c   11.72978091
_cell_angle_alpha   89.57973867
_cell_angle_beta   85.57981108
_cell_angle_gamma   68.80649992
_symmetry_Int_Tables_number   1
_chemical_formula_structural   ZnH13C20N5O4
_chemical_formula_sum   'Zn2 H26 C40 N10 O8'
_cell_volume   927.17317514
_cell_formula_units_Z   2
loop_
 _symmetry_equiv_pos_site_id
 _symmetry_equiv_pos_as_xyz
  1  'x, y, z'
loop_
 _atom_site_type_symbol
 _atom_site_label
 _atom_site_symmetry_multiplicity
 _atom_site_fract_x
 _atom_site_fract_y
 _atom_site_fract_z
 _atom_site_occupancy
 _atom_site_hle17_bader_spin_density
 _atom_site_hle17_ddec_charge
 _atom_site_hle17_ddec_spin_density
 _atom_site_hle17_ddec_sum_bond_order
 _atom_site_hle17_magmom
 _atom_site_hse06_10hf_bader_spin_density
 _atom_site_hse06_10hf_ddec_charge
 _atom_site_hse06_10hf_ddec_spin_density
 _atom_site_hse06_10hf_ddec_sum_bond_order
 _atom_site_hse06_10hf_magmom
 _atom_site_hse06_bader_spin_density
 _atom_site_hse06_ddec_charge
 _atom_site_hse06_ddec_spin_density
 _atom_site_hse06_ddec_sum_bond_order
 _atom_site_hse06_magmom
 _atom_site_pbe_bader_spin_density
 _atom_site_pbe_cm5_charge
 _atom_site_pbe_ddec_charge
 _atom_site_pbe_ddec_spin_density
 _atom_site_pbe_ddec_sum_bond_order
 _atom_site_pbe_magmom
Zn  Zn0  1  0.45418431  0.83827157  0.40512777  1  0  1.049176  0  1.788719  0  0  0.861824  0  2.247366  0  0  0.913238  0  2.190877  0  0  0.688738  0.82349  0  2.288302  0
Zn  Zn1  1  0.54581670  0.16172831  0.59487327  1  0  1.049169  0  1.788712  0  0  0.86182  0  2.247354  0  0  0.913234  0  2.190869  0  0  0.688748  0.823485  0  2.288289  0
H  H2  1  0.38698678  0.13244635  0.13114610  1  0  0.097393  0  0.971724  0  0  0.102358  0  1.043393  0  0  0.105814  0  1.040644  0  0  0.103692  0.099939  0  1.045171  0
H  H3  1  0.61301649  0.86754817  0.86885653  1  0  0.097374  0  0.971671  0  0  0.102348  0  1.043337  0  0  0.105804  0  1.040588  0  0  0.103658  0.09993  0  1.045114  0
H  H4  1  0.39558561  0.32117413  0.99539416  1  0  0.094871  0  0.948354  0  0  0.104431  0  1.006895  0  0  0.107378  0  1.006652  0  0  0.101174  0.102358  0  1.007169  0
H  H5  1  0.60442165  0.67881930  0.00460654  1  0  0.094853  0  0.948385  0  0  0.104461  0  1.006867  0  0  0.107408  0  1.006625  0  0  0.101168  0.102387  0  1.007146  0
H  H6  1  0.39072621  0.55602229  0.07045508  1  0  0.095564  0  0.956309  0  0  0.104704  0  1.020313  0  0  0.108068  0  1.017708  0  0  0.104383  0.102317  0  1.022007  0
H  H7  1  0.60927703  0.44397224  0.92954586  1  0  0.095584  0  0.956285  0  0  0.10477  0  1.020225  0  0  0.108126  0  1.017617  0  0  0.104419  0.102383  0  1.021916  0
H  H8  1  0.38212068  0.40535181  0.41370878  1  0  0.108444  0  0.958406  0  0  0.114918  0  1.028064  0  0  0.118995  0  1.024014  0  0  0.107103  0.112037  0  1.030993  0
H  H9  1  0.61787513  0.59464918  0.58629258  1  0  0.108465  0  0.958353  0  0  0.114941  0  1.028003  0  0  0.119018  0  1.023951  0  0  0.107101  0.112059  0  1.030933  0
H  H10  1  0.33228906  0.65202953  0.56005262  1  0  0.093358  0  0.968087  0  0  0.098939  0  1.035278  0  0  0.101934  0  1.032427  0  0  0.116925  0.096606  0  1.037558  0
H  H11  1  0.66770911  0.34797145  0.43994688  1  0  0.093384  0  0.968092  0  0  0.098994  0  1.035256  0  0  0.10199  0  1.032401  0  0  0.116939  0.096661  0  1.037537  0
H  H12  1  0.15540591  0.67249763  0.74485817  1  0  0.113903  0  0.95228  0  0  0.121692  0  1.015608  0  0  0.125061  0  1.014724  0  0  0.109975  0.119024  0  1.016865  0
H  H13  1  0.84458868  0.32750339  0.25513985  1  0  0.113854  0  0.952343  0  0  0.121646  0  1.015675  0  0  0.125018  0  1.01478  0  0  0.109972  0.118982  0  1.016919  0
H  H14  1  0.96013344  0.13060504  0.70312445  1  0  0.115634  0  0.955833  0  0  0.124263  0  1.018002  0  0  0.127188  0  1.018284  0  0  0.109166  0.121844  0  1.018533  0
H  H15  1  0.03986475  0.86939593  0.29687676  1  0  0.115637  0  0.955847  0  0  0.124286  0  1.017987  0  0  0.127211  0  1.018267  0  0  0.109158  0.121866  0  1.018518  0
H  H16  1  0.15661957  0.09201108  0.52712936  1  0  0.088363  0  0.949192  0  0  0.097043  0  1.010729  0  0  0.099596  0  1.008812  0  0  0.116114  0.09518  0  1.012044  0
H  H17  1  0.84338054  0.90799094  0.47287173  1  0  0.08834  0  0.949172  0  0  0.096995  0  1.010741  0  0  0.099544  0  1.008826  0  0  0.116098  0.095133  0  1.012055  0
H  H18  1  0.07329085  0.60889138  0.07210815  1  0  0.105437  0  0.949654  0  0  0.1156  0  1.011768  0  0  0.118604  0  1.009248  0  0  0.109836  0.113418  0  1.01347  0
H  H19  1  0.92671206  0.39110955  0.92789107  1  0  0.105432  0  0.949638  0  0  0.115594  0  1.01176  0  0  0.118597  0  1.00924  0  0  0.109828  0.113412  0  1.013463  0
H  H20  1  0.04536874  0.47944351  0.25248241  1  0  0.105089  0  0.963558  0  0  0.114019  0  1.024  0  0  0.115936  0  1.025858  0  0  0.105757  0.112585  0  1.022949  0
H  H21  1  0.95463343  0.52055637  0.74751601  1  0  0.105107  0  0.963543  0  0  0.114037  0  1.023983  0  0  0.115949  0  1.025854  0  0  0.105756  0.112604  0  1.022931  0
H  H22  1  0.78770975  0.59203509  0.38989940  1  0  0.084478  0  0.92989  0  0  0.094926  0  0.989325  0  0  0.097595  0  0.986769  0  0  0.117908  0.092895  0  0.991316  0
H  H23  1  0.21229166  0.40796374  0.61009822  1  0  0.084539  0  0.929827  0  0  0.094978  0  0.98926  0  0  0.097648  0  0.986699  0  0  0.117919  0.092946  0  0.991252  0
H  H24  1  0.59666017  0.93950828  0.18262392  1  0  0.093602  0  0.958748  0  0  0.098319  0  1.029559  0  0  0.101328  0  1.026569  0  0  0.119595  0.096143  0  1.031664  0
H  H25  1  0.40333965  0.06049161  0.81737719  1  0  0.093602  0  0.958749  0  0  0.098322  0  1.02955  0  0  0.101332  0  1.02656  0  0  0.119599  0.096146  0  1.031657  0
H  H26  1  0.75296719  0.12548589  0.85319151  1  0  0.326656  0  0.916717  0  0  0.302965  0  0.983524  0  0  0.312192  0  0.974973  0  0  0.3251  0.29638  0  0.989717  0
H  H27  1  0.24702938  0.87451616  0.14681065  1  0  0.326597  0  0.916767  0  0  0.302907  0  0.983582  0  0  0.312134  0  0.97503  0  0  0.325076  0.296322  0  0.989773  0
C  C28  1  0.37723756  0.14436487  0.36471422  1  0  0.669975  0  3.874095  0  0  0.617296  0  4.164091  0  0  0.6534  0  4.154883  0  0  0.215475  0.59264  0  4.169485  0
C  C29  1  0.62276152  0.85563396  0.63528694  1  0  0.670037  0  3.874146  0  0  0.617368  0  4.164127  0  0  0.653472  0  4.154919  0  0  0.215491  0.592711  0  4.169525  0
C  C30  1  0.37949835  0.25790913  0.28139834  1  0  -0.088234  0  3.766423  0  0  -0.06154  0  3.999131  0  0  -0.072289  0  4.022837  0  0  -0.024961  -0.054663  0  3.983319  0
C  C31  1  0.62050029  0.74209078  0.71860285  1  0  -0.088281  0  3.76639  0  0  -0.061625  0  3.999136  0  0  -0.072375  0  4.022842  0  0  -0.024962  -0.054749  0  3.983327  0
C  C32  1  0.38518995  0.23449421  0.16318761  1  0  -0.039701  0  3.702963  0  0  -0.071446  0  3.959826  0  0  -0.067041  0  3.976816  0  0  -0.0761  -0.073265  0  3.947427  0
C  C33  1  0.61481360  0.76550244  0.83681415  1  0  -0.039572  0  3.702723  0  0  -0.071299  0  3.959571  0  0  -0.066889  0  3.976552  0  0  -0.076001  -0.073118  0  3.947175  0
C  C34  1  0.39023749  0.34078278  0.08714097  1  0  -0.072938  0  3.748665  0  0  -0.082673  0  4.00218  0  0  -0.087353  0  4.022097  0  0  -0.088375  -0.079829  0  3.988347  0
C  C35  1  0.60976740  0.65921067  0.91286072  1  0  -0.072893  0  3.748752  0  0  -0.082675  0  4.002265  0  0  -0.087355  0  4.022183  0  0  -0.088387  -0.079832  0  3.988432  0
C  C36  1  0.38959942  0.47096370  0.12851724  1  0  -0.062127  0  3.727722  0  0  -0.086449  0  3.971501  0  0  -0.083974  0  3.990028  0  0  -0.077976  -0.087189  0  3.95829  0
C  C37  1  0.61040411  0.52903296  0.87148367  1  0  -0.062283  0  3.727808  0  0  -0.086631  0  3.971629  0  0  -0.084144  0  3.990144  0  0  -0.078018  -0.087369  0  3.958416  0
C  C38  1  0.38906487  0.49381649  0.24632279  1  0  -0.07299  0  3.784234  0  0  -0.046306  0  4.014043  0  0  -0.056046  0  4.037863  0  0  -0.020998  -0.040132  0  3.99819  0
C  C39  1  0.61093822  0.50618124  0.75367814  1  0  -0.07294  0  3.784151  0  0  -0.046274  0  4.013973  0  0  -0.056012  0  4.037789  0  0  -0.021062  -0.040099  0  3.99812  0
C  C40  1  0.38321107  0.38746536  0.32217984  1  0  -0.077932  0  3.725385  0  0  -0.112386  0  3.97047  0  0  -0.109371  0  3.989371  0  0  -0.079  -0.114446  0  3.95837  0
C  C41  1  0.61678712  0.61253562  0.67782138  1  0  -0.07799  0  3.725394  0  0  -0.112428  0  3.970475  0  0  -0.109412  0  3.989375  0  0  -0.078998  -0.114487  0  3.958376  0
C  C42  1  0.39763904  0.62981271  0.29100029  1  0  0.641913  0  3.92419  0  0  0.594117  0  4.210397  0  0  0.628171  0  4.203531  0  0  0.203097  0.570916  0  4.214218  0
C  C43  1  0.60235912  0.37018828  0.70899836  1  0  0.6419  0  3.924171  0  0  0.594116  0  4.210365  0  0  0.628167  0  4.203502  0  0  0.203107  0.570915  0  4.214186  0
C  C44  1  0.24972598  0.75589675  0.59594761  1  0  0.119919  0  3.708349  0  0  0.091619  0  3.954499  0  0  0.097797  0  3.973976  0  0  0.041704  0.087688  0  3.941146  0
C  C45  1  0.75027218  0.24410424  0.40405104  1  0  0.119868  0  3.708352  0  0  0.091534  0  3.954506  0  0  0.097712  0  3.973985  0  0  0.041674  0.087603  0  3.941154  0
C  C46  1  0.14992418  0.76747770  0.69729807  1  0  -0.134289  0  3.685907  0  0  -0.152122  0  3.925343  0  0  -0.159385  0  3.946191  0  0  -0.077372  -0.147435  0  3.911746  0
C  C47  1  0.85007071  0.23252545  0.30270078  1  0  -0.134187  0  3.685919  0  0  -0.15202  0  3.925359  0  0  -0.159282  0  3.946212  0  0  -0.077331  -0.147332  0  3.911765  0
C  C48  1  0.04413676  0.90332213  0.74003230  1  0  0.066505  0  3.765828  0  0  0.080985  0  3.99947  0  0  0.08492  0  4.018662  0  0  0.021143  0.07815  0  3.98655  0
C  C49  1  0.95585931  0.09668101  0.25996562  1  0  0.066536  0  3.7659  0  0  0.081012  0  3.999562  0  0  0.084946  0  4.018755  0  0  0.02115  0.078174  0  3.986642  0
C  C50  1  0.04196660  0.02249858  0.67582444  1  0  -0.141361  0  3.679447  0  0  -0.165269  0  3.93517  0  0  -0.172263  0  3.955484  0  0  -0.080429  -0.160759  0  3.922152  0
C  C51  1  0.95803230  0.97750347  0.32417416  1  0  -0.141472  0  3.679556  0  0  -0.165387  0  3.935275  0  0  -0.17238  0  3.955585  0  0  -0.080437  -0.160876  0  3.922257  0
C  C52  1  0.14914552  0.00169529  0.57640181  1  0  0.134241  0  3.698189  0  0  0.101693  0  3.956137  0  0  0.109085  0  3.973543  0  0  0.044916  0.097  0  3.944025  0
C  C53  1  0.85085413  0.99830781  0.42359760  1  0  0.134286  0  3.698204  0  0  0.101752  0  3.95616  0  0  0.10915  0  3.97356  0  0  0.044928  0.097056  0  3.94405  0
C  C54  1  0.94646833  0.91325757  0.84942463  1  0  0.309679  0  3.75896  0  0  0.27423  0  4.032675  0  0  0.286881  0  4.046369  0  0  0.22558  0.266235  0  4.022873  0
C  C55  1  0.05352940  0.08674448  0.15057490  1  0  0.309723  0  3.758901  0  0  0.274227  0  4.032693  0  0  0.286877  0  4.046389  0  0  0.225566  0.266232  0  4.02289  0
C  C56  1  0.85558452  0.86476512  0.01177940  1  0  0.274057  0  3.836185  0  0  0.25356  0  4.115483  0  0  0.262821  0  4.13442  0  0  0.206598  0.24762  0  4.102629  0
C  C57  1  0.14441291  0.13523480  0.98822016  1  0  0.274041  0  3.836179  0  0  0.25357  0  4.115457  0  0  0.262832  0  4.13439  0  0  0.206585  0.24763  0  4.1026  0
C  C58  1  0.83971910  0.78576236  0.11428239  1  0  -0.038797  0  3.784229  0  0  -0.017858  0  4.019455  0  0  -0.023465  0  4.04221  0  0  0.002299  -0.014591  0  4.004225  0
C  C59  1  0.16028071  0.21423754  0.88571702  1  0  -0.038712  0  3.784262  0  0  -0.017812  0  4.019517  0  0  -0.023419  0  4.042271  0  0  0.002326  -0.014546  0  4.004285  0
C  C60  1  0.96480405  0.65327041  0.13439227  1  0  -0.025906  0  3.676063  0  0  -0.056254  0  3.922598  0  0  -0.052513  0  3.939661  0  0  -0.060925  -0.058249  0  3.910953  0
C  C61  1  0.03519694  0.34672948  0.86560707  1  0  -0.025938  0  3.676061  0  0  -0.056282  0  3.922617  0  0  -0.05254  0  3.93968  0  0  -0.060961  -0.058278  0  3.910972  0
C  C62  1  0.94870908  0.58175649  0.23423411  1  0  -0.1242  0  3.75645  0  0  -0.132569  0  4.006289  0  0  -0.140119  0  4.02929  0  0  -0.084938  -0.127973  0  3.991549  0
C  C63  1  0.05129265  0.41824446  0.76576518  1  0  -0.124217  0  3.756404  0  0  -0.132592  0  4.006242  0  0  -0.140142  0  4.029235  0  0  -0.084927  -0.127997  0  3.991501  0
C  C64  1  0.80678976  0.64339130  0.31058215  1  0  0.121982  0  3.697899  0  0  0.088789  0  3.946858  0  0  0.095772  0  3.965223  0  0  0.043705  0.084183  0  3.934762  0
C  C65  1  0.19321316  0.35660964  0.68941707  1  0  0.121895  0  3.697869  0  0  0.088726  0  3.946816  0  0  0.095712  0  3.965174  0  0  0.043698  0.08412  0  3.934716  0
C  C66  1  0.69970262  0.83876285  0.19498689  1  0  0.105276  0  3.646961  0  0  0.064733  0  3.896302  0  0  0.071745  0  3.913451  0  0  0.054825  0.060366  0  3.884649  0
C  C67  1  0.30029719  0.16123706  0.80501252  1  0  0.105245  0  3.646968  0  0  0.064731  0  3.896297  0  0  0.071743  0  3.913447  0  0  0.05483  0.060362  0  3.884645  0
N  N68  1  0.25304639  0.87121496  0.53687326  1  0  -0.338872  0  3.2676  0  0  -0.258785  0  3.53495  0  0  -0.278317  0  3.551868  0  0  -0.323821  -0.245403  0  3.523149  0
N  N69  1  0.74695343  0.12878494  0.46312701  1  0  -0.338841  0  3.267621  0  0  -0.258739  0  3.534946  0  0  -0.278271  0  3.551864  0  0  -0.323808  -0.245356  0  3.523145  0
N  N70  1  0.97583015  0.80701673  0.92412859  1  0  -0.456291  0  2.919534  0  0  -0.431707  0  3.189733  0  0  -0.445888  0  3.20148  0  0  -0.333675  -0.422125  0  3.181569  0
N  N71  1  0.02416801  0.19298426  0.07587006  1  0  -0.456324  0  2.919486  0  0  -0.431724  0  3.189683  0  0  -0.445905  0  3.201428  0  0  -0.333684  -0.422143  0  3.181519  0
N  N72  1  0.81412277  0.02928608  0.89254099  1  0  -0.202729  0  3.417552  0  0  -0.138755  0  3.656521  0  0  -0.152313  0  3.671379  0  0  -0.25259  -0.129832  0  3.646661  0
N  N73  1  0.18587541  0.97071489  0.10745937  1  0  -0.202683  0  3.417519  0  0  -0.138699  0  3.656494  0  0  -0.152259  0  3.671354  0  0  -0.252572  -0.129776  0  3.646633  0
N  N74  1  0.75309311  0.00078757  0.99528834  1  0  -0.25048  0  2.822258  0  0  -0.245378  0  3.091537  0  0  -0.253159  0  3.106629  0  0  -0.218148  -0.240288  0  3.08152  0
N  N75  1  0.24690670  0.99921233  0.00471192  1  0  -0.250481  0  2.82225  0  0  -0.245381  0  3.091512  0  0  -0.253161  0  3.106603  0  0  -0.218134  -0.240291  0  3.081495  0
N  N76  1  0.68353236  0.76895830  0.29032964  1  0  -0.311598  0  3.290488  0  0  -0.231884  0  3.553052  0  0  -0.250954  0  3.571536  0  0  -0.31884  -0.219111  0  3.540505  0
N  N77  1  0.31646581  0.23104268  0.70966987  1  0  -0.31156  0  3.290528  0  0  -0.231872  0  3.553103  0  0  -0.250941  0  3.571586  0  0  -0.318842  -0.219095  0  3.540552  0
O  O78  1  0.37097408  0.02849764  0.32402654  1  0  -0.630416  0  2.078447  0  0  -0.561531  0  2.353139  0  0  -0.589208  0  2.338776  0  0  -0.312953  -0.541942  0  2.363475  0
O  O79  1  0.62902737  0.97150118  0.67597363  1  0  -0.630395  0  2.078442  0  0  -0.561529  0  2.353167  0  0  -0.589207  0  2.338803  0  0  -0.312945  -0.54194  0  2.363504  0
O  O80  1  0.37954849  0.16868469  0.47055810  1  0  -0.665075  0  2.117339  0  0  -0.603205  0  2.398504  0  0  -0.630111  0  2.382736  0  0  -0.324965  -0.583592  0  2.408202  0
O  O81  1  0.62045269  0.83131199  0.52944380  1  0  -0.6651  0  2.117326  0  0  -0.603236  0  2.398522  0  0  -0.630141  0  2.382754  0  0  -0.324953  -0.583616  0  2.408207  0
O  O82  1  0.46266798  0.62552555  0.38674425  1  0  -0.636271  0  2.033566  0  0  -0.571609  0  2.290402  0  0  -0.600578  0  2.279288  0  0  -0.315964  -0.550635  0  2.296984  0
O  O83  1  0.53733094  0.37447649  0.61325606  1  0  -0.636259  0  2.03362  0  0  -0.571594  0  2.290442  0  0  -0.600567  0  2.279339  0  0  -0.315954  -0.550621  0  2.297024  0
O  O84  1  0.34388463  0.74336654  0.23442197  1  0  -0.645313  0  1.999768  0  0  -0.595302  0  2.237698  0  0  -0.619182  0  2.226549  0  0  -0.322793  -0.577563  0  2.245524  0
O  O85  1  0.65611429  0.25663550  0.76557834  1  0  -0.645333  0  1.999729  0  0  -0.595328  0  2.237659  0  0  -0.61921  0  2.226514  0  0  -0.322805  -0.57759  0  2.245483  0
