# generated using pymatgen
data_CdH13C18N3O4
_symmetry_space_group_name_H-M   'P 1'
_cell_length_a   11.80578898
_cell_length_b   14.37452726
_cell_length_c   17.49071122
_cell_angle_alpha   89.99993290
_cell_angle_beta   90.00000901
_cell_angle_gamma   89.99995374
_symmetry_Int_Tables_number   1
_chemical_formula_structural   CdH13C18N3O4
_chemical_formula_sum   'Cd4 H52 C72 N12 O16'
_cell_volume   2968.21979053
_cell_formula_units_Z   4
loop_
 _symmetry_equiv_pos_site_id
 _symmetry_equiv_pos_as_xyz
  1  'x, y, z'
loop_
 _atom_site_type_symbol
 _atom_site_label
 _atom_site_symmetry_multiplicity
 _atom_site_fract_x
 _atom_site_fract_y
 _atom_site_fract_z
 _atom_site_occupancy
 _atom_site_pbe_bader_charge
 _atom_site_pbe_bader_spin_density
 _atom_site_pbe_cm5_charge
 _atom_site_pbe_ddec_charge
 _atom_site_pbe_ddec_spin_density
 _atom_site_pbe_ddec_sum_bond_order
 _atom_site_pbe_magmom
Cd  Cd0  1  0.99999991  0.36288394  0.01667959  1  1.283334  0  0.771362  0.875487  0  2.238775  0
Cd  Cd1  1  0.00000150  0.63711521  0.98331934  1  1.28326  0  0.771359  0.875478  0  2.238839  0
Cd  Cd2  1  0.00000133  0.86288647  0.48332012  1  1.283273  0  0.771349  0.875447  0  2.238837  0
Cd  Cd3  1  0.99999999  0.13711510  0.51667761  1  1.283264  0  0.771353  0.875413  0  2.238906  0
H  H4  1  0.99999907  0.40102279  0.21269847  1  0.10385  0  0.096325  0.124859  0  1.052646  0
H  H5  1  0.00000064  0.59897775  0.78730160  1  0.103838  0  0.096369  0.124901  0  1.052699  0
H  H6  1  0.99999883  0.90102318  0.28730183  1  0.103856  0  0.096318  0.124866  0  1.052639  0
H  H7  1  0.99999927  0.09897633  0.71269772  1  0.103861  0  0.096322  0.124866  0  1.052655  0
H  H8  1  0.20445206  0.40028709  0.13554433  1  0.101087  0  0.126684  0.101937  0  0.977469  0
H  H9  1  0.20445289  0.59971226  0.86445571  1  0.101094  0  0.126672  0.101935  0  0.977434  0
H  H10  1  0.79554491  0.90028787  0.36445534  1  0.101098  0  0.126658  0.101933  0  0.97736  0
H  H11  1  0.79554702  0.09971178  0.63554476  1  0.10109  0  0.126719  0.102044  0  0.977367  0
H  H12  1  0.79554596  0.59971276  0.86445574  1  0.101098  0  0.126682  0.101958  0  0.977419  0
H  H13  1  0.79554682  0.40028759  0.13554551  1  0.101096  0  0.126698  0.102015  0  0.977338  0
H  H14  1  0.20445227  0.09971128  0.63554473  1  0.101087  0  0.126724  0.10206  0  0.977397  0
H  H15  1  0.20445269  0.90028806  0.36445474  1  0.101083  0  0.126723  0.102038  0  0.977399  0
H  H16  1  0.99999989  0.51481211  0.44196125  1  0.056307  0  0.101139  0.114952  0  1.029857  0
H  H17  1  0.99999907  0.48518810  0.55803773  1  0.055992  0  0.101136  0.114963  0  1.029808  0
H  H18  1  0.99999924  0.01481264  0.05803885  1  0.055995  0  0.101139  0.114974  0  1.029835  0
H  H19  1  0.00000047  0.98518651  0.94196065  1  0.056326  0  0.101137  0.114942  0  1.029859  0
H  H20  1  0.99999977  0.69838976  0.24891069  1  0.075836  0  0.092925  0.100549  0  1.0634  0
H  H21  1  0.99999994  0.30161008  0.75108881  1  0.075819  0  0.092932  0.100539  0  1.063402  0
H  H22  1  0.99999917  0.19839071  0.25108980  1  0.07582  0  0.092925  0.100528  0  1.063416  0
H  H23  1  0.00000054  0.80160983  0.74891027  1  0.075825  0  0.092926  0.100529  0  1.06344  0
H  H24  1  0.41733757  0.34224839  0.89953217  1  0.06385  0  0.111013  0.114324  0  1.006175  0
H  H25  1  0.41733732  0.65775081  0.10046789  1  0.074224  0  0.111027  0.114336  0  1.006162  0
H  H26  1  0.58266211  0.84224969  0.60046749  1  0.06383  0  0.110997  0.114264  0  1.006242  0
H  H27  1  0.58266243  0.15775010  0.39953317  1  0.063864  0  0.111007  0.114293  0  1.00623  0
H  H28  1  0.58266130  0.65774937  0.10046790  1  0.063849  0  0.111042  0.114354  0  1.006191  0
H  H29  1  0.58266239  0.34224903  0.89953333  1  0.074219  0  0.11102  0.114298  0  1.006199  0
H  H30  1  0.41733675  0.15775016  0.39953258  1  0.074238  0  0.111008  0.11431  0  1.006227  0
H  H31  1  0.41733644  0.84224905  0.60046748  1  0.074218  0  0.111024  0.11434  0  1.006204  0
H  H32  1  0.20786491  0.34404051  0.90382015  1  0.129101  0  0.124227  0.099972  0  0.987776  0
H  H33  1  0.20786466  0.65595883  0.09617989  1  0.129093  0  0.124224  0.099972  0  0.987784  0
H  H34  1  0.79213392  0.84404237  0.59617951  1  0.129118  0  0.124235  0.09999  0  0.987731  0
H  H35  1  0.79213424  0.15595936  0.40382060  1  0.129268  0  0.124213  0.099961  0  0.987849  0
H  H36  1  0.79213311  0.65595654  0.09617992  1  0.129115  0  0.124246  0.099996  0  0.98774  0
H  H37  1  0.79213336  0.34404241  0.90382133  1  0.129123  0  0.124223  0.099985  0  0.987832  0
H  H38  1  0.20786494  0.15595886  0.40382056  1  0.129102  0  0.124226  0.099968  0  0.987811  0
H  H39  1  0.20786378  0.84404118  0.59617948  1  0.129093  0  0.124221  0.099961  0  0.987795  0
H  H40  1  0.41434485  0.39996631  0.14280820  1  0.078315  0  0.110684  0.113887  0  1.003059  0
H  H41  1  0.41434484  0.60003290  0.85719243  1  0.078321  0  0.110685  0.113888  0  1.003042  0
H  H42  1  0.58565381  0.89996723  0.35719262  1  0.06952  0  0.110686  0.1139  0  1.003018  0
H  H43  1  0.58565423  0.10003255  0.64280746  1  0.078316  0  0.1107  0.113911  0  1.002999  0
H  H44  1  0.58565401  0.60003354  0.85719244  1  0.069539  0  0.110694  0.113918  0  1.003007  0
H  H45  1  0.58565403  0.39996694  0.14280821  1  0.06952  0  0.110681  0.113897  0  1.003016  0
H  H46  1  0.41434506  0.10003191  0.64280803  1  0.069528  0  0.110696  0.113885  0  1.003015  0
H  H47  1  0.41434548  0.89996660  0.35719147  1  0.078299  0  0.110693  0.113886  0  1.003012  0
H  H48  1  0.99999912  0.34970756  0.42063515  1  0.483273  0  0.28918  0.315746  0  1.003347  0
H  H49  1  0.99999899  0.65029195  0.57936440  1  0.483276  0  0.289175  0.315726  0  1.003406  0
H  H50  1  0.99999968  0.84970756  0.07936577  1  0.483281  0  0.289151  0.315703  0  1.003398  0
H  H51  1  0.99999927  0.15029126  0.92063436  1  0.483309  0  0.289181  0.315744  0  1.003371  0
H  H52  1  0.99999913  0.30028687  0.33079778  1  0.477291  0  0.291972  0.298502  0  0.990452  0
H  H53  1  0.99999982  0.69971194  0.66920235  1  0.477291  0  0.291971  0.298557  0  0.990417  0
H  H54  1  0.99999887  0.80028743  0.16920205  1  0.477293  0  0.291971  0.298524  0  0.99043  0
H  H55  1  0.99999924  0.19971208  0.83079751  1  0.477304  0  0.291978  0.298509  0  0.990455  0
C  C56  1  0.99999982  0.56857270  0.13787239  1  1.544867  0  0.194775  0.564293  0  4.218636  0
C  C57  1  0.00000243  0.43142714  0.86212654  1  1.544823  0  0.194777  0.564351  0  4.218795  0
C  C58  1  0.00000086  0.06857313  0.36212818  1  1.544883  0  0.194778  0.564323  0  4.218581  0
C  C59  1  0.00000046  0.93142844  0.63787127  1  1.544753  0  0.194679  0.564174  0  4.218677  0
C  C60  1  0.00000060  0.55114910  0.22211935  1  -0.123287  0  -0.041429  -0.044577  0  4.089046  0
C  C61  1  0.00000156  0.44885108  0.77788067  1  -0.123499  0  -0.04139  -0.044556  0  4.089184  0
C  C62  1  0.00000001  0.05114931  0.27788061  1  -0.123459  0  -0.041351  -0.044474  0  4.088975  0
C  C63  1  0.00000131  0.94885086  0.72211883  1  -0.123047  0  -0.041388  -0.044517  0  4.089053  0
C  C64  1  0.00000059  0.61434135  0.35038854  1  -0.081313  0  -0.031328  -0.017922  0  4.053362  0
C  C65  1  0.00000073  0.38565813  0.64961091  1  -0.081347  0  -0.031401  -0.018133  0  4.053534  0
C  C66  1  0.99999996  0.11434174  0.14961079  1  -0.081323  0  -0.031372  -0.018027  0  4.053446  0
C  C67  1  0.00000136  0.88565843  0.85038866  1  -0.081301  0  -0.031316  -0.017948  0  4.053374  0
C  C68  1  0.99999991  0.44564539  0.33163815  1  0.44527  0  0.09427  0.316795  0  4.129492  0
C  C69  1  0.00000065  0.55435236  0.66836306  1  0.444525  0  0.094294  0.316947  0  4.129166  0
C  C70  1  0.99999964  0.94564595  0.16836268  1  0.444452  0  0.094203  0.316789  0  4.129486  0
C  C71  1  0.00000092  0.05435389  0.83163797  1  0.444817  0  0.094261  0.316813  0  4.129504  0
C  C72  1  0.00000140  0.69758926  0.40196159  1  1.52636  0  0.187023  0.562581  0  4.222903  0
C  C73  1  0.00000077  0.30241021  0.59803843  1  1.526347  0  0.187032  0.56265  0  4.222865  0
C  C74  1  0.99999991  0.19758904  0.09803880  1  1.526316  0  0.187048  0.562604  0  4.222902  0
C  C75  1  0.00000225  0.80240975  0.90196122  1  1.526335  0  0.187046  0.56258  0  4.222839  0
C  C76  1  0.99999989  0.46044524  0.25158251  1  -0.035967  0  -0.113338  -0.242686  0  3.90985  0
C  C77  1  0.99999991  0.53955427  0.74841933  1  -0.035196  0  -0.113366  -0.242741  0  3.909876  0
C  C78  1  0.99999964  0.96044569  0.24841716  1  -0.035174  0  -0.113312  -0.242701  0  3.909846  0
C  C79  1  0.00000007  0.03955416  0.75158291  1  -0.03553  0  -0.11331  -0.242684  0  3.909839  0
C  C80  1  0.25589801  0.38778513  0.08468935  1  0.556692  0  0.058782  0.107041  0  3.934328  0
C  C81  1  0.25589884  0.61221487  0.91531070  1  0.556226  0  0.058764  0.106987  0  3.934299  0
C  C82  1  0.74409897  0.88778657  0.41531091  1  0.556254  0  0.05878  0.106996  0  3.934256  0
C  C83  1  0.74410107  0.11221520  0.58468976  1  0.556281  0  0.05872  0.106829  0  3.934339  0
C  C84  1  0.74410001  0.61221402  0.91531129  1  0.556268  0  0.058757  0.107001  0  3.9343  0
C  C85  1  0.74410002  0.38778636  0.08468938  1  0.556217  0  0.058705  0.106843  0  3.934344  0
C  C86  1  0.25589820  0.11221397  0.58468973  1  0.55676  0  0.058713  0.106797  0  3.934356  0
C  C87  1  0.25589780  0.88778673  0.41531031  1  0.556766  0  0.058713  0.106853  0  3.934276  0
C  C88  1  0.00000063  0.52443576  0.38017754  1  0.043951  0  -0.098968  -0.209199  0  3.89652  0
C  C89  1  0.00000069  0.47556233  0.61982248  1  0.043962  0  -0.098955  -0.209185  0  3.896411  0
C  C90  1  0.00000000  0.02443481  0.11982187  1  0.043952  0  -0.098957  -0.209226  0  3.896448  0
C  C91  1  0.00000047  0.97556467  0.88017700  1  0.043943  0  -0.099023  -0.209234  0  3.896512  0
C  C92  1  0.99999981  0.62801595  0.27124773  1  0.014902  0  -0.116541  -0.17553  0  4.018864  0
C  C93  1  0.00000160  0.37198180  0.72875178  1  0.015109  0  -0.116518  -0.175417  0  4.018783  0
C  C94  1  0.99999996  0.12801726  0.22875107  1  0.01513  0  -0.11654  -0.175472  0  4.018797  0
C  C95  1  0.00000136  0.87198291  0.77124781  1  0.014688  0  -0.116553  -0.17552  0  4.018862  0
C  C96  1  0.37548607  0.35551767  0.95385186  1  0.030374  0  -0.080785  -0.173361  0  3.950981  0
C  C97  1  0.37548582  0.64448156  0.04614878  1  0.03036  0  -0.080765  -0.173312  0  3.950948  0
C  C98  1  0.62451360  0.85551971  0.54614837  1  0.03034  0  -0.080752  -0.173192  0  3.951132  0
C  C99  1  0.62451563  0.14448144  0.45385115  1  0.030315  0  -0.080741  -0.173217  0  3.951155  0
C  C100  1  0.62451449  0.64448008  0.04614879  1  0.030332  0  -0.080795  -0.173322  0  3.951084  0
C  C101  1  0.62451474  0.35551967  0.95385187  1  0.030475  0  -0.080767  -0.173241  0  3.951096  0
C  C102  1  0.37548357  0.14448083  0.45385113  1  0.030352  0  -0.080767  -0.173314  0  3.951054  0
C  C103  1  0.37548577  0.85551910  0.54614893  1  0.030367  0  -0.080805  -0.173373  0  3.950995  0
C  C104  1  0.25789375  0.35670662  0.95529604  1  0.416581  0  0.055955  0.103257  0  3.944134  0
C  C105  1  0.25789351  0.64329339  0.04470458  1  0.416565  0  0.055944  0.103235  0  3.944173  0
C  C106  1  0.74210422  0.85670858  0.54470418  1  0.416499  0  0.055916  0.10318  0  3.944188  0
C  C107  1  0.74210371  0.14329319  0.45529535  1  0.416281  0  0.055939  0.103208  0  3.944434  0
C  C108  1  0.74210426  0.64328975  0.04470460  1  0.416466  0  0.055908  0.103199  0  3.944242  0
C  C109  1  0.74210366  0.35670924  0.95529493  1  0.416336  0  0.055923  0.103189  0  3.944335  0
C  C110  1  0.25789465  0.14329265  0.45529590  1  0.41646  0  0.055912  0.10323  0  3.944289  0
C  C111  1  0.25789431  0.85670805  0.54470472  1  0.416489  0  0.055953  0.103278  0  3.944169  0
C  C112  1  0.43721160  0.37124405  0.02126999  1  -0.132953  0  0.011741  0.100325  0  3.981198  0
C  C113  1  0.43721074  0.62875514  0.97873065  1  0.019756  0  0.011731  0.100253  0  3.981234  0
C  C114  1  0.56278794  0.87124621  0.47873086  1  -0.132934  0  0.011717  0.10018  0  3.98141  0
C  C115  1  0.56278915  0.12875498  0.52126922  1  -0.130445  0  0.011701  0.100163  0  3.981256  0
C  C116  1  0.56278811  0.62875440  0.97873008  1  -0.133069  0  0.011726  0.100231  0  3.981249  0
C  C117  1  0.56278897  0.37124540  0.02127000  1  0.019738  0  0.011722  0.100195  0  3.981272  0
C  C118  1  0.43721093  0.12875433  0.52126922  1  0.022255  0  0.011732  0.100235  0  3.981176  0
C  C119  1  0.43721141  0.87124486  0.47873028  1  0.019853  0  0.011731  0.100252  0  3.981319  0
C  C120  1  0.37368344  0.38737951  0.08790935  1  -0.013264  0  -0.079884  -0.173406  0  3.943539  0
C  C121  1  0.37368343  0.61261972  0.91209071  1  -0.01341  0  -0.079889  -0.173354  0  3.943502  0
C  C122  1  0.62631438  0.88738103  0.41209148  1  -0.013445  0  -0.079889  -0.173363  0  3.943514  0
C  C123  1  0.62631817  0.11261873  0.58790803  1  -0.015799  0  -0.079893  -0.173322  0  3.943609  0
C  C124  1  0.62631712  0.61261964  0.91209187  1  -0.013289  0  -0.079896  -0.173383  0  3.943587  0
C  C125  1  0.62631713  0.38738151  0.08790879  1  -0.013264  0  -0.079882  -0.173322  0  3.943605  0
C  C126  1  0.37368364  0.11261812  0.58790802  1  -0.015925  0  -0.079898  -0.1733  0  3.943522  0
C  C127  1  0.37368408  0.88738042  0.41209204  1  -0.01342  0  -0.079888  -0.173303  0  3.943476  0
N  N128  1  0.19876502  0.37291097  0.01945359  1  -1.198998  0  -0.315998  -0.214772  0  3.48106  0
N  N129  1  0.19876501  0.62708908  0.98054703  1  -1.198596  0  -0.315964  -0.214731  0  3.481048  0
N  N130  1  0.80123367  0.87291297  0.48054669  1  -1.19848  0  -0.315937  -0.214724  0  3.481068  0
N  N131  1  0.80123489  0.12708876  0.51945170  1  -1.19837  0  -0.31596  -0.214685  0  3.481005  0
N  N132  1  0.80123639  0.62708679  0.98054878  1  -1.198528  0  -0.315964  -0.214789  0  3.480983  0
N  N133  1  0.80123555  0.37291285  0.01945247  1  -1.198389  0  -0.315913  -0.214692  0  3.480986  0
N  N134  1  0.19876520  0.12708827  0.51945281  1  -1.198875  0  -0.315929  -0.214653  0  3.481027  0
N  N135  1  0.19876483  0.87291247  0.48054780  1  -1.198982  0  -0.315954  -0.214729  0  3.481047  0
N  N136  1  0.00000071  0.35879624  0.36284785  1  -1.29706  0  -0.603138  -0.632084  0  3.372439  0
N  N137  1  0.00000145  0.64120394  0.63715103  1  -1.297  0  -0.603192  -0.632279  0  3.372456  0
N  N138  1  0.00000044  0.85879684  0.13715067  1  -1.29704  0  -0.603093  -0.632075  0  3.372434  0
N  N139  1  0.00000088  0.14120333  0.86284821  1  -1.297065  0  -0.603136  -0.632103  0  3.37245  0
O  O140  1  0.00000061  0.50156982  0.09020249  1  -1.225912  0  -0.345054  -0.598577  0  2.348739  0
O  O141  1  0.00000240  0.49842966  0.90979581  1  -1.225449  0  -0.345108  -0.598664  0  2.348889  0
O  O142  1  0.00000089  0.00156915  0.40979751  1  -1.225938  0  -0.345078  -0.598601  0  2.348732  0
O  O143  1  0.00000043  0.99843381  0.59020308  1  -1.225472  0  -0.345049  -0.598546  0  2.348635  0
O  O144  1  0.00000054  0.65355880  0.11503160  1  -1.160546  0  -0.330206  -0.559546  0  2.253321  0
O  O145  1  0.00000078  0.34644276  0.88496899  1  -1.160516  0  -0.330182  -0.559545  0  2.253356  0
O  O146  1  0.99999997  0.15355817  0.38496883  1  -1.160567  0  -0.33021  -0.559575  0  2.253367  0
O  O147  1  0.00000050  0.84644479  0.61502890  1  -1.160471  0  -0.330129  -0.559457  0  2.253444  0
O  O148  1  0.00000135  0.77841490  0.37041910  1  -1.165885  0  -0.345969  -0.576424  0  2.225354  0
O  O149  1  0.00000081  0.22158527  0.62958092  1  -1.165892  0  -0.34593  -0.57637  0  2.225222  0
O  O150  1  0.99999997  0.27841569  0.12957956  1  -1.165851  0  -0.345989  -0.576385  0  2.2253  0
O  O151  1  0.00000144  0.72158346  0.87042052  1  -1.165894  0  -0.345991  -0.576334  0  2.225207  0
O  O152  1  0.00000056  0.68743236  0.47420909  1  -1.18095  0  -0.337805  -0.575558  0  2.185956  0
O  O153  1  0.00000075  0.31256712  0.52579150  1  -1.180926  0  -0.337838  -0.575612  0  2.186029  0
O  O154  1  1.00000000  0.18743190  0.02579022  1  -1.180972  0  -0.337824  -0.575616  0  2.185911  0
O  O155  1  0.00000141  0.81256655  0.97420871  1  -1.180928  0  -0.337812  -0.575617  0  2.186038  0
