# generated using pymatgen
data_ZnH8C17N2O3F4
_symmetry_space_group_name_H-M   'P 1'
_cell_length_a   6.34888742
_cell_length_b   9.01137525
_cell_length_c   26.51055327
_cell_angle_alpha   89.99990631
_cell_angle_beta   89.99978518
_cell_angle_gamma   89.99978109
_symmetry_Int_Tables_number   1
_chemical_formula_structural   ZnH8C17N2O3F4
_chemical_formula_sum   'Zn4 H32 C68 N8 O12 F16'
_cell_volume   1516.72725950
_cell_formula_units_Z   4
loop_
 _symmetry_equiv_pos_site_id
 _symmetry_equiv_pos_as_xyz
  1  'x, y, z'
loop_
 _atom_site_type_symbol
 _atom_site_label
 _atom_site_symmetry_multiplicity
 _atom_site_fract_x
 _atom_site_fract_y
 _atom_site_fract_z
 _atom_site_occupancy
 _atom_site_pbe_bader_charge
 _atom_site_pbe_bader_spin_density
 _atom_site_pbe_cm5_charge
 _atom_site_pbe_ddec_charge
 _atom_site_pbe_ddec_spin_density
 _atom_site_pbe_ddec_sum_bond_order
 _atom_site_pbe_magmom
Zn  Zn0  1  0.00000079  0.00000273  0.71195383  1  1.311571  0  0.696264  0.912738  0  2.223476  0
Zn  Zn1  1  0.49999805  0.00000409  0.78804670  1  1.311658  0  0.696294  0.912759  0  2.223436  0
Zn  Zn2  1  0.99999705  0.99999516  0.28804569  1  1.311564  0  0.696307  0.912715  0  2.223677  0
Zn  Zn3  1  0.50000137  0.99999491  0.21195320  1  1.31167  0  0.696285  0.912749  0  2.223427  0
H  H4  1  0.73581934  0.86616495  0.63049626  1  0.121982  0  0.117597  0.096205  0  1.008892  0
H  H5  1  0.23581533  0.13383843  0.86950453  1  0.122004  0  0.117595  0.096212  0  1.008856  0
H  H6  1  0.76418624  0.86616545  0.86950371  1  0.121988  0  0.117585  0.096171  0  1.008926  0
H  H7  1  0.26417806  0.13383453  0.63049630  1  0.122015  0  0.117591  0.096168  0  1.008935  0
H  H8  1  0.26418480  0.13383626  0.36950175  1  0.121972  0  0.117568  0.096149  0  1.008853  0
H  H9  1  0.76417778  0.86616168  0.13049612  1  0.121982  0  0.117592  0.096206  0  1.008964  0
H  H10  1  0.23581947  0.13383466  0.13049732  1  0.12198  0  0.117595  0.096187  0  1.008857  0
H  H11  1  0.73581821  0.86615670  0.36950360  1  0.121946  0  0.117613  0.096257  0  1.008827  0
H  H12  1  0.71983932  0.86225681  0.53666684  1  0.142187  0  0.106203  0.108893  0  1.079118  0
H  H13  1  0.21983384  0.13773996  0.96333509  1  0.134349  0  0.106194  0.108905  0  1.079096  0
H  H14  1  0.78016471  0.86226125  0.96333388  1  0.142166  0  0.106202  0.108915  0  1.079091  0
H  H15  1  0.28016425  0.13774091  0.53666611  1  0.134402  0  0.106208  0.108926  0  1.079058  0
H  H16  1  0.28016167  0.13774219  0.46333268  1  0.142208  0  0.106214  0.108921  0  1.079063  0
H  H17  1  0.78016242  0.86225682  0.03666594  1  0.134366  0  0.106196  0.108921  0  1.079099  0
H  H18  1  0.21983786  0.13774219  0.03666639  1  0.142218  0  0.106201  0.108935  0  1.079031  0
H  H19  1  0.71984304  0.86225365  0.46333416  1  0.134384  0  0.106201  0.108895  0  1.07909  0
H  H20  1  0.55847530  0.27849142  0.57818149  1  0.091807  0  0.105506  0.074225  0  1.014571  0
H  H21  1  0.05847518  0.72151022  0.92181795  1  0.091813  0  0.105509  0.074218  0  1.01449  0
H  H22  1  0.94152401  0.27848453  0.92181881  1  0.091288  0  0.105534  0.074391  0  1.014469  0
H  H23  1  0.44152448  0.72151386  0.57818180  1  0.091798  0  0.105503  0.074304  0  1.014368  0
H  H24  1  0.44152726  0.72151423  0.42181765  1  0.091773  0  0.105484  0.07415  0  1.014567  0
H  H25  1  0.94152581  0.27848656  0.07818194  1  0.091276  0  0.105526  0.074361  0  1.014318  0
H  H26  1  0.05847225  0.72151114  0.07818260  1  0.091794  0  0.105502  0.074176  0  1.01449  0
H  H27  1  0.55847809  0.27849402  0.42181735  1  0.091812  0  0.105521  0.074232  0  1.014488  0
H  H28  1  0.87336309  0.43493881  0.58180665  1  0.087826  0  0.100221  0.106829  0  1.045943  0
H  H29  1  0.37336387  0.56506421  0.91819326  1  0.087804  0  0.100262  0.106947  0  1.046022  0
H  H30  1  0.62664010  0.43493389  0.91819280  1  0.088376  0  0.10022  0.106865  0  1.045791  0
H  H31  1  0.12663663  0.56506646  0.58180696  1  0.088354  0  0.100233  0.106916  0  1.045815  0
H  H32  1  0.12663632  0.56506907  0.41819325  1  0.088436  0  0.100239  0.106858  0  1.045938  0
H  H33  1  0.62663554  0.43493479  0.08180815  1  0.088333  0  0.100236  0.106887  0  1.045722  0
H  H34  1  0.37336247  0.56506288  0.08180709  1  0.087868  0  0.100233  0.106885  0  1.045917  0
H  H35  1  0.87337223  0.43493920  0.41819294  1  0.087995  0  0.100244  0.106863  0  1.045959  0
C  C36  1  0.74999132  0.74124920  0.75000342  1  1.643514  0  0.213351  0.627498  0  4.174231  0
C  C37  1  0.25000108  0.25875970  0.75000114  1  1.644172  0  0.213356  0.627496  0  4.174483  0
C  C38  1  0.25000022  0.25875424  0.24999950  1  1.644207  0  0.21342  0.627623  0  4.174445  0
C  C39  1  0.75000306  0.74123597  0.24999952  1  1.644165  0  0.213299  0.62749  0  4.174211  0
C  C40  1  0.74999492  0.57515801  0.74999856  1  0.076486  0  -0.048375  -0.271425  0  4.062819  0
C  C41  1  0.24999591  0.42484977  0.75000109  1  0.076113  0  -0.048215  -0.271206  0  4.062601  0
C  C42  1  0.25000135  0.42484654  0.24999983  1  0.076019  0  -0.048387  -0.271421  0  4.062789  0
C  C43  1  0.75000351  0.57514478  0.24999956  1  0.075876  0  -0.048164  -0.271179  0  4.06264  0
C  C44  1  0.75447590  0.49189979  0.79480790  1  0.566538  0  0.085316  0.169901  0  4.103949  0
C  C45  1  0.25447870  0.50811242  0.70519174  1  0.567068  0  0.08532  0.169921  0  4.103662  0
C  C46  1  0.74551439  0.49189003  0.70519077  1  0.567256  0  0.085224  0.169647  0  4.10444  0
C  C47  1  0.24551739  0.50810999  0.79480700  1  0.567035  0  0.085253  0.169662  0  4.104441  0
C  C48  1  0.24552352  0.50811030  0.20519350  1  0.566894  0  0.085306  0.169733  0  4.104376  0
C  C49  1  0.74552071  0.49188436  0.29480703  1  0.567098  0  0.085346  0.169806  0  4.104128  0
C  C50  1  0.25448188  0.50810674  0.29480800  1  0.567272  0  0.08524  0.16967  0  4.104438  0
C  C51  1  0.75448203  0.49188789  0.20519328  1  0.567192  0  0.085273  0.169771  0  4.103813  0
C  C52  1  0.75972290  0.33804203  0.79479550  1  0.491562  0  0.066571  0.057066  0  4.066115  0
C  C53  1  0.25972330  0.66196573  0.70520678  1  0.491547  0  0.066463  0.05697  0  4.066056  0
C  C54  1  0.74026979  0.33804449  0.70520628  1  0.491554  0  0.066577  0.056513  0  4.066739  0
C  C55  1  0.24027826  0.66196110  0.79479527  1  0.491486  0  0.066539  0.056484  0  4.066521  0
C  C56  1  0.24027809  0.66195808  0.20520516  1  0.491616  0  0.066514  0.056458  0  4.066569  0
C  C57  1  0.74027297  0.33803105  0.29479312  1  0.491527  0  0.06645  0.056313  0  4.066472  0
C  C58  1  0.25972332  0.66195895  0.29479588  1  0.491496  0  0.066514  0.056465  0  4.066601  0
C  C59  1  0.75972431  0.33803346  0.20520614  1  0.491504  0  0.066465  0.057009  0  4.065959  0
C  C60  1  0.74999578  0.25455878  0.74999978  1  0.6652  0  0.058514  0.159755  0  4.230988  0
C  C61  1  0.24999977  0.74544679  0.74999987  1  0.665195  0  0.058536  0.159867  0  4.231024  0
C  C62  1  0.25000048  0.74544910  0.25000125  1  0.665301  0  0.058466  0.159604  0  4.231549  0
C  C63  1  0.74999808  0.25454999  0.24999965  1  0.665155  0  0.058579  0.160011  0  4.231159  0
C  C64  1  0.85103954  0.92610798  0.60786483  1  0.48278  0  0.048476  0.09888  0  3.924493  0
C  C65  1  0.35104338  0.07388955  0.89213624  1  0.482838  0  0.048512  0.098854  0  3.924422  0
C  C66  1  0.64895942  0.92611312  0.89213511  1  0.482822  0  0.048503  0.098848  0  3.924528  0
C  C67  1  0.14896136  0.07388939  0.60786425  1  0.482726  0  0.048549  0.098967  0  3.92437  0
C  C68  1  0.14895988  0.07388547  0.39213469  1  0.482792  0  0.048584  0.099017  0  3.92448  0
C  C69  1  0.64896233  0.92610612  0.10786555  1  0.482752  0  0.048507  0.09884  0  3.924463  0
C  C70  1  0.35103685  0.07389032  0.10786479  1  0.482709  0  0.048535  0.09898  0  3.924424  0
C  C71  1  0.85104436  0.92610628  0.39213527  1  0.48286  0  0.048492  0.098808  0  3.924524  0
C  C72  1  0.84503418  0.92394307  0.55553246  1  -0.057372  0  -0.078132  -0.160467  0  3.907177  0
C  C73  1  0.34502932  0.07605669  0.94446861  1  -0.057429  0  -0.078128  -0.160475  0  3.90693  0
C  C74  1  0.65497267  0.92394572  0.94446823  1  -0.057455  0  -0.078146  -0.160492  0  3.907016  0
C  C75  1  0.15496596  0.07605233  0.55553226  1  -0.05746  0  -0.07816  -0.160533  0  3.907205  0
C  C76  1  0.15496839  0.07605371  0.44446630  1  -0.057379  0  -0.078148  -0.16053  0  3.907157  0
C  C77  1  0.65496852  0.92394231  0.05553242  1  -0.057338  0  -0.078112  -0.160453  0  3.906923  0
C  C78  1  0.34503777  0.07605328  0.05553431  1  -0.057352  0  -0.078188  -0.160614  0  3.907205  0
C  C79  1  0.84503503  0.92394112  0.44446802  1  -0.057458  0  -0.078151  -0.160476  0  3.907124  0
C  C80  1  0.00000581  0.99999815  0.52791967  1  -0.056018  0  0.017145  0.112074  0  3.936466  0
C  C81  1  0.50000135  0.00000143  0.97208133  1  0.098341  0  0.017135  0.112094  0  3.936284  0
C  C82  1  0.00000309  0.99999606  0.47207889  1  0.09836  0  0.017045  0.111946  0  3.936345  0
C  C83  1  0.49999605  0.00000148  0.02791733  1  -0.056071  0  0.017064  0.111996  0  3.936322  0
C  C84  1  0.63268533  0.31462906  0.54312786  1  0.487478  0  0.037252  0.087816  0  4.005548  0
C  C85  1  0.13268644  0.68537349  0.95687340  1  0.487624  0  0.037296  0.087899  0  4.005487  0
C  C86  1  0.86731694  0.31462664  0.95686978  1  0.48791  0  0.037201  0.087788  0  4.005337  0
C  C87  1  0.36730870  0.68537638  0.54312825  1  0.487542  0  0.037232  0.087907  0  4.005336  0
C  C88  1  0.36730936  0.68537659  0.45687166  1  0.487518  0  0.037204  0.087789  0  4.00558  0
C  C89  1  0.86731141  0.31462995  0.04312951  1  0.487894  0  0.037234  0.08792  0  4.005471  0
C  C90  1  0.13269193  0.68536902  0.04312710  1  0.487581  0  0.037208  0.087841  0  4.005609  0
C  C91  1  0.63269072  0.31463149  0.45687240  1  0.487497  0  0.037245  0.08783  0  4.005542  0
C  C92  1  0.81143450  0.40365075  0.54505906  1  -0.037592  0  -0.085804  -0.172198  0  3.941368  0
C  C93  1  0.31143612  0.59635354  0.95493940  1  -0.037573  0  -0.085865  -0.172345  0  3.9415  0
C  C94  1  0.68857044  0.40364660  0.95494155  1  -0.03763  0  -0.085878  -0.172144  0  3.941342  0
C  C95  1  0.18856422  0.59635913  0.54505929  1  -0.037574  0  -0.085824  -0.172194  0  3.941345  0
C  C96  1  0.18856649  0.59636157  0.45494084  1  -0.037581  0  -0.085812  -0.172222  0  3.941525  0
C  C97  1  0.68857275  0.40364434  0.04505786  1  -0.037695  0  -0.085847  -0.172149  0  3.941383  0
C  C98  1  0.31143056  0.59635351  0.04505986  1  -0.03763  0  -0.085829  -0.172284  0  3.941527  0
C  C99  1  0.81143677  0.40364985  0.45494023  1  -0.037898  0  -0.085869  -0.172304  0  3.941479  0
C  C100  1  0.90561973  0.45167115  0.49999959  1  -0.008724  0  0.009127  0.106362  0  3.95382  0
C  C101  1  0.40562234  0.54833307  0.00000042  1  -0.044291  0  0.009163  0.106375  0  3.953632  0
C  C102  1  0.59438638  0.45166611  0.00000036  1  -0.008647  0  0.009208  0.106367  0  3.953823  0
C  C103  1  0.09437654  0.54833451  0.49999993  1  -0.044365  0  0.009171  0.106427  0  3.953736  0
N  N104  1  0.99999752  0.99999988  0.63393511  1  -1.228605  0  -0.327289  -0.244577  0  3.580833  0
N  N105  1  0.50000059  0.00000280  0.86606695  1  -1.228699  0  -0.327207  -0.244415  0  3.580831  0
N  N106  1  0.00000234  0.99999632  0.36606488  1  -1.228728  0  -0.327266  -0.244707  0  3.581213  0
N  N107  1  0.49999882  0.99999953  0.13393484  1  -1.228632  0  -0.327223  -0.244447  0  3.580685  0
N  N108  1  0.54202738  0.26973936  0.49999981  1  -1.193849  0  -0.320947  -0.269185  0  3.368165  0
N  N109  1  0.04202743  0.73026473  0.00000015  1  -1.193922  0  -0.320939  -0.269188  0  3.368113  0
N  N110  1  0.95797814  0.26973223  0.00000062  1  -1.193778  0  -0.320922  -0.26916  0  3.367877  0
N  N111  1  0.45797361  0.73026962  0.49999972  1  -1.193867  0  -0.3209  -0.269088  0  3.367831  0
O  O112  1  0.83109226  0.80580869  0.71203735  1  -1.17613  0  -0.314526  -0.559148  0  2.38833  0
O  O113  1  0.33109076  0.19419776  0.78795959  1  -1.176857  0  -0.314542  -0.559194  0  2.389048  0
O  O114  1  0.66891050  0.80580318  0.78795738  1  -1.176909  0  -0.314483  -0.559175  0  2.389213  0
O  O115  1  0.16890860  0.19419817  0.71204046  1  -1.176762  0  -0.314546  -0.55923  0  2.388973  0
O  O116  1  0.16890086  0.19419585  0.28795953  1  -1.176824  0  -0.314527  -0.559261  0  2.389085  0
O  O117  1  0.66891338  0.80579679  0.21204031  1  -1.176759  0  -0.314551  -0.559277  0  2.388939  0
O  O118  1  0.33108892  0.19419582  0.21204064  1  -1.176854  0  -0.314569  -0.559239  0  2.388958  0
O  O119  1  0.83108924  0.80579861  0.28795982  1  -1.176756  0  -0.314521  -0.559238  0  2.388972  0
O  O120  1  0.74999776  0.10677889  0.75000171  1  -1.17201  0  -0.341156  -0.543608  0  2.463502  0
O  O121  1  0.24999937  0.89322778  0.75000134  1  -1.17218  0  -0.341035  -0.543556  0  2.463574  0
O  O122  1  0.25000008  0.89322233  0.25000121  1  -1.172121  0  -0.341052  -0.543619  0  2.464145  0
O  O123  1  0.74999690  0.10676900  0.24999969  1  -1.172246  0  -0.341053  -0.543618  0  2.463539  0
F  F124  1  0.76552926  0.56027214  0.84039652  1  -0.618144  0  -0.083922  -0.104636  0  1.412153  0
F  F125  1  0.26553157  0.43974004  0.65960161  1  -0.618056  0  -0.083972  -0.104713  0  1.412007  0
F  F126  1  0.73446695  0.56026596  0.65959947  1  -0.618168  0  -0.083921  -0.104717  0  1.412104  0
F  F127  1  0.23446804  0.43973521  0.84039906  1  -0.61809  0  -0.083971  -0.104796  0  1.412043  0
F  F128  1  0.23446858  0.43973795  0.15960149  1  -0.618057  0  -0.083969  -0.104769  0  1.411967  0
F  F129  1  0.73446784  0.56025785  0.34039867  1  -0.618012  0  -0.084  -0.104824  0  1.412016  0
F  F130  1  0.26553089  0.43973193  0.34039854  1  -0.618128  0  -0.083867  -0.10469  0  1.412234  0
F  F131  1  0.76553453  0.56025935  0.15960122  1  -0.618036  0  -0.083976  -0.104685  0  1.411928  0
F  F132  1  0.77350627  0.26433617  0.83934079  1  -0.627616  0  -0.083087  -0.098759  0  1.43705  0
F  F133  1  0.27351169  0.73567377  0.66065959  1  -0.627639  0  -0.083081  -0.09879  0  1.436854  0
F  F134  1  0.72648367  0.26433112  0.66065952  1  -0.627689  0  -0.08307  -0.097018  0  1.435319  0
F  F135  1  0.22648947  0.73567118  0.83934091  1  -0.627655  0  -0.08308  -0.097038  0  1.435368  0
F  F136  1  0.22648842  0.73567170  0.16065986  1  -0.627729  0  -0.083059  -0.097006  0  1.435367  0
F  F137  1  0.72648458  0.26431857  0.33934106  1  -0.627669  0  -0.083078  -0.09703  0  1.435161  0
F  F138  1  0.27351102  0.73566899  0.33934076  1  -0.627654  0  -0.083049  -0.096996  0  1.435485  0
F  F139  1  0.77351152  0.26432227  0.16065899  1  -0.627669  0  -0.083071  -0.098788  0  1.436759  0
