# generated using pymatgen
data_GaH5C8O5
_symmetry_space_group_name_H-M   'P 1'
_cell_length_a   6.75993263
_cell_length_b   12.74383440
_cell_length_c   19.50431335
_cell_angle_alpha   90.00060756
_cell_angle_beta   97.29513410
_cell_angle_gamma   90.00091261
_symmetry_Int_Tables_number   1
_chemical_formula_structural   GaH5C8O5
_chemical_formula_sum   'Ga8 H40 C64 O40'
_cell_volume   1666.64587823
_cell_formula_units_Z   8
loop_
 _symmetry_equiv_pos_site_id
 _symmetry_equiv_pos_as_xyz
  1  'x, y, z'
loop_
 _atom_site_type_symbol
 _atom_site_label
 _atom_site_symmetry_multiplicity
 _atom_site_fract_x
 _atom_site_fract_y
 _atom_site_fract_z
 _atom_site_occupancy
 _atom_site_pbe_bader_charge
 _atom_site_pbe_bader_spin_density
 _atom_site_pbe_cm5_charge
 _atom_site_pbe_ddec_charge
 _atom_site_pbe_ddec_spin_density
 _atom_site_pbe_ddec_sum_bond_order
 _atom_site_pbe_magmom
Ga  Ga0  1  0.00099149  0.24696186  0.50021999  1  1.961071  0  0.583795  1.441249  0  2.77617  0
Ga  Ga1  1  0.49902039  0.74696491  0.49978252  1  1.961136  0  0.583839  1.441257  0  2.776035  0
Ga  Ga2  1  0.99901875  0.75304521  0.49978140  1  1.961083  0  0.583786  1.441236  0  2.776142  0
Ga  Ga3  1  0.50098681  0.25303901  0.50021722  1  1.961078  0  0.583799  1.441085  0  2.77635  0
Ga  Ga4  1  0.00000219  0.49999644  0.99999886  1  1.964221  0  0.584559  1.448511  0  2.782426  0
Ga  Ga5  1  0.49999834  0.00000049  0.00000142  1  1.96451  0  0.584599  1.448646  0  2.782282  0
Ga  Ga6  1  0.49999925  0.49999757  0.00000018  1  1.963506  0  0.583651  1.446838  0  2.779526  0
Ga  Ga7  1  0.99998913  0.99999942  0.99999947  1  1.963473  0  0.583729  1.446924  0  2.779244  0
H  H8  1  0.07423854  0.06726593  0.21536725  1  0.099579  0  0.104571  0.108178  0  1.020553  0
H  H9  1  0.42577194  0.56725488  0.78464007  1  0.099894  0  0.104575  0.108193  0  1.020391  0
H  H10  1  0.92575663  0.93273643  0.78462892  1  0.099635  0  0.104563  0.108209  0  1.020455  0
H  H11  1  0.57424284  0.43272628  0.21536356  1  0.100095  0  0.104561  0.108171  0  1.020354  0
H  H12  1  0.03347738  0.08215239  0.34115206  1  0.126097  0  0.111547  0.120203  0  0.993662  0
H  H13  1  0.46651271  0.58214046  0.65885404  1  0.126215  0  0.111571  0.120319  0  0.993417  0
H  H14  1  0.96652534  0.91785231  0.65884698  1  0.1261  0  0.111566  0.120213  0  0.993645  0
H  H15  1  0.53347818  0.41784855  0.34114761  1  0.126265  0  0.111588  0.120273  0  0.993535  0
H  H16  1  0.42741137  0.18263354  0.28642903  1  0.11348  0  0.106612  0.11109  0  1.02047  0
H  H17  1  0.07259675  0.68262787  0.71357030  1  0.113429  0  0.106596  0.111082  0  1.020361  0
H  H18  1  0.57258094  0.81736803  0.71357062  1  0.11352  0  0.106609  0.111095  0  1.020541  0
H  H19  1  0.92739109  0.31737370  0.28642917  1  0.113316  0  0.106608  0.111093  0  1.020433  0
H  H20  1  0.46799823  0.16765684  0.16068597  1  0.100676  0  0.111372  0.121734  0  0.990616  0
H  H21  1  0.03202879  0.66765283  0.83931453  1  0.100382  0  0.111344  0.1217  0  0.990709  0
H  H22  1  0.53199697  0.83233767  0.83931123  1  0.100546  0  0.111387  0.121754  0  0.990707  0
H  H23  1  0.96797396  0.33234010  0.16068554  1  0.100338  0  0.111322  0.121602  0  0.990756  0
H  H24  1  0.57284464  0.31670239  0.71438488  1  0.108031  0  0.10511  0.109311  0  1.020682  0
H  H25  1  0.92717657  0.81669908  0.28561687  1  0.10762  0  0.105054  0.109266  0  1.020633  0
H  H26  1  0.42716400  0.68329525  0.28561337  1  0.107526  0  0.105097  0.109289  0  1.020725  0
H  H27  1  0.07281574  0.18330014  0.71438278  1  0.107682  0  0.105075  0.109277  0  1.020687  0
H  H28  1  0.53374982  0.32738134  0.84003782  1  0.071008  0  0.106785  0.110363  0  1.004191  0
H  H29  1  0.96626411  0.82737869  0.15995807  1  0.071871  0  0.106775  0.110321  0  1.004118  0
H  H30  1  0.46625735  0.67260924  0.15996088  1  0.071538  0  0.106749  0.110198  0  1.004255  0
H  H31  1  0.03373994  0.17261189  0.84003641  1  0.071563  0  0.106761  0.110277  0  1.004232  0
H  H32  1  0.93017064  0.43357980  0.78787330  1  0.105396  0  0.105645  0.109176  0  1.022706  0
H  H33  1  0.56986770  0.93357314  0.21212279  1  0.109783  0  0.105621  0.10918  0  1.022751  0
H  H34  1  0.06985009  0.56641628  0.21213005  1  0.105072  0  0.10567  0.109309  0  1.022703  0
H  H35  1  0.43013059  0.06642215  0.78787761  1  0.10974  0  0.105627  0.109129  0  1.022736  0
H  H36  1  0.96946730  0.42334420  0.66232994  1  0.108508  0  0.107371  0.110807  0  1.003875  0
H  H37  1  0.53056186  0.92334394  0.33766879  1  0.10824  0  0.107353  0.110784  0  1.003867  0
H  H38  1  0.03054152  0.57665815  0.33767344  1  0.108446  0  0.107362  0.110736  0  1.003885  0
H  H39  1  0.46942754  0.07666077  0.66233280  1  0.108169  0  0.107367  0.110776  0  1.00397  0
H  H40  1  0.77012925  0.38752264  0.52862324  1  0.605041  0  0.339389  0.4263  0  0.855894  0
H  H41  1  0.72985993  0.88751831  0.47137363  1  0.605037  0  0.339367  0.426264  0  0.855959  0
H  H42  1  0.22986466  0.61248599  0.47137955  1  0.605174  0  0.339302  0.426229  0  0.856057  0
H  H43  1  0.27013658  0.11248718  0.52861798  1  0.605232  0  0.339295  0.426163  0  0.856042  0
H  H44  1  0.25832132  0.64354378  0.01709609  1  0.620718  0  0.341866  0.430101  0  0.850106  0
H  H45  1  0.24169006  0.14353944  0.98290617  1  0.620769  0  0.341868  0.430009  0  0.850316  0
H  H46  1  0.74167868  0.35645387  0.98291053  1  0.620727  0  0.341873  0.430079  0  0.850158  0
H  H47  1  0.75829765  0.85645586  0.01708971  1  0.620759  0  0.34187  0.430037  0  0.850298  0
C  C48  1  0.77345122  0.11699376  0.18087498  1  -0.008882  0  -0.009116  -0.039921  0  3.952237  0
C  C49  1  0.72654867  0.61700595  0.81913474  1  -0.008784  0  -0.009298  -0.040098  0  3.951912  0
C  C50  1  0.22654855  0.88301095  0.81912497  1  -0.008829  0  -0.009081  -0.03968  0  3.95218  0
C  C51  1  0.27344527  0.38299641  0.18086908  1  -0.008966  0  -0.009261  -0.040076  0  3.952135  0
C  C52  1  0.93332966  0.09230680  0.23144788  1  0.001559  0  -0.078725  -0.088435  0  3.965451  0
C  C53  1  0.56668871  0.59230980  0.76856035  1  0.000925  0  -0.078762  -0.088546  0  3.965657  0
C  C54  1  0.06667763  0.90770104  0.76855442  1  0.001397  0  -0.078794  -0.088605  0  3.965729  0
C  C55  1  0.43330518  0.40768706  0.23144193  1  0.001188  0  -0.078762  -0.088568  0  3.965569  0
C  C56  1  0.91035488  0.09950840  0.30112840  1  -0.109006  0  -0.076731  -0.087996  0  3.954726  0
C  C57  1  0.58963993  0.59951126  0.69888048  1  -0.108781  0  -0.076577  -0.087991  0  3.954217  0
C  C58  1  0.08964942  0.90049631  0.69887327  1  -0.108844  0  -0.076685  -0.087977  0  3.954675  0
C  C59  1  0.41034807  0.40048717  0.30112362  1  -0.109177  0  -0.076737  -0.088062  0  3.954577  0
C  C60  1  0.72770783  0.13216752  0.32090775  1  -0.020204  0  -0.011074  -0.041128  0  3.961194  0
C  C61  1  0.77229968  0.63217392  0.67909213  1  -0.020214  0  -0.011188  -0.041137  0  3.960594  0
C  C62  1  0.27230076  0.86784190  0.67908897  1  -0.020151  0  -0.011144  -0.041065  0  3.961137  0
C  C63  1  0.22768670  0.36783942  0.32090831  1  -0.020016  0  -0.011067  -0.040899  0  3.961066  0
C  C64  1  0.56802885  0.15717776  0.27033205  1  -0.058267  0  -0.079184  -0.092446  0  3.966116  0
C  C65  1  0.93196775  0.65717923  0.72967270  1  -0.058434  0  -0.079286  -0.092621  0  3.966415  0
C  C66  1  0.43197093  0.84282537  0.72966841  1  -0.058563  0  -0.079207  -0.092615  0  3.966345  0
C  C67  1  0.06802170  0.34282626  0.27033043  1  -0.058465  0  -0.079294  -0.092771  0  3.966461  0
C  C68  1  0.59098223  0.14989613  0.20067887  1  -0.034237  0  -0.07574  -0.085497  0  3.946872  0
C  C69  1  0.90904079  0.64989696  0.79932175  1  -0.033872  0  -0.075562  -0.085294  0  3.946677  0
C  C70  1  0.40902795  0.85010779  0.79932098  1  -0.033933  0  -0.075717  -0.085506  0  3.946858  0
C  C71  1  0.09095449  0.35010540  0.20067751  1  -0.033883  0  -0.075511  -0.085057  0  3.9465  0
C  C72  1  0.78950824  0.09890605  0.10610181  1  1.55775  0  0.251172  0.614543  0  4.131314  0
C  C73  1  0.71050290  0.59890517  0.89390618  1  1.557238  0  0.251311  0.614808  0  4.130816  0
C  C74  1  0.21049460  0.90109630  0.89390083  1  1.557365  0  0.251181  0.614411  0  4.131314  0
C  C75  1  0.28948497  0.40109090  0.10609432  1  1.557411  0  0.251194  0.61466  0  4.130747  0
C  C76  1  0.71098148  0.15012104  0.39557470  1  1.565379  0  0.250109  0.610785  0  4.124494  0
C  C77  1  0.78901021  0.65012874  0.60442417  1  1.565578  0  0.249957  0.610582  0  4.124446  0
C  C78  1  0.28903018  0.84987896  0.60442470  1  1.565371  0  0.250088  0.610802  0  4.124668  0
C  C79  1  0.21097917  0.34987597  0.39557691  1  1.565648  0  0.249963  0.610451  0  4.124574  0
C  C80  1  0.27336176  0.36954291  0.68083188  1  -0.024297  0  -0.008567  -0.035586  0  3.9433  0
C  C81  1  0.22666012  0.86954790  0.31916832  1  -0.024205  0  -0.008468  -0.03548  0  3.943291  0
C  C82  1  0.72664699  0.63045238  0.31916945  1  -0.024122  0  -0.008539  -0.035609  0  3.943337  0
C  C83  1  0.77333532  0.13045446  0.68083556  1  -0.024268  0  -0.008363  -0.035211  0  3.942884  0
C  C84  1  0.43284028  0.34229550  0.73090374  1  -0.046597  0  -0.078278  -0.090411  0  3.960039  0
C  C85  1  0.06718204  0.84229758  0.26909269  1  -0.046105  0  -0.078204  -0.090444  0  3.95979  0
C  C86  1  0.56716237  0.65769901  0.26909325  1  -0.045922  0  -0.078263  -0.090441  0  3.959891  0
C  C87  1  0.93280869  0.15770477  0.73090433  1  -0.046234  0  -0.07823  -0.09045  0  3.960019  0
C  C88  1  0.41053381  0.34726935  0.80070581  1  -0.056001  0  -0.076309  -0.084405  0  3.956223  0
C  C89  1  0.08948564  0.84727521  0.19928900  1  -0.056792  0  -0.076353  -0.084342  0  3.95591  0
C  C90  1  0.58948074  0.65271809  0.19929114  1  -0.056491  0  -0.076271  -0.084185  0  3.956074  0
C  C91  1  0.91051850  0.15272400  0.80070804  1  -0.056257  0  -0.076377  -0.084397  0  3.955912  0
C  C92  1  0.22914684  0.38001088  0.82140410  1  -0.025044  0  -0.010516  -0.042113  0  3.956486  0
C  C93  1  0.27086619  0.88001398  0.17858865  1  -0.025201  0  -0.01048  -0.04206  0  3.956337  0
C  C94  1  0.77085276  0.61997735  0.17859123  1  -0.024694  0  -0.010527  -0.041956  0  3.956275  0
C  C95  1  0.72912900  0.11998759  0.82140804  1  -0.025255  0  -0.010505  -0.041964  0  3.956175  0
C  C96  1  0.06990718  0.40763102  0.77134896  1  -0.048333  0  -0.077843  -0.08713  0  3.964433  0
C  C97  1  0.43011423  0.90763467  0.22864380  1  -0.052253  0  -0.077926  -0.087302  0  3.964182  0
C  C98  1  0.93010293  0.59236035  0.22864884  1  -0.048472  0  -0.078005  -0.087646  0  3.964155  0
C  C99  1  0.56988552  0.09236455  0.77135563  1  -0.052283  0  -0.07791  -0.087183  0  3.964071  0
C  C100  1  0.09234353  0.40271524  0.70159976  1  0.017833  0  -0.077184  -0.085873  0  3.956805  0
C  C101  1  0.40767636  0.90271589  0.29839701  1  0.017533  0  -0.077198  -0.085898  0  3.956659  0
C  C102  1  0.90765327  0.59728162  0.29840058  1  0.017634  0  -0.077141  -0.08563  0  3.95653  0
C  C103  1  0.59230698  0.09728725  0.70160177  1  0.017612  0  -0.077267  -0.086072  0  3.956651  0
C  C104  1  0.28846737  0.35356367  0.60571562  1  1.545918  0  0.250762  0.617472  0  4.122713  0
C  C105  1  0.21156874  0.85356580  0.39428093  1  1.546763  0  0.250725  0.61763  0  4.12235  0
C  C106  1  0.71155168  0.64643633  0.39428202  1  1.546486  0  0.250663  0.617455  0  4.122693  0
C  C107  1  0.78842047  0.14643576  0.60571500  1  1.546732  0  0.250893  0.617615  0  4.121956  0
C  C108  1  0.21242972  0.39548713  0.89634162  1  1.565332  0  0.252738  0.620799  0  4.113192  0
C  C109  1  0.28757209  0.89549388  0.10365591  1  1.565277  0  0.252803  0.620815  0  4.113361  0
C  C110  1  0.78758200  0.60450346  0.10365932  1  1.565686  0  0.252788  0.620857  0  4.113368  0
C  C111  1  0.71242478  0.10450141  0.89634648  1  1.565464  0  0.252739  0.620678  0  4.1133  0
O  O112  1  0.75347768  0.32495718  0.49992755  1  -1.193088  0  -0.468862  -0.863133  0  2.168252  0
O  O113  1  0.74653054  0.82496287  0.50007784  1  -1.193117  0  -0.468832  -0.863112  0  2.168246  0
O  O114  1  0.24652376  0.67504831  0.50007759  1  -1.193201  0  -0.46878  -0.863107  0  2.168377  0
O  O115  1  0.25346907  0.17504576  0.49991749  1  -1.193308  0  -0.468775  -0.862993  0  2.168443  0
O  O116  1  0.24894547  0.57411642  0.99635153  1  -1.211706  0  -0.469104  -0.868972  0  2.183763  0
O  O117  1  0.25106224  0.07411612  0.00365522  1  -1.21181  0  -0.469184  -0.868941  0  2.183826  0
O  O118  1  0.75105435  0.42588437  0.00364996  1  -1.211817  0  -0.469132  -0.869006  0  2.183938  0
O  O119  1  0.74893458  0.92588309  0.99634564  1  -1.212002  0  -0.469143  -0.868968  0  2.184001  0
O  O120  1  0.95809599  0.06899490  0.09034000  1  -1.159174  0  -0.255629  -0.547251  0  2.331344  0
O  O121  1  0.54190359  0.56899916  0.90966424  1  -1.158733  0  -0.25559  -0.547247  0  2.33115  0
O  O122  1  0.04189348  0.93100589  0.90966364  1  -1.158837  0  -0.255624  -0.547247  0  2.331191  0
O  O123  1  0.45809323  0.43100005  0.09033662  1  -1.158868  0  -0.255548  -0.547167  0  2.330945  0
O  O124  1  0.63163105  0.11096971  0.06335791  1  -1.191466  0  -0.273061  -0.579565  0  2.344487  0
O  O125  1  0.86837752  0.61098181  0.93665007  1  -1.19134  0  -0.273096  -0.579556  0  2.344145  0
O  O126  1  0.36835842  0.88902322  0.93664573  1  -1.19129  0  -0.273037  -0.579435  0  2.344438  0
O  O127  1  0.13161041  0.38901426  0.06335197  1  -1.191221  0  -0.273064  -0.579589  0  2.344263  0
O  O128  1  0.86679724  0.13532664  0.43896277  1  -1.182873  0  -0.271333  -0.572235  0  2.330132  0
O  O129  1  0.63321339  0.63533158  0.56103828  1  -1.182837  0  -0.271198  -0.57205  0  2.330369  0
O  O130  1  0.13322175  0.86468513  0.56103333  1  -1.182812  0  -0.271307  -0.572255  0  2.330011  0
O  O131  1  0.36678341  0.36467470  0.43896207  1  -1.182803  0  -0.271203  -0.572  0  2.330262  0
O  O132  1  0.54355122  0.18219559  0.41104128  1  -1.156218  0  -0.249212  -0.532284  0  2.324245  0
O  O133  1  0.95646410  0.68221070  0.58896388  1  -1.156307  0  -0.249238  -0.532353  0  2.323943  0
O  O134  1  0.45645609  0.81780362  0.58896153  1  -1.156411  0  -0.249179  -0.532273  0  2.324402  0
O  O135  1  0.04351333  0.31780891  0.41103620  1  -1.156473  0  -0.249159  -0.532203  0  2.324018  0
O  O136  1  0.45924270  0.32850663  0.58912189  1  -1.167115  0  -0.259975  -0.560846  0  2.316656  0
O  O137  1  0.04078206  0.82850213  0.41087249  1  -1.167359  0  -0.259932  -0.560917  0  2.316063  0
O  O138  1  0.54077636  0.67150200  0.41087627  1  -1.167342  0  -0.259891  -0.560846  0  2.316469  0
O  O139  1  0.95922651  0.17149237  0.58912371  1  -1.167336  0  -0.260045  -0.561051  0  2.315906  0
O  O140  1  0.12817531  0.36185609  0.56368945  1  -1.185192  0  -0.27349  -0.586144  0  2.336701  0
O  O141  1  0.37185054  0.86186179  0.43630419  1  -1.185683  0  -0.273476  -0.586203  0  2.336904  0
O  O142  1  0.87183772  0.63814547  0.43630642  1  -1.185448  0  -0.273461  -0.586117  0  2.336753  0
O  O143  1  0.62813726  0.13813977  0.56369425  1  -1.185608  0  -0.273553  -0.586155  0  2.336963  0
O  O144  1  0.37039208  0.38406063  0.93935453  1  -1.197639  0  -0.275235  -0.586158  0  2.321185  0
O  O145  1  0.12960492  0.88406069  0.06064427  1  -1.197603  0  -0.275269  -0.586167  0  2.32114  0
O  O146  1  0.62962107  0.61593623  0.06064493  1  -1.1979  0  -0.275262  -0.586169  0  2.32117  0
O  O147  1  0.87040078  0.11593774  0.93935489  1  -1.197608  0  -0.27523  -0.586101  0  2.321084  0
O  O148  1  0.04217838  0.42229559  0.91244971  1  -1.162056  0  -0.257798  -0.5522  0  2.311925  0
O  O149  1  0.45782275  0.92229329  0.08754543  1  -1.162078  0  -0.257826  -0.552208  0  2.311935  0
O  O150  1  0.95782283  0.57769891  0.08754876  1  -1.162155  0  -0.25776  -0.552203  0  2.311977  0
O  O151  1  0.54216813  0.07770671  0.91245622  1  -1.162207  0  -0.257768  -0.552199  0  2.312022  0
