# generated using pymatgen
data_FeH6PtC12(N4F)2
_symmetry_space_group_name_H-M   'P 1'
_cell_length_a   7.00719562
_cell_length_b   7.16652212
_cell_length_c   15.33227893
_cell_angle_alpha   90.00047991
_cell_angle_beta   90.03921753
_cell_angle_gamma   90.00002578
_symmetry_Int_Tables_number   1
_chemical_formula_structural   FeH6PtC12(N4F)2
_chemical_formula_sum   'Fe2 H12 Pt2 C24 N16 F4'
_cell_volume   769.94428007
_cell_formula_units_Z   2
loop_
 _symmetry_equiv_pos_site_id
 _symmetry_equiv_pos_as_xyz
  1  'x, y, z'
loop_
 _atom_site_type_symbol
 _atom_site_label
 _atom_site_symmetry_multiplicity
 _atom_site_fract_x
 _atom_site_fract_y
 _atom_site_fract_z
 _atom_site_occupancy
 _atom_site_hle17_bader_spin_density
 _atom_site_hle17_ddec_charge
 _atom_site_hle17_ddec_spin_density
 _atom_site_hle17_ddec_sum_bond_order
 _atom_site_hle17_magmom
 _atom_site_hse06_10hf_bader_spin_density
 _atom_site_hse06_10hf_ddec_charge
 _atom_site_hse06_10hf_ddec_spin_density
 _atom_site_hse06_10hf_ddec_sum_bond_order
 _atom_site_hse06_10hf_magmom
 _atom_site_hse06_bader_spin_density
 _atom_site_hse06_ddec_charge
 _atom_site_hse06_ddec_spin_density
 _atom_site_hse06_ddec_sum_bond_order
 _atom_site_hse06_magmom
 _atom_site_pbe_bader_spin_density
 _atom_site_pbe_cm5_charge
 _atom_site_pbe_ddec_charge
 _atom_site_pbe_ddec_spin_density
 _atom_site_pbe_ddec_sum_bond_order
 _atom_site_pbe_magmom
Fe  Fe0  1  0.48913173  0.50000053  0.98786485  1  0  0.650632  0  3.177099  0  0  0.617321  0  3.671677  0  0  0.660949  0  3.611084  0  0  0.817446  0.594513  0  3.70563  0
Fe  Fe1  1  0.48921076  0.00000332  0.51208463  1  0  0.650609  0  3.177651  0  0  0.617594  0  3.672015  0  0  0.661328  0  3.61138  0  0  0.817772  0.594785  0  3.705961  0
H  H2  1  0.88596189  0.49999671  0.10613757  1  0  0.13284  0  0.915519  0  0  0.138242  0  0.97559  0  0  0.13965  0  0.97606  0  0  0.133056  0.137423  0  0.97537  0
H  H3  1  0.11542348  0.99999963  0.60304258  1  0  0.13951  0  0.922827  0  0  0.144145  0  0.981913  0  0  0.146934  0  0.980014  0  0  0.135632  0.142202  0  0.983493  0
H  H4  1  0.11487707  0.50000107  0.89719808  1  0  0.138667  0  0.923422  0  0  0.144063  0  0.98184  0  0  0.146759  0  0.980034  0  0  0.135521  0.142189  0  0.983355  0
H  H5  1  0.88545930  0.00000367  0.39401678  1  0  0.132805  0  0.916121  0  0  0.138126  0  0.976155  0  0  0.139523  0  0.976649  0  0  0.133042  0.137306  0  0.975935  0
H  H6  1  0.43645077  0.50000029  0.34982486  1  0  0.104597  0  0.915468  0  0  0.113608  0  0.970226  0  0  0.114712  0  0.970483  0  0  0.12643  0.112927  0  0.970106  0
H  H7  1  0.57949109  0.99999346  0.83995281  1  0  0.105303  0  0.922701  0  0  0.110802  0  0.982148  0  0  0.113025  0  0.981421  0  0  0.12334  0.109278  0  0.982792  0
H  H8  1  0.57714698  0.50000173  0.65986213  1  0  0.105763  0  0.921264  0  0  0.1116  0  0.980014  0  0  0.113724  0  0.979453  0  0  0.123934  0.110142  0  0.980574  0
H  H9  1  0.43625713  0.99999971  0.14993769  1  0  0.105023  0  0.915279  0  0  0.113206  0  0.971003  0  0  0.114309  0  0.971261  0  0  0.126277  0.112561  0  0.97083  0
H  H10  1  0.32211098  0.50000162  0.19131780  1  0  0.104568  0  0.94597  0  0  0.107342  0  1.014075  0  0  0.109642  0  1.012218  0  0  0.121319  0.10575  0  1.015639  0
H  H11  1  0.68642001  0.00000070  0.68252070  1  0  0.112007  0  0.947032  0  0  0.11309  0  1.016811  0  0  0.116053  0  1.013479  0  0  0.124704  0.111022  0  1.019397  0
H  H12  1  0.68524659  0.50000318  0.81720988  1  0  0.11187  0  0.948712  0  0  0.113119  0  1.018009  0  0  0.116067  0  1.014691  0  0  0.124466  0.111056  0  1.020576  0
H  H13  1  0.32169462  0.00000005  0.30836592  1  0  0.104845  0  0.946246  0  0  0.10785  0  1.014132  0  0  0.110166  0  1.012247  0  0  0.121127  0.106254  0  1.015701  0
Pt  Pt14  1  0.99113588  0.00000080  0.99594975  1  0  0.118046  0  4.111296  0  0  0.1076  0  4.745276  0  0  0.101697  0  4.703443  0  0  0.529272  0.11285  0  4.775445  0
Pt  Pt15  1  0.99119470  0.50000035  0.50410926  1  0  0.11812  0  4.111235  0  0  0.107701  0  4.745001  0  0  0.101756  0  4.703233  0  0  0.529157  0.112986  0  4.775118  0
C  C16  1  0.78507609  0.49999719  0.16021159  1  0  -0.029488  0  3.65704  0  0  -0.062692  0  3.914335  0  0  -0.063793  0  3.933623  0  0  0.057517  -0.062468  0  3.90157  0
C  C17  1  0.22035715  0.00000041  0.65515892  1  0  -0.032499  0  3.597062  0  0  -0.070868  0  3.853542  0  0  -0.063923  0  3.863894  0  0  0.047486  -0.076702  0  3.848  0
C  C18  1  0.21940909  0.49999781  0.84498867  1  0  -0.033313  0  3.598734  0  0  -0.072434  0  3.855062  0  0  -0.065406  0  3.865361  0  0  0.046556  -0.078363  0  3.84954  0
C  C19  1  0.78466234  0.00000596  0.33985771  1  0  -0.028181  0  3.655288  0  0  -0.061311  0  3.912363  0  0  -0.062399  0  3.931646  0  0  0.058425  -0.061088  0  3.899604  0
C  C20  1  0.84073722  0.49999800  0.24762936  1  0  0.406898  0  3.839676  0  0  0.379278  0  4.134759  0  0  0.393051  0  4.142293  0  0  0.230636  0.369536  0  4.130065  0
C  C21  1  0.17050585  0.99999673  0.74281060  1  0  0.411208  0  3.839654  0  0  0.381669  0  4.141249  0  0  0.394442  0  4.144195  0  0  0.228838  0.372325  0  4.140476  0
C  C22  1  0.16887540  0.49999701  0.75737669  1  0  0.41374  0  3.837799  0  0  0.384896  0  4.138387  0  0  0.397654  0  4.141342  0  0  0.230183  0.375557  0  4.137632  0
C  C23  1  0.84037105  0.00000377  0.25248542  1  0  0.405896  0  3.838094  0  0  0.378385  0  4.133222  0  0  0.392131  0  4.140792  0  0  0.230203  0.368651  0  4.128512  0
C  C24  1  0.53583614  0.49999980  0.29503056  1  0  0.107596  0  3.668645  0  0  0.085976  0  3.927178  0  0  0.088351  0  3.947125  0  0  0.06369  0.084346  0  3.913639  0
C  C25  1  0.47613173  0.99999297  0.78669928  1  0  0.103841  0  3.676671  0  0  0.082988  0  3.940578  0  0  0.085432  0  3.954545  0  0  0.059057  0.080786  0  3.932136  0
C  C26  1  0.47421418  0.50000221  0.71322035  1  0  0.103901  0  3.676826  0  0  0.08306  0  3.940268  0  0  0.085568  0  3.954213  0  0  0.05855  0.080808  0  3.931823  0
C  C27  1  0.53554867  0.00000331  0.20482769  1  0  0.107796  0  3.667895  0  0  0.087032  0  3.926451  0  0  0.089396  0  3.94641  0  0  0.064513  0.085388  0  3.912915  0
C  C28  1  0.47269207  0.49999901  0.20868060  1  0  0.040573  0  3.68339  0  0  0.005  0  3.955067  0  0  0.006369  0  3.974353  0  0  0.048716  0.003657  0  3.942179  0
C  C29  1  0.53647792  0.99999916  0.70041365  1  0  0.041962  0  3.622259  0  0  0.001394  0  3.89481  0  0  0.00813  0  3.907095  0  0  0.04284  -0.00393  0  3.887745  0
C  C30  1  0.53517612  0.50000440  0.79945974  1  0  0.041077  0  3.62538  0  0  0.000529  0  3.897502  0  0  0.00724  0  3.909753  0  0  0.043883  -0.004761  0  3.890384  0
C  C31  1  0.47231690  0.00000549  0.29114548  1  0  0.041092  0  3.682393  0  0  0.005336  0  3.95368  0  0  0.006701  0  3.97297  0  0  0.049655  0.003988  0  3.940817  0
C  C32  1  0.79602612  0.80547500  0.97796909  1  0  0.085675  0  3.561354  0  0  0.0586  0  3.922605  0  0  0.07381  0  3.926633  0  0  0.001487  0.047931  0  3.920254  0
C  C33  1  0.18720972  0.69418359  0.48880667  1  0  0.086043  0  3.567767  0  0  0.057269  0  3.931927  0  0  0.072763  0  3.93441  0  0  0.000474  0.046256  0  3.930957  0
C  C34  1  0.18724484  0.80580521  0.01125554  1  0  0.086168  0  3.568087  0  0  0.057358  0  3.932351  0  0  0.072855  0  3.934792  0  0  0.00069  0.046341  0  3.931415  0
C  C35  1  0.79603737  0.69452302  0.52203076  1  0  0.085568  0  3.56157  0  0  0.058466  0  3.92284  0  0  0.073676  0  3.926877  0  0  0.00179  0.047793  0  3.920488  0
C  C36  1  0.18724746  0.19419194  0.01125437  1  0  0.086227  0  3.568045  0  0  0.057419  0  3.932305  0  0  0.072917  0  3.934748  0  0  0.000741  0.046403  0  3.931366  0
C  C37  1  0.79604436  0.30547378  0.52203001  1  0  0.085659  0  3.56153  0  0  0.058556  0  3.922826  0  0  0.073762  0  3.926865  0  0  0.001888  0.047881  0  3.920475  0
C  C38  1  0.79603446  0.19453012  0.97796857  1  0  0.085638  0  3.561277  0  0  0.058559  0  3.922545  0  0  0.073773  0  3.926573  0  0  0.001418  0.047891  0  3.920187  0
C  C39  1  0.18721385  0.30582227  0.48880331  1  0  0.086071  0  3.567749  0  0  0.057296  0  3.931907  0  0  0.072794  0  3.934387  0  0  0.000492  0.046283  0  3.930932  0
N  N40  1  0.59840211  0.49999702  0.14285292  1  0  -0.165582  0  3.17551  0  0  -0.121311  0  3.442592  0  0  -0.13792  0  3.463711  0  0  -0.256803  -0.108804  0  3.427595  0
N  N41  1  0.40799839  0.00000303  0.63395335  1  0  -0.132141  0  3.340335  0  0  -0.082252  0  3.61369  0  0  -0.102388  0  3.632511  0  0  -0.303503  -0.068742  0  3.599676  0
N  N42  1  0.40719040  0.50000221  0.86602342  1  0  -0.130439  0  3.34166  0  0  -0.080727  0  3.615171  0  0  -0.100736  0  3.633774  0  0  -0.303168  -0.067219  0  3.601151  0
N  N43  1  0.59797284  0.00000610  0.35706729  1  0  -0.16716  0  3.175187  0  0  -0.123208  0  3.442928  0  0  -0.139795  0  3.463981  0  0  -0.258419  -0.110717  0  3.427965  0
N  N44  1  0.67924032  0.68898887  0.97212823  1  0  -0.364811  0  3.269867  0  0  -0.330529  0  3.584471  0  0  -0.351955  0  3.594952  0  0  -0.390446  -0.316935  0  3.576053  0
N  N45  1  0.30433683  0.81093618  0.48732121  1  0  -0.363859  0  3.269945  0  0  -0.330943  0  3.586603  0  0  -0.351455  0  3.595381  0  0  -0.392248  -0.31815  0  3.579684  0
N  N46  1  0.30434979  0.68902892  0.01269874  1  0  -0.363985  0  3.271038  0  0  -0.331031  0  3.58764  0  0  -0.351543  0  3.59641  0  0  -0.392312  -0.31824  0  3.580713  0
N  N47  1  0.67930460  0.81100216  0.52781811  1  0  -0.364766  0  3.2718  0  0  -0.330505  0  3.586566  0  0  -0.351935  0  3.59706  0  0  -0.390834  -0.316907  0  3.578152  0
N  N48  1  0.30435108  0.31097386  0.01269736  1  0  -0.364057  0  3.271004  0  0  -0.331111  0  3.587624  0  0  -0.351623  0  3.596393  0  0  -0.392382  -0.318319  0  3.580697  0
N  N49  1  0.67931578  0.18899752  0.52782018  1  0  -0.364831  0  3.271668  0  0  -0.330578  0  3.586459  0  0  -0.352007  0  3.596952  0  0  -0.390893  -0.316979  0  3.578046  0
N  N50  1  0.67924017  0.31101473  0.97212554  1  0  -0.364824  0  3.269729  0  0  -0.330545  0  3.584335  0  0  -0.351973  0  3.594817  0  0  -0.390428  -0.31695  0  3.575917  0
N  N51  1  0.30434658  0.18906968  0.48731936  1  0  -0.363916  0  3.269965  0  0  -0.330994  0  3.586631  0  0  -0.351506  0  3.595408  0  0  -0.392275  -0.318203  0  3.579712  0
N  N52  1  0.72306365  0.49999859  0.31404791  1  0  -0.334602  0  3.093803  0  0  -0.312172  0  3.370761  0  0  -0.324337  0  3.385536  0  0  -0.295745  -0.303776  0  3.360993  0
N  N53  1  0.29011651  0.99998897  0.80864015  1  0  -0.329469  0  3.060897  0  0  -0.31011  0  3.338194  0  0  -0.315094  0  3.348264  0  0  -0.302189  -0.307077  0  3.332269  0
N  N54  1  0.28803924  0.49999642  0.69145406  1  0  -0.331606  0  3.062717  0  0  -0.312606  0  3.340506  0  0  -0.317603  0  3.350533  0  0  -0.303248  -0.309576  0  3.334628  0
N  N55  1  0.72277638  0.00000455  0.18596352  1  0  -0.334689  0  3.093783  0  0  -0.312681  0  3.370714  0  0  -0.324831  0  3.385491  0  0  -0.296374  -0.304295  0  3.360962  0
F  F56  1  0.03011056  0.49999810  0.26684143  1  0  -0.221492  0  1.196474  0  0  -0.169522  0  1.357118  0  0  -0.179505  0  1.345202  0  0  -0.085083  -0.162016  0  1.365365  0
F  F57  1  0.98160136  0.99999000  0.76274543  1  0  -0.220232  0  1.194472  0  0  -0.16812  0  1.356208  0  0  -0.17767  0  1.344092  0  0  -0.085501  -0.161122  0  1.364743  0
F  F58  1  0.97980132  0.49999550  0.73758680  1  0  -0.220374  0  1.194098  0  0  -0.168761  0  1.355718  0  0  -0.178264  0  1.34357  0  0  -0.085369  -0.161762  0  1.364263  0
F  F59  1  0.02979563  0.00000074  0.23338225  1  0  -0.221517  0  1.196413  0  0  -0.169466  0  1.356977  0  0  -0.179443  0  1.345065  0  0  -0.085004  -0.161964  0  1.365229  0
