# generated using pymatgen
data_CdH18C18(N3Cl)2
_symmetry_space_group_name_H-M   'P 1'
_cell_length_a   7.50814109
_cell_length_b   8.28241697
_cell_length_c   16.88514276
_cell_angle_alpha   89.99998263
_cell_angle_beta   89.99995371
_cell_angle_gamma   111.80965065
_symmetry_Int_Tables_number   1
_chemical_formula_structural   CdH18C18(N3Cl)2
_chemical_formula_sum   'Cd2 H36 C36 N12 Cl4'
_cell_volume   974.85554398
_cell_formula_units_Z   2
loop_
 _symmetry_equiv_pos_site_id
 _symmetry_equiv_pos_as_xyz
  1  'x, y, z'
loop_
 _atom_site_type_symbol
 _atom_site_label
 _atom_site_symmetry_multiplicity
 _atom_site_fract_x
 _atom_site_fract_y
 _atom_site_fract_z
 _atom_site_occupancy
 _atom_site_hle17_bader_spin_density
 _atom_site_hle17_ddec_charge
 _atom_site_hle17_ddec_spin_density
 _atom_site_hle17_ddec_sum_bond_order
 _atom_site_hle17_magmom
 _atom_site_hse06_10hf_bader_spin_density
 _atom_site_hse06_10hf_ddec_charge
 _atom_site_hse06_10hf_ddec_spin_density
 _atom_site_hse06_10hf_ddec_sum_bond_order
 _atom_site_hse06_10hf_magmom
 _atom_site_hse06_bader_spin_density
 _atom_site_hse06_ddec_charge
 _atom_site_hse06_ddec_spin_density
 _atom_site_hse06_ddec_sum_bond_order
 _atom_site_hse06_magmom
 _atom_site_pbe_bader_spin_density
 _atom_site_pbe_cm5_charge
 _atom_site_pbe_ddec_charge
 _atom_site_pbe_ddec_spin_density
 _atom_site_pbe_ddec_sum_bond_order
 _atom_site_pbe_magmom
Cd  Cd0  1  0.50000130  0.50000141  0.99999971  1  0  0.937002  0  1.961613  0  0  0.744393  0  2.419387  0  0  0.79212  0  2.381022  0  0  0.672936  0.711151  0  2.445064  0
Cd  Cd1  1  0.49999948  0.00000000  0.49999976  1  0  0.937028  0  1.961546  0  0  0.744418  0  2.419324  0  0  0.792146  0  2.380959  0  0  0.672938  0.711178  0  2.445003  0
H  H2  1  0.35706570  0.50272764  0.17223771  1  0  0.072575  0  0.958146  0  0  0.078104  0  1.025934  0  0  0.080826  0  1.02327  0  0  0.104138  0.076076  0  1.027888  0
H  H3  1  0.64293267  0.99727296  0.67223636  1  0  0.072588  0  0.958164  0  0  0.078121  0  1.025947  0  0  0.080843  0  1.023284  0  0  0.104152  0.076093  0  1.0279  0
H  H4  1  0.64293436  0.49727332  0.82776188  1  0  0.072566  0  0.958153  0  0  0.078098  0  1.025934  0  0  0.080821  0  1.02327  0  0  0.10414  0.07607  0  1.027887  0
H  H5  1  0.35706818  0.00272670  0.32776264  1  0  0.072561  0  0.958133  0  0  0.078095  0  1.025915  0  0  0.080816  0  1.023252  0  0  0.104132  0.076067  0  1.027868  0
H  H6  1  0.42976814  0.49129152  0.31626017  1  0  0.104622  0  0.978706  0  0  0.113906  0  1.04192  0  0  0.11654  0  1.042042  0  0  0.102713  0.112006  0  1.042003  0
H  H7  1  0.57023123  0.00870722  0.81625891  1  0  0.10461  0  0.978646  0  0  0.11391  0  1.041848  0  0  0.116544  0  1.04197  0  0  0.102696  0.11201  0  1.041931  0
H  H8  1  0.57023192  0.50870944  0.68374001  1  0  0.104598  0  0.97868  0  0  0.113893  0  1.04189  0  0  0.116527  0  1.042012  0  0  0.102697  0.111993  0  1.041973  0
H  H9  1  0.42977041  0.99129112  0.18374008  1  0  0.10464  0  0.978666  0  0  0.11393  0  1.041873  0  0  0.116563  0  1.041995  0  0  0.102711  0.112029  0  1.041956  0
H  H10  1  0.01034597  0.56519056  0.24896558  1  0  0.10876  0  0.952944  0  0  0.118456  0  1.01245  0  0  0.121874  0  1.011582  0  0  0.10527  0.116019  0  1.013201  0
H  H11  1  0.98965487  0.93480992  0.74896351  1  0  0.108803  0  0.952912  0  0  0.118472  0  1.012444  0  0  0.121891  0  1.011577  0  0  0.105263  0.116035  0  1.013195  0
H  H12  1  0.98965380  0.43480650  0.75103579  1  0  0.108774  0  0.95292  0  0  0.118469  0  1.012433  0  0  0.121887  0  1.011565  0  0  0.10528  0.116033  0  1.013184  0
H  H13  1  0.01034652  0.06519103  0.25103607  1  0  0.108761  0  0.952953  0  0  0.118456  0  1.012457  0  0  0.121874  0  1.011591  0  0  0.105271  0.116019  0  1.013209  0
H  H14  1  0.90896221  0.55893874  0.10808949  1  0  0.074976  0  0.958845  0  0  0.079376  0  1.032762  0  0  0.081799  0  1.030051  0  0  0.105317  0.0775  0  1.03486  0
H  H15  1  0.09103951  0.94106324  0.60808953  1  0  0.074971  0  0.958871  0  0  0.079357  0  1.0328  0  0  0.081776  0  1.030098  0  0  0.105314  0.077482  0  1.0349  0
H  H16  1  0.09103997  0.44106090  0.89190950  1  0  0.075002  0  0.958837  0  0  0.079386  0  1.032766  0  0  0.081806  0  1.030063  0  0  0.105318  0.077511  0  1.034866  0
H  H17  1  0.90896188  0.05893771  0.39191064  1  0  0.074975  0  0.958905  0  0  0.079378  0  1.032813  0  0  0.081801  0  1.030104  0  0  0.105329  0.077502  0  1.034912  0
H  H18  1  0.69725118  0.39097686  0.40455906  1  0  0.104383  0  0.931176  0  0  0.11498  0  1.000729  0  0  0.116001  0  1.000492  0  0  0.11399  0.114182  0  1.001024  0
H  H19  1  0.30274798  0.10902175  0.90455729  1  0  0.104414  0  0.931184  0  0  0.114997  0  1.000728  0  0  0.116018  0  1.00049  0  0  0.113998  0.1142  0  1.001021  0
H  H20  1  0.30274755  0.60902410  0.59544231  1  0  0.104407  0  0.931168  0  0  0.114979  0  1.000727  0  0  0.115999  0  1.000492  0  0  0.113991  0.114181  0  1.00102  0
H  H21  1  0.69725366  0.89097659  0.09544230  1  0  0.104419  0  0.9312  0  0  0.114974  0  1.000762  0  0  0.115998  0  1.00053  0  0  0.113993  0.114177  0  1.001055  0
H  H22  1  0.70709295  0.60523163  0.41530103  1  0  0.100881  0  0.936815  0  0  0.11407  0  1.002903  0  0  0.115458  0  1.001737  0  0  0.112403  0.112979  0  1.003858  0
H  H23  1  0.29290562  0.89476731  0.91529922  1  0  0.100916  0  0.936773  0  0  0.114095  0  1.002856  0  0  0.115483  0  1.001689  0  0  0.112427  0.113003  0  1.003813  0
H  H24  1  0.29290524  0.39476804  0.58469915  1  0  0.100917  0  0.936782  0  0  0.114097  0  1.002866  0  0  0.115487  0  1.001699  0  0  0.112422  0.113005  0  1.003822  0
H  H25  1  0.70709336  0.10523105  0.08470036  1  0  0.100853  0  0.936778  0  0  0.114025  0  1.002865  0  0  0.115418  0  1.001701  0  0  0.112391  0.112932  0  1.003824  0
H  H26  1  0.04183943  0.35959780  0.38010395  1  0  0.10869  0  0.980762  0  0  0.11672  0  1.048063  0  0  0.119169  0  1.047192  0  0  0.11421  0.11495  0  1.048766  0
H  H27  1  0.95815900  0.14040216  0.88010372  1  0  0.108688  0  0.980766  0  0  0.116716  0  1.048074  0  0  0.119164  0  1.047204  0  0  0.1142  0.114946  0  1.048777  0
H  H28  1  0.95815743  0.64040188  0.61989741  1  0  0.108663  0  0.980774  0  0  0.116695  0  1.048078  0  0  0.119145  0  1.047207  0  0  0.114183  0.114926  0  1.048779  0
H  H29  1  0.04184372  0.85959878  0.11989587  1  0  0.10868  0  0.980774  0  0  0.116714  0  1.048072  0  0  0.119163  0  1.047201  0  0  0.114197  0.114944  0  1.048774  0
H  H30  1  0.39315507  0.57726650  0.44144774  1  0  0.099186  0  0.979731  0  0  0.105434  0  1.049029  0  0  0.108337  0  1.046734  0  0  0.105476  0.10328  0  1.050835  0
H  H31  1  0.60684584  0.92273500  0.94144878  1  0  0.099183  0  0.979733  0  0  0.105424  0  1.049033  0  0  0.108326  0  1.04674  0  0  0.105472  0.103269  0  1.05084  0
H  H32  1  0.60684312  0.42273317  0.55855244  1  0  0.099159  0  0.979739  0  0  0.10541  0  1.049036  0  0  0.108313  0  1.046742  0  0  0.105466  0.103256  0  1.050843  0
H  H33  1  0.39315795  0.07726855  0.05855140  1  0  0.099148  0  0.979779  0  0  0.105388  0  1.04908  0  0  0.108291  0  1.046789  0  0  0.105461  0.103233  0  1.050887  0
H  H34  1  0.01122606  0.84295285  0.44501602  1  0  0.092618  0  0.980904  0  0  0.09529  0  1.059367  0  0  0.098252  0  1.055345  0  0  0.117701  0.093068  0  1.062281  0
H  H35  1  0.98877298  0.65704735  0.94501518  1  0  0.092605  0  0.980932  0  0  0.095283  0  1.059385  0  0  0.098246  0  1.055363  0  0  0.11771  0.093061  0  1.062299  0
H  H36  1  0.98877321  0.15704942  0.55498357  1  0  0.092612  0  0.980878  0  0  0.09528  0  1.059343  0  0  0.098243  0  1.05532  0  0  0.117724  0.093059  0  1.062259  0
H  H37  1  0.01122467  0.34295102  0.05498500  1  0  0.09263  0  0.980899  0  0  0.095306  0  1.059355  0  0  0.098268  0  1.055333  0  0  0.117714  0.093084  0  1.062269  0
C  C38  1  0.49886088  0.51217861  0.19226653  1  0  0.131291  0  3.731247  0  0  0.103252  0  3.980312  0  0  0.11027  0  3.998599  0  0  0.040829  0.098777  0  3.967878  0
C  C39  1  0.50113877  0.98782196  0.69226464  1  0  0.131307  0  3.731243  0  0  0.103263  0  3.980316  0  0  0.110282  0  3.998601  0  0  0.040824  0.098788  0  3.967881  0
C  C40  1  0.50113918  0.48782235  0.80773424  1  0  0.131352  0  3.731228  0  0  0.103318  0  3.9803  0  0  0.110336  0  3.998588  0  0  0.040863  0.098843  0  3.967865  0
C  C41  1  0.49886287  0.01217639  0.30773494  1  0  0.131399  0  3.73131  0  0  0.10335  0  3.980377  0  0  0.110369  0  3.998664  0  0  0.040882  0.098876  0  3.967943  0
C  C42  1  0.54105392  0.50842713  0.27210654  1  0  -0.166312  0  3.706286  0  0  -0.181434  0  3.946059  0  0  -0.189505  0  3.967861  0  0  -0.087028  -0.176274  0  3.931458  0
C  C43  1  0.45894499  0.99157202  0.77210466  1  0  -0.166403  0  3.706174  0  0  -0.181508  0  3.945987  0  0  -0.189578  0  3.967788  0  0  -0.087068  -0.176347  0  3.931389  0
C  C44  1  0.45894427  0.49157254  0.72789423  1  0  -0.166367  0  3.706254  0  0  -0.181505  0  3.946029  0  0  -0.189575  0  3.967832  0  0  -0.08705  -0.176344  0  3.931431  0
C  C45  1  0.54105664  0.00842633  0.22789492  1  0  -0.166493  0  3.706332  0  0  -0.181621  0  3.946131  0  0  -0.189691  0  3.96793  0  0  -0.087098  -0.17646  0  3.931532  0
C  C46  1  0.72738399  0.52836627  0.29492597  1  0  0.138121  0  3.71387  0  0  0.15172  0  3.954533  0  0  0.156274  0  3.976542  0  0  0.011317  0.148903  0  3.939478  0
C  C47  1  0.27261620  0.97163284  0.79492416  1  0  0.138239  0  3.713712  0  0  0.15174  0  3.954473  0  0  0.156293  0  3.976481  0  0  0.01133  0.148923  0  3.939416  0
C  C48  1  0.27261686  0.47163338  0.70507420  1  0  0.138129  0  3.713894  0  0  0.151727  0  3.954537  0  0  0.156281  0  3.976544  0  0  0.011301  0.148909  0  3.939482  0
C  C49  1  0.72738543  0.02836550  0.20507542  1  0  0.138249  0  3.713811  0  0  0.151818  0  3.954455  0  0  0.15638  0  3.976464  0  0  0.011363  0.149001  0  3.9394  0
C  C50  1  0.86265599  0.54831339  0.23504549  1  0  -0.18052  0  3.719528  0  0  -0.199431  0  3.966787  0  0  -0.207596  0  3.988172  0  0  -0.093089  -0.194156  0  3.952383  0
C  C51  1  0.13734567  0.95168579  0.73504433  1  0  -0.180651  0  3.719405  0  0  -0.199499  0  3.966677  0  0  -0.207665  0  3.98806  0  0  -0.093106  -0.194227  0  3.952278  0
C  C52  1  0.13734565  0.45168495  0.76495468  1  0  -0.180566  0  3.71954  0  0  -0.199477  0  3.966791  0  0  -0.207643  0  3.988175  0  0  -0.093097  -0.194202  0  3.952387  0
C  C53  1  0.86265596  0.04831255  0.26495526  1  0  -0.180532  0  3.719554  0  0  -0.199434  0  3.966815  0  0  -0.207599  0  3.988198  0  0  -0.093093  -0.194159  0  3.952411  0
C  C54  1  0.80678615  0.54613180  0.15607667  1  0  0.122602  0  3.733389  0  0  0.094976  0  3.988218  0  0  0.10211  0  4.00655  0  0  0.040044  0.090412  0  3.975774  0
C  C55  1  0.19321437  0.95386751  0.65607549  1  0  0.122663  0  3.733377  0  0  0.095053  0  3.988193  0  0  0.102188  0  4.006522  0  0  0.040091  0.090487  0  3.975751  0
C  C56  1  0.19321440  0.45386394  0.84392291  1  0  0.122595  0  3.733406  0  0  0.094993  0  3.988242  0  0  0.102126  0  4.006572  0  0  0.040067  0.090427  0  3.975801  0
C  C57  1  0.80678756  0.04613475  0.34392410  1  0  0.122561  0  3.733517  0  0  0.094932  0  3.988337  0  0  0.102066  0  4.006667  0  0  0.040035  0.090369  0  3.975895  0
C  C58  1  0.76888460  0.52426291  0.38206292  1  0  -0.059046  0  3.645497  0  0  -0.121622  0  3.885175  0  0  -0.11817  0  3.894916  0  0  -0.045551  -0.12383  0  3.878594  0
C  C59  1  0.23111459  0.97573738  0.88206172  1  0  -0.059099  0  3.645539  0  0  -0.121622  0  3.885237  0  0  -0.118169  0  3.894979  0  0  -0.045552  -0.123831  0  3.878654  0
C  C60  1  0.23111280  0.47573807  0.61793725  1  0  -0.059088  0  3.645671  0  0  -0.121597  0  3.885266  0  0  -0.118146  0  3.895008  0  0  -0.045588  -0.123805  0  3.878684  0
C  C61  1  0.76888704  0.02426096  0.11793786  1  0  -0.059059  0  3.645612  0  0  -0.121528  0  3.885193  0  0  -0.118098  0  3.894964  0  0  -0.04554  -0.123736  0  3.87861  0
C  C62  1  0.09052578  0.49301626  0.40031637  1  0  -0.066579  0  3.673344  0  0  -0.106127  0  3.932372  0  0  -0.104394  0  3.950134  0  0  -0.006243  -0.107234  0  3.920458  0
C  C63  1  0.90947393  0.00698366  0.90031618  1  0  -0.066589  0  3.673411  0  0  -0.106135  0  3.932434  0  0  -0.1044  0  3.950197  0  0  -0.006254  -0.107241  0  3.920519  0
C  C64  1  0.90947108  0.50698341  0.59968439  1  0  -0.0666  0  3.673445  0  0  -0.106157  0  3.932487  0  0  -0.104423  0  3.95025  0  0  -0.006268  -0.107263  0  3.920572  0
C  C65  1  0.09052879  0.99301729  0.09968400  1  0  -0.066585  0  3.673443  0  0  -0.106137  0  3.93248  0  0  -0.104403  0  3.950242  0  0  -0.006253  -0.107243  0  3.920565  0
C  C66  1  0.26357360  0.60205209  0.43027759  1  0  -0.004254  0  3.770968  0  0  -0.040151  0  4.042445  0  0  -0.037652  0  4.061254  0  0  -0.011041  -0.041779  0  4.029762  0
C  C67  1  0.73642601  0.89794943  0.93027858  1  0  -0.004245  0  3.770955  0  0  -0.040134  0  4.042429  0  0  -0.037634  0  4.061237  0  0  -0.011053  -0.04176  0  4.029746  0
C  C68  1  0.73642326  0.39794759  0.56972318  1  0  -0.004139  0  3.770885  0  0  -0.040041  0  4.04236  0  0  -0.037541  0  4.061167  0  0  -0.011  -0.041668  0  4.029679  0
C  C69  1  0.26357646  0.10205412  0.06972159  1  0  -0.004234  0  3.771005  0  0  -0.040125  0  4.042483  0  0  -0.037629  0  4.061296  0  0  -0.011066  -0.041752  0  4.029801  0
C  C70  1  0.07259688  0.74552911  0.43347273  1  0  0.156205  0  3.665009  0  0  0.095309  0  3.930246  0  0  0.108773  0  3.943519  0  0  0.134018  0.086658  0  3.921029  0
C  C71  1  0.92740219  0.75447110  0.93347190  1  0  0.156287  0  3.664958  0  0  0.095384  0  3.930193  0  0  0.10885  0  3.943466  0  0  0.134022  0.086733  0  3.920976  0
C  C72  1  0.92740185  0.25447185  0.56652745  1  0  0.156309  0  3.664958  0  0  0.095407  0  3.930202  0  0  0.108874  0  3.943473  0  0  0.134007  0.086756  0  3.92099  0
C  C73  1  0.07259600  0.24552857  0.06652828  1  0  0.156237  0  3.664987  0  0  0.095328  0  3.930243  0  0  0.108793  0  3.943515  0  0  0.134005  0.086677  0  3.921027  0
N  N74  1  0.62865904  0.52988783  0.13473131  1  0  -0.324412  0  3.242625  0  0  -0.254366  0  3.505338  0  0  -0.272864  0  3.524747  0  0  -0.329042  -0.241853  0  3.491906  0
N  N75  1  0.37134021  0.97011151  0.63473006  1  0  -0.324395  0  3.242692  0  0  -0.25436  0  3.505427  0  0  -0.272858  0  3.524834  0  0  -0.329044  -0.241847  0  3.491996  0
N  N76  1  0.37133994  0.47011053  0.86526886  1  0  -0.32439  0  3.242676  0  0  -0.254371  0  3.505412  0  0  -0.272866  0  3.524814  0  0  -0.329056  -0.241858  0  3.491981  0
N  N77  1  0.62866064  0.02988814  0.36526893  1  0  -0.324394  0  3.242753  0  0  -0.254349  0  3.505478  0  0  -0.272849  0  3.52489  0  0  -0.329065  -0.241839  0  3.492051  0
N  N78  1  0.25019511  0.75839080  0.45067894  1  0  -0.379803  0  3.283883  0  0  -0.303656  0  3.562012  0  0  -0.324302  0  3.58115  0  0  -0.362709  -0.289493  0  3.548347  0
N  N79  1  0.74980391  0.74160939  0.95067937  1  0  -0.379824  0  3.28383  0  0  -0.303668  0  3.561952  0  0  -0.324314  0  3.581094  0  0  -0.362712  -0.289505  0  3.548287  0
N  N80  1  0.74980308  0.24160887  0.54932064  1  0  -0.379919  0  3.283839  0  0  -0.303755  0  3.561957  0  0  -0.324405  0  3.581105  0  0  -0.362722  -0.289594  0  3.548299  0
N  N81  1  0.25019482  0.25839157  0.04932022  1  0  -0.379789  0  3.28381  0  0  -0.30362  0  3.561918  0  0  -0.324265  0  3.581058  0  0  -0.362676  -0.289457  0  3.548255  0
N  N82  1  0.97087968  0.58596238  0.40277518  1  0  -0.058461  0  3.592334  0  0  0.037761  0  3.804885  0  0  0.022874  0  3.831839  0  0  -0.245021  0.047592  0  3.786555  0
N  N83  1  0.02911892  0.91403658  0.90277346  1  0  -0.05852  0  3.592404  0  0  0.037693  0  3.80494  0  0  0.0228  0  3.831902  0  0  -0.245006  0.047525  0  3.786607  0
N  N84  1  0.02911718  0.41403729  0.59722619  1  0  -0.058483  0  3.592549  0  0  0.037734  0  3.805081  0  0  0.022842  0  3.832046  0  0  -0.24496  0.047566  0  3.78675  0
N  N85  1  0.97088326  0.08596307  0.09722553  1  0  -0.0585  0  3.592509  0  0  0.037697  0  3.805044  0  0  0.022812  0  3.83201  0  0  -0.244987  0.047529  0  3.786711  0
Cl  Cl86  1  0.30030529  0.69176766  0.04089739  1  0  -0.644032  0  0.744562  0  0  -0.58477  0  0.988108  0  0  -0.600139  0  0.96958  0  0  -0.364175  -0.573367  0  1.000689  0
Cl  Cl87  1  0.69969418  0.80823182  0.54089782  1  0  -0.644044  0  0.744561  0  0  -0.584789  0  0.988115  0  0  -0.600157  0  0.969587  0  0  -0.364181  -0.573385  0  1.000698  0
Cl  Cl88  1  0.69969345  0.30823331  0.95910338  1  0  -0.644046  0  0.744603  0  0  -0.584782  0  0.988146  0  0  -0.600151  0  0.969618  0  0  -0.364178  -0.573378  0  1.000729  0
Cl  Cl89  1  0.30030534  0.19176784  0.45910236  1  0  -0.644037  0  0.744558  0  0  -0.584778  0  0.98811  0  0  -0.600147  0  0.969582  0  0  -0.364173  -0.573374  0  1.000691  0
