# generated using pymatgen
data_CdH8C8Br2(N2O)2
_symmetry_space_group_name_H-M   'P 1'
_cell_length_a   3.94312542
_cell_length_b   7.60459037
_cell_length_c   20.39903360
_cell_angle_alpha   89.99915873
_cell_angle_beta   91.04193289
_cell_angle_gamma   90.00014542
_symmetry_Int_Tables_number   1
_chemical_formula_structural   CdH8C8Br2(N2O)2
_chemical_formula_sum   'Cd2 H16 C16 Br4 N8 O4'
_cell_volume   611.58129615
_cell_formula_units_Z   2
loop_
 _symmetry_equiv_pos_site_id
 _symmetry_equiv_pos_as_xyz
  1  'x, y, z'
loop_
 _atom_site_type_symbol
 _atom_site_label
 _atom_site_symmetry_multiplicity
 _atom_site_fract_x
 _atom_site_fract_y
 _atom_site_fract_z
 _atom_site_occupancy
 _atom_site_hle17_bader_spin_density
 _atom_site_hle17_ddec_charge
 _atom_site_hle17_ddec_spin_density
 _atom_site_hle17_ddec_sum_bond_order
 _atom_site_hle17_magmom
 _atom_site_hse06_10hf_bader_spin_density
 _atom_site_hse06_10hf_ddec_charge
 _atom_site_hse06_10hf_ddec_spin_density
 _atom_site_hse06_10hf_ddec_sum_bond_order
 _atom_site_hse06_10hf_magmom
 _atom_site_hse06_bader_spin_density
 _atom_site_hse06_ddec_charge
 _atom_site_hse06_ddec_spin_density
 _atom_site_hse06_ddec_sum_bond_order
 _atom_site_hse06_magmom
 _atom_site_pbe_bader_spin_density
 _atom_site_pbe_cm5_charge
 _atom_site_pbe_ddec_charge
 _atom_site_pbe_ddec_spin_density
 _atom_site_pbe_ddec_sum_bond_order
 _atom_site_pbe_magmom
Cd  Cd0  1  0.49999102  0.50000029  0.49999797  1  0  0.841276  0  2.01157  0  0  0.676469  0  2.459514  0  0  0.726085  0  2.422533  0  0  0.530314  0.641293  0  2.485182  0
Cd  Cd1  1  0.50000080  0.00000037  0.00000121  1  0  0.84125  0  2.011616  0  0  0.676419  0  2.45955  0  0  0.726033  0  2.422574  0  0  0.530283  0.641238  0  2.48522  0
H  H2  1  0.19838087  0.50422821  0.34547564  1  0  0.109288  0  0.953413  0  0  0.109908  0  1.027673  0  0  0.114639  0  1.023152  0  0  0.108116  0.106473  0  1.031119  0
H  H3  1  0.80165365  0.00422655  0.15453111  1  0  0.109331  0  0.953267  0  0  0.109881  0  1.027553  0  0  0.114605  0  1.02303  0  0  0.108125  0.106448  0  1.030996  0
H  H4  1  0.80160105  0.49577237  0.65452225  1  0  0.109299  0  0.953413  0  0  0.109919  0  1.027659  0  0  0.114651  0  1.023133  0  0  0.108106  0.106482  0  1.031105  0
H  H5  1  0.19836863  0.99577141  0.84547093  1  0  0.10924  0  0.953344  0  0  0.109833  0  1.027608  0  0  0.114562  0  1.023081  0  0  0.108086  0.106396  0  1.031056  0
H  H6  1  0.68932240  0.10737537  0.45189836  1  0  0.094821  0  0.98516  0  0  0.096493  0  1.061782  0  0  0.100159  0  1.060265  0  0  0.096126  0.09375  0  1.063222  0
H  H7  1  0.31070744  0.60737716  0.04810781  1  0  0.094899  0  0.985068  0  0  0.096538  0  1.061714  0  0  0.10024  0  1.060164  0  0  0.096158  0.093794  0  1.063155  0
H  H8  1  0.31066722  0.89262916  0.54809811  1  0  0.094759  0  0.985128  0  0  0.096442  0  1.061743  0  0  0.100104  0  1.060236  0  0  0.096083  0.09371  0  1.063174  0
H  H9  1  0.68929961  0.39262606  0.95189415  1  0  0.094945  0  0.985027  0  0  0.096571  0  1.061691  0  0  0.100267  0  1.06015  0  0  0.096204  0.093826  0  1.063133  0
H  H10  1  0.51656019  0.88449575  0.36491236  1  0  0.106113  0  0.943072  0  0  0.114949  0  1.005339  0  0  0.118388  0  1.001624  0  0  0.11626  0.112306  0  1.008271  0
H  H11  1  0.48348319  0.38449965  0.13509581  1  0  0.106146  0  0.942942  0  0  0.114928  0  1.005267  0  0  0.11837  0  1.001559  0  0  0.116262  0.112284  0  1.008191  0
H  H12  1  0.48344459  0.11550878  0.63508517  1  0  0.106175  0  0.942973  0  0  0.114987  0  1.005279  0  0  0.118426  0  1.001565  0  0  0.116297  0.112351  0  1.008188  0
H  H13  1  0.51652133  0.61550225  0.86490614  1  0  0.106211  0  0.942869  0  0  0.114937  0  1.005273  0  0  0.118377  0  1.001563  0  0  0.11627  0.112302  0  1.008171  0
H  H14  1  0.16789836  0.97532396  0.27670617  1  0  0.317296  0  0.923292  0  0  0.294156  0  0.989246  0  0  0.304694  0  0.980449  0  0  0.307154  0.286752  0  0.9954  0
H  H15  1  0.83213508  0.47532488  0.22330389  1  0  0.317245  0  0.923184  0  0  0.294089  0  0.98917  0  0  0.304624  0  0.980377  0  0  0.307151  0.286686  0  0.995323  0
H  H16  1  0.83210383  0.02467531  0.72329233  1  0  0.317184  0  0.923175  0  0  0.294067  0  0.989135  0  0  0.304608  0  0.980337  0  0  0.307095  0.286661  0  0.995291  0
H  H17  1  0.16786693  0.52467308  0.77669755  1  0  0.31719  0  0.923202  0  0  0.294081  0  0.989124  0  0  0.304618  0  0.980327  0  0  0.307153  0.286678  0  0.995277  0
C  C18  1  0.27300163  0.36630755  0.34936621  1  0  -0.020831  0  3.599394  0  0  -0.056472  0  3.859616  0  0  -0.056572  0  3.871624  0  0  0.046818  -0.056728  0  3.851631  0
C  C19  1  0.72703408  0.86630719  0.15064202  1  0  -0.020902  0  3.600164  0  0  -0.056464  0  3.860176  0  0  -0.056543  0  3.872157  0  0  0.046843  -0.056727  0  3.852208  0
C  C20  1  0.72699044  0.63369172  0.65063175  1  0  -0.020892  0  3.599594  0  0  -0.05652  0  3.859798  0  0  -0.056618  0  3.871803  0  0  0.046798  -0.056769  0  3.8518  0
C  C21  1  0.27297047  0.13369339  0.84935944  1  0  -0.020704  0  3.60007  0  0  -0.056288  0  3.860094  0  0  -0.05637  0  3.872076  0  0  0.046901  -0.056551  0  3.852126  0
C  C22  1  0.54251438  0.14400926  0.40833611  1  0  -0.013053  0  3.741702  0  0  -0.049102  0  4.018405  0  0  -0.055444  0  4.042829  0  0  0.002144  -0.045288  0  4.002334  0
C  C23  1  0.45750779  0.64401743  0.09167324  1  0  -0.013013  0  3.741529  0  0  -0.04906  0  4.018253  0  0  -0.055435  0  4.042656  0  0  0.002139  -0.045245  0  4.002178  0
C  C24  1  0.45747519  0.85599001  0.59166134  1  0  -0.013009  0  3.741491  0  0  -0.049057  0  4.018194  0  0  -0.0554  0  4.042625  0  0  0.002202  -0.045253  0  4.002117  0
C  C25  1  0.54249673  0.35598316  0.90832870  1  0  -0.01304  0  3.741596  0  0  -0.049056  0  4.018279  0  0  -0.055423  0  4.042686  0  0  0.002122  -0.045243  0  4.002206  0
C  C26  1  0.15819551  0.24521581  0.29898744  1  0  0.507155  0  3.857667  0  0  0.470287  0  4.13834  0  0  0.495655  0  4.141784  0  0  0.222753  0.453418  0  4.135385  0
C  C27  1  0.84182961  0.74522283  0.20102089  1  0  0.507156  0  3.857898  0  0  0.470431  0  4.138306  0  0  0.49579  0  4.141742  0  0  0.222912  0.453561  0  4.13535  0
C  C28  1  0.84180137  0.75477425  0.70101495  1  0  0.507082  0  3.85787  0  0  0.470202  0  4.138565  0  0  0.495568  0  4.142004  0  0  0.22274  0.453335  0  4.135595  0
C  C29  1  0.15819255  0.25477775  0.79898312  1  0  0.507173  0  3.857761  0  0  0.470406  0  4.138259  0  0  0.495769  0  4.141691  0  0  0.222888  0.453536  0  4.135304  0
C  C30  1  0.44887159  0.02289512  0.36149566  1  0  0.126958  0  3.662188  0  0  0.08589  0  3.922635  0  0  0.094605  0  3.93863  0  0  0.052901  0.080156  0  3.91204  0
C  C31  1  0.55117058  0.52290419  0.13851153  1  0  0.126822  0  3.661957  0  0  0.085806  0  3.922402  0  0  0.094501  0  3.938422  0  0  0.052909  0.080078  0  3.911801  0
C  C32  1  0.55112797  0.97710678  0.63850430  1  0  0.126838  0  3.662154  0  0  0.085779  0  3.922615  0  0  0.094498  0  3.938604  0  0  0.052835  0.080045  0  3.912022  0
C  C33  1  0.44883648  0.47709771  0.86149043  1  0  0.126741  0  3.662066  0  0  0.085743  0  3.922533  0  0  0.094445  0  3.938538  0  0  0.052869  0.080017  0  3.911937  0
Br  Br34  1  0.98677206  0.71699823  0.44885286  1  0  -0.497236  0  1.10307  0  0  -0.43564  0  1.415859  0  0  -0.455994  0  1.394878  0  0  -0.235821  -0.420699  0  1.430958  0
Br  Br35  1  0.01322579  0.21700477  0.05114321  1  0  -0.497245  0  1.10299  0  0  -0.435617  0  1.415736  0  0  -0.455973  0  1.394774  0  0  -0.235826  -0.420672  0  1.430828  0
Br  Br36  1  0.01321762  0.28299709  0.55114263  1  0  -0.49723  0  1.10304  0  0  -0.435619  0  1.41582  0  0  -0.455974  0  1.394838  0  0  -0.235814  -0.420681  0  1.430914  0
Br  Br37  1  0.98677631  0.78300108  0.94885676  1  0  -0.497278  0  1.10304  0  0  -0.435631  0  1.415766  0  0  -0.455985  0  1.394799  0  0  -0.235826  -0.42069  0  1.430858  0
N  N38  1  0.44852802  0.31551495  0.40169744  1  0  -0.246743  0  3.321428  0  0  -0.172816  0  3.577259  0  0  -0.184598  0  3.600833  0  0  -0.311245  -0.164136  0  3.560888  0
N  N39  1  0.55151006  0.81552299  0.09831059  1  0  -0.246752  0  3.321831  0  0  -0.172822  0  3.577593  0  0  -0.184603  0  3.601162  0  0  -0.311267  -0.164145  0  3.561221  0
N  N40  1  0.55147155  0.68448432  0.59830252  1  0  -0.246785  0  3.321527  0  0  -0.172862  0  3.577353  0  0  -0.184643  0  3.600926  0  0  -0.311294  -0.164185  0  3.560981  0
N  N41  1  0.44849959  0.18447760  0.90169041  1  0  -0.246815  0  3.321683  0  0  -0.172913  0  3.577479  0  0  -0.184698  0  3.601053  0  0  -0.31127  -0.164233  0  3.561105  0
N  N42  1  0.26189672  0.07379160  0.30874928  1  0  -0.331073  0  3.372688  0  0  -0.261726  0  3.59622  0  0  -0.281771  0  3.60773  0  0  -0.354227  -0.248426  0  3.588406  0
N  N43  1  0.73813784  0.57379623  0.19126102  1  0  -0.330985  0  3.372392  0  0  -0.261698  0  3.595876  0  0  -0.281732  0  3.607382  0  0  -0.354358  -0.2484  0  3.588063  0
N  N44  1  0.73809541  0.92620372  0.69124769  1  0  -0.33096  0  3.372461  0  0  -0.261642  0  3.59597  0  0  -0.281683  0  3.607479  0  0  -0.354224  -0.248341  0  3.58815  0
N  N45  1  0.26186409  0.42620304  0.80874190  1  0  -0.330928  0  3.372512  0  0  -0.261659  0  3.595979  0  0  -0.281687  0  3.607474  0  0  -0.354316  -0.248364  0  3.588169  0
O  O46  1  0.97169342  0.28391374  0.25036287  1  0  -0.573319  0  1.950045  0  0  -0.534169  0  2.16959  0  0  -0.556801  0  2.163763  0  0  -0.316149  -0.518231  0  2.172865  0
O  O47  1  0.02832657  0.78391895  0.24964865  1  0  -0.573328  0  1.949974  0  0  -0.53421  0  2.169394  0  0  -0.556856  0  2.163599  0  0  -0.316185  -0.51827  0  2.172668  0
O  O48  1  0.02828101  0.71608422  0.74963302  1  0  -0.5731  0  1.950417  0  0  -0.533921  0  2.169912  0  0  -0.556571  0  2.164132  0  0  -0.315997  -0.517989  0  2.173183  0
O  O49  1  0.97169078  0.21607637  0.75035092  1  0  -0.573373  0  1.949653  0  0  -0.534251  0  2.169105  0  0  -0.556907  0  2.163318  0  0  -0.316195  -0.51831  0  2.172381  0
