# generated using pymatgen
data_ZnH12C18(N3O2)2
_symmetry_space_group_name_H-M   'P 1'
_cell_length_a   5.59560816
_cell_length_b   18.99787917
_cell_length_c   20.45063489
_cell_angle_alpha   90.00322378
_cell_angle_beta   90.00086263
_cell_angle_gamma   89.99919426
_symmetry_Int_Tables_number   1
_chemical_formula_structural   ZnH12C18(N3O2)2
_chemical_formula_sum   'Zn4 H48 C72 N24 O16'
_cell_volume   2173.99835356
_cell_formula_units_Z   4
loop_
 _symmetry_equiv_pos_site_id
 _symmetry_equiv_pos_as_xyz
  1  'x, y, z'
loop_
 _atom_site_type_symbol
 _atom_site_label
 _atom_site_symmetry_multiplicity
 _atom_site_fract_x
 _atom_site_fract_y
 _atom_site_fract_z
 _atom_site_occupancy
 _atom_site_pbe_bader_charge
 _atom_site_pbe_bader_spin_density
 _atom_site_pbe_cm5_charge
 _atom_site_pbe_ddec_charge
 _atom_site_pbe_ddec_spin_density
 _atom_site_pbe_ddec_sum_bond_order
 _atom_site_pbe_magmom
Zn  Zn0  1  0.13386600  0.75002141  0.50001487  1  1.258693  0  0.705721  0.767967  0  2.413006  0
Zn  Zn1  1  0.86610531  0.24997450  0.00001526  1  1.258539  0  0.70578  0.768059  0  2.413153  0
Zn  Zn2  1  0.86610779  0.25001296  0.49999730  1  1.258886  0  0.705768  0.768107  0  2.413139  0
Zn  Zn3  1  0.13388854  0.74998137  0.00000594  1  1.258899  0  0.705687  0.767853  0  2.413231  0
H  H4  1  0.94980626  0.61474554  0.55582563  1  0.15061  0  0.111932  0.117929  0  1.065164  0
H  H5  1  0.05031910  0.38527612  0.05581033  1  0.151504  0  0.111976  0.117858  0  1.065248  0
H  H6  1  0.94977338  0.88528946  0.44415567  1  0.15083  0  0.11203  0.117927  0  1.065299  0
H  H7  1  0.05030974  0.11468181  0.94416083  1  0.151362  0  0.111957  0.11777  0  1.065193  0
H  H8  1  0.05023901  0.38529935  0.44416649  1  0.150734  0  0.11205  0.117909  0  1.065372  0
H  H9  1  0.94979050  0.61470982  0.94416076  1  0.150818  0  0.112029  0.117975  0  1.065272  0
H  H10  1  0.05028618  0.11473280  0.55581005  1  0.151783  0  0.111981  0.117881  0  1.065304  0
H  H11  1  0.94973553  0.88526097  0.05583227  1  0.150748  0  0.111981  0.117988  0  1.0652  0
H  H12  1  0.72663275  0.46142582  0.41098156  1  0.099308  0  0.11558  0.12738  0  0.991255  0
H  H13  1  0.27339370  0.53858339  0.91097562  1  0.099204  0  0.115592  0.127348  0  0.991343  0
H  H14  1  0.72669982  0.03861434  0.58901424  1  0.099994  0  0.115621  0.12771  0  0.991142  0
H  H15  1  0.27334283  0.96137886  0.08902161  1  0.099534  0  0.115565  0.127512  0  0.991168  0
H  H16  1  0.27338035  0.53861328  0.58901398  1  0.099972  0  0.115565  0.127504  0  0.991104  0
H  H17  1  0.72670161  0.46139413  0.08900183  1  0.099904  0  0.115603  0.127651  0  0.991204  0
H  H18  1  0.27338655  0.96140740  0.41097347  1  0.099184  0  0.115622  0.127426  0  0.991157  0
H  H19  1  0.72668100  0.03855918  0.91097540  1  0.099433  0  0.115596  0.127519  0  0.991139  0
H  H20  1  0.61693163  0.66740513  0.54239067  1  0.256654  0  0.151561  0.139555  0  1.002835  0
H  H21  1  0.38306633  0.33260222  0.04236544  1  0.257205  0  0.151533  0.139647  0  1.002733  0
H  H22  1  0.61696881  0.83261686  0.45761721  1  0.256963  0  0.151571  0.139734  0  1.00251  0
H  H23  1  0.38304871  0.16735346  0.95762608  1  0.258888  0  0.151538  0.139795  0  1.002497  0
H  H24  1  0.38304394  0.33262608  0.45761661  1  0.258585  0  0.151596  0.139826  0  1.002535  0
H  H25  1  0.61697894  0.66738372  0.95762521  1  0.25715  0  0.151562  0.139799  0  1.002476  0
H  H26  1  0.38308719  0.16739329  0.54236464  1  0.257531  0  0.15155  0.139614  0  1.002638  0
H  H27  1  0.61694652  0.83259827  0.04238413  1  0.256708  0  0.151598  0.139705  0  1.002649  0
H  H28  1  0.48818405  0.54481613  0.37225376  1  0.133329  0  0.153699  0.126981  0  0.954871  0
H  H29  1  0.51204107  0.45521760  0.87227453  1  0.148276  0  0.153664  0.127041  0  0.954772  0
H  H30  1  0.48821445  0.95525735  0.62772165  1  0.133674  0  0.153603  0.126653  0  0.954861  0
H  H31  1  0.51189581  0.04473870  0.12772648  1  0.133336  0  0.153717  0.126729  0  0.95487  0
H  H32  1  0.51182191  0.45523561  0.62773445  1  0.133438  0  0.153566  0.126707  0  0.95494  0
H  H33  1  0.48827942  0.54476992  0.12773421  1  0.134042  0  0.153595  0.126798  0  0.954671  0
H  H34  1  0.51187372  0.04479018  0.37224065  1  0.133237  0  0.153553  0.126842  0  0.954641  0
H  H35  1  0.48820664  0.95516144  0.87224755  1  0.133068  0  0.153722  0.126986  0  0.954948  0
H  H36  1  0.19132890  0.68213246  0.75000361  1  0.08585  0  0.103656  0.111912  0  1.019388  0
H  H37  1  0.80854123  0.31792770  0.24999242  1  0.084423  0  0.103437  0.111704  0  1.019085  0
H  H38  1  0.19148085  0.81789127  0.25000786  1  0.084771  0  0.103471  0.111658  0  1.019015  0
H  H39  1  0.80838750  0.18206731  0.74999355  1  0.083243  0  0.103464  0.111608  0  1.019272  0
H  H40  1  0.60717618  0.77615918  0.64479537  1  0.10203  0  0.095191  0.098041  0  1.046382  0
H  H41  1  0.39277211  0.22390715  0.14478812  1  0.100717  0  0.095189  0.098039  0  1.046511  0
H  H42  1  0.60731439  0.72388398  0.35522077  1  0.100438  0  0.095184  0.097931  0  1.046506  0
H  H43  1  0.39252583  0.27607948  0.85523963  1  0.101197  0  0.095169  0.098019  0  1.04673  0
H  H44  1  0.39269217  0.22391046  0.35522364  1  0.100884  0  0.095184  0.097908  0  1.046649  0
H  H45  1  0.60716951  0.77611511  0.85523822  1  0.101259  0  0.09516  0.098053  0  1.04623  0
H  H46  1  0.39256468  0.27612354  0.64480362  1  0.101186  0  0.095011  0.098059  0  1.04672  0
H  H47  1  0.60730856  0.72387488  0.14478329  1  0.100391  0  0.095147  0.098011  0  1.046457  0
H  H48  1  0.40947731  0.80727044  0.75002534  1  0.068303  0  0.09846  0.099031  0  1.006145  0
H  H49  1  0.59040891  0.19275603  0.25001177  1  0.068663  0  0.09826  0.098794  0  1.00643  0
H  H50  1  0.40962640  0.69275025  0.25000197  1  0.068643  0  0.09812  0.098572  0  1.006631  0
H  H51  1  0.59024731  0.30724096  0.75003465  1  0.069227  0  0.098154  0.098663  0  1.00602  0
C  C52  1  0.81315528  0.54418620  0.48135098  1  0.302343  0  0.09492  0.160668  0  4.019574  0
C  C53  1  0.18692749  0.45583471  0.98134609  1  0.277264  0  0.094808  0.160332  0  4.019327  0
C  C54  1  0.81317257  0.95584828  0.51863644  1  0.277656  0  0.094836  0.160388  0  4.019715  0
C  C55  1  0.18689597  0.04413481  0.01864340  1  0.277473  0  0.094866  0.160375  0  4.019084  0
C  C56  1  0.18686855  0.45585080  0.51864554  1  0.277169  0  0.094989  0.160595  0  4.019255  0
C  C57  1  0.81321249  0.54415755  0.01864016  1  0.276626  0  0.094966  0.160579  0  4.019695  0
C  C58  1  0.18687807  0.04417346  0.48133759  1  0.300486  0  0.094828  0.160494  0  4.01967  0
C  C59  1  0.81315645  0.95580744  0.98134872  1  0.301815  0  0.095057  0.160948  0  4.019678  0
C  C60  1  0.96741152  0.56400185  0.53180376  1  -0.061933  0  -0.085555  -0.143974  0  3.968668  0
C  C61  1  0.03268432  0.43601712  0.03179603  1  -0.062835  0  -0.0854  -0.143408  0  3.968496  0
C  C62  1  0.96741005  0.93602822  0.46818252  1  -0.062069  0  -0.08567  -0.143739  0  3.968898  0
C  C63  1  0.03265792  0.06394576  0.96818725  1  -0.061525  0  -0.085405  -0.143195  0  3.96829  0
C  C64  1  0.03260694  0.43603568  0.46819373  1  -0.061198  0  -0.085704  -0.143859  0  3.969076  0
C  C65  1  0.96745745  0.56397935  0.96819217  1  -0.061438  0  -0.085653  -0.143921  0  3.969131  0
C  C66  1  0.03265488  0.06398983  0.53179444  1  -0.062949  0  -0.085483  -0.143662  0  3.968585  0
C  C67  1  0.96739807  0.93599702  0.03180487  1  -0.062176  0  -0.085532  -0.14399  0  3.968921  0
C  C68  1  0.84567362  0.47981809  0.44951722  1  0.0286  0  -0.084836  -0.151015  0  3.976134  0
C  C69  1  0.15438648  0.52019766  0.94951484  1  0.053603  0  -0.084856  -0.150887  0  3.975973  0
C  C70  1  0.84572601  0.02021018  0.55047776  1  0.054191  0  -0.084881  -0.151396  0  3.975886  0
C  C71  1  0.15433123  0.97977807  0.05048421  1  0.054118  0  -0.0849  -0.151193  0  3.975715  0
C  C72  1  0.15433770  0.52021523  0.55048126  1  0.053485  0  -0.084843  -0.151098  0  3.975544  0
C  C73  1  0.84573564  0.47979355  0.05047141  1  0.054393  0  -0.084958  -0.151576  0  3.976422  0
C  C74  1  0.15435321  0.97980471  0.44950800  1  0.029777  0  -0.084846  -0.15103  0  3.975896  0
C  C75  1  0.84569795  0.02016892  0.94951427  1  0.028361  0  -0.085082  -0.151632  0  3.976232  0
C  C76  1  0.53906217  0.64629797  0.49782588  1  0.961482  0  0.17707  0.117211  0  3.832243  0
C  C77  1  0.46098370  0.35371475  0.99781295  1  0.96083  0  0.177096  0.117159  0  3.832607  0
C  C78  1  0.53909112  0.85373544  0.50217669  1  0.961426  0  0.17744  0.117845  0  3.831474  0
C  C79  1  0.46094461  0.14624425  0.00218436  1  0.959478  0  0.177366  0.117333  0  3.83199  0
C  C80  1  0.46092591  0.35373534  0.50217797  1  0.959223  0  0.177403  0.117511  0  3.831732  0
C  C81  1  0.53910267  0.64626646  0.00218112  1  0.960381  0  0.177241  0.117216  0  3.831696  0
C  C82  1  0.46096308  0.14628524  0.49780076  1  0.960484  0  0.17708  0.117142  0  3.832671  0
C  C83  1  0.53906849  0.85370063  0.99782193  1  0.961014  0  0.177011  0.1171  0  3.832292  0
C  C84  1  0.47020176  0.58411045  0.41028460  1  0.985088  0  0.162147  0.082869  0  3.915265  0
C  C85  1  0.52995870  0.41590821  0.91029121  1  0.969635  0  0.162028  0.082568  0  3.914659  0
C  C86  1  0.47022030  0.91594902  0.58970146  1  0.983363  0  0.162137  0.083689  0  3.915726  0
C  C87  1  0.52985811  0.08404579  0.08970941  1  0.982952  0  0.162111  0.08345  0  3.915083  0
C  C88  1  0.52981670  0.41593129  0.58971143  1  0.98386  0  0.162282  0.083437  0  3.915313  0
C  C89  1  0.47025814  0.58406984  0.08970971  1  0.983596  0  0.162327  0.08357  0  3.915421  0
C  C90  1  0.52984463  0.08409113  0.41026719  1  0.98405  0  0.16216  0.082935  0  3.914492  0
C  C91  1  0.47021754  0.91587120  0.91027782  1  0.985518  0  0.162183  0.082913  0  3.91499  0
C  C92  1  0.91181865  0.72769940  0.69070567  1  -0.052197  0  -0.027311  -0.050857  0  3.987038  0
C  C93  1  0.08812783  0.27236064  0.19069698  1  -0.051984  0  -0.027328  -0.050705  0  3.986701  0
C  C94  1  0.91193188  0.77232447  0.30930575  1  -0.052584  0  -0.027251  -0.050771  0  3.986775  0
C  C95  1  0.08794411  0.22762949  0.80930616  1  -0.051626  0  -0.027535  -0.051065  0  3.986373  0
C  C96  1  0.08810509  0.27236287  0.30930210  1  -0.051726  0  -0.027416  -0.0509  0  3.987096  0
C  C97  1  0.91181736  0.72768320  0.80931079  1  -0.053486  0  -0.027487  -0.051207  0  3.987165  0
C  C98  1  0.08796149  0.22765253  0.69070544  1  -0.05248  0  -0.027465  -0.050864  0  3.986763  0
C  C99  1  0.91192781  0.77232382  0.19070454  1  -0.052527  0  -0.02724  -0.050714  0  3.986862  0
C  C100  1  0.02004150  0.70936859  0.75000549  1  0.070277  0  -0.076549  -0.100383  0  3.933954  0
C  C101  1  0.97986437  0.29069052  0.24999787  1  0.069222  0  -0.07657  -0.100632  0  3.933405  0
C  C102  1  0.02018350  0.79064921  0.25000603  1  0.070079  0  -0.076457  -0.100339  0  3.933322  0
C  C103  1  0.97970093  0.20930831  0.75000026  1  0.070361  0  -0.076442  -0.100492  0  3.933364  0
C  C104  1  0.69198084  0.76328412  0.69105243  1  -0.054831  0  -0.082636  -0.071415  0  3.951768  0
C  C105  1  0.30796923  0.23677857  0.19104409  1  -0.052978  0  -0.0825  -0.071339  0  3.951498  0
C  C106  1  0.69209630  0.73674596  0.30896221  1  -0.05212  0  -0.082599  -0.07122  0  3.951741  0
C  C107  1  0.30776180  0.26321903  0.80897392  1  -0.053089  0  -0.082487  -0.071573  0  3.951472  0
C  C108  1  0.30793397  0.23677815  0.30896170  1  -0.052755  0  -0.082387  -0.070931  0  3.951826  0
C  C109  1  0.69197954  0.76326685  0.80897590  1  -0.054736  0  -0.082385  -0.071046  0  3.951381  0
C  C110  1  0.30777562  0.26324419  0.69105729  1  -0.052031  0  -0.082391  -0.071751  0  3.952295  0
C  C111  1  0.69209403  0.73674270  0.19104509  1  -0.052406  0  -0.082672  -0.071508  0  3.951818  0
C  C112  1  0.58227126  0.78075070  0.75001761  1  -0.030339  0  -0.096666  -0.094278  0  4.020661  0
C  C113  1  0.41764892  0.21929315  0.25000482  1  -0.030895  0  -0.096552  -0.09412  0  4.021141  0
C  C114  1  0.58239989  0.71926643  0.25000377  1  -0.031077  0  -0.09617  -0.093594  0  4.021053  0
C  C115  1  0.41746310  0.28071425  0.75002062  1  -0.031911  0  -0.096322  -0.093236  0  4.020297  0
C  C116  1  0.03579441  0.71206017  0.62757471  1  1.508872  0  0.196736  0.565413  0  4.201034  0
C  C117  1  0.96415679  0.28798220  0.12756389  1  1.507126  0  0.196801  0.565454  0  4.201677  0
C  C118  1  0.03587311  0.78797219  0.37244033  1  1.507241  0  0.196752  0.565215  0  4.201716  0
C  C119  1  0.96402854  0.21198312  0.87243856  1  1.506796  0  0.196742  0.565364  0  4.201618  0
C  C120  1  0.96412398  0.28798946  0.37243257  1  1.506842  0  0.196692  0.565143  0  4.201735  0
C  C121  1  0.03581699  0.71203007  0.87243898  1  1.508732  0  0.196852  0.565371  0  4.201612  0
C  C122  1  0.96406314  0.21202796  0.62756401  1  1.507298  0  0.196693  0.565378  0  4.201565  0
C  C123  1  0.03587019  0.78796124  0.12756969  1  1.507412  0  0.196729  0.565219  0  4.201278  0
N  N124  1  0.35105390  0.67225493  0.46734012  1  -0.797907  0  -0.23734  -0.177545  0  3.551155  0
N  N125  1  0.64899973  0.32774795  0.96733386  1  -0.798003  0  -0.237254  -0.177381  0  3.551447  0
N  N126  1  0.35108843  0.82778591  0.53267024  1  -0.797125  0  -0.237604  -0.177814  0  3.550809  0
N  N127  1  0.64894133  0.17220467  0.03267669  1  -0.797144  0  -0.237727  -0.178047  0  3.551633  0
N  N128  1  0.64892703  0.32777733  0.53266716  1  -0.796779  0  -0.237669  -0.177988  0  3.551009  0
N  N129  1  0.35110273  0.67222062  0.03267391  1  -0.79629  0  -0.23746  -0.177555  0  3.551023  0
N  N130  1  0.64896757  0.17224214  0.46731552  1  -0.796742  0  -0.237469  -0.177506  0  3.551456  0
N  N131  1  0.35107177  0.82773758  0.96733450  1  -0.796557  0  -0.237386  -0.177624  0  3.551358  0
N  N132  1  0.30579162  0.63339219  0.41172336  1  -0.686533  0  -0.217708  -0.18231  0  3.167286  0
N  N133  1  0.69433851  0.36661548  0.91172962  1  -0.686781  0  -0.217668  -0.182261  0  3.16715  0
N  N134  1  0.30582615  0.86666496  0.58827943  1  -0.68548  0  -0.217681  -0.18272  0  3.168134  0
N  N135  1  0.69423434  0.13333505  0.08828263  1  -0.685001  0  -0.217658  -0.182429  0  3.167713  0
N  N136  1  0.69420719  0.36664428  0.58828294  1  -0.685919  0  -0.217714  -0.182533  0  3.167386  0
N  N137  1  0.30584973  0.63335152  0.08828548  1  -0.686074  0  -0.217895  -0.182876  0  3.168187  0
N  N138  1  0.69425129  0.13337309  0.41170291  1  -0.686656  0  -0.217617  -0.182432  0  3.166973  0
N  N139  1  0.30580735  0.86659089  0.91171291  1  -0.687512  0  -0.217714  -0.182306  0  3.16711  0
N  N140  1  0.62148045  0.58962774  0.46342388  1  -1.250956  0  -0.209772  -0.014643  0  3.755111  0
N  N141  1  0.37862307  0.41039391  0.96341905  1  -1.250041  0  -0.209793  -0.01456  0  3.754623  0
N  N142  1  0.62149496  0.91041525  0.53656446  1  -1.251693  0  -0.20991  -0.015372  0  3.755778  0
N  N143  1  0.37857605  0.08956709  0.03657342  1  -1.251144  0  -0.209862  -0.014896  0  3.755145  0
N  N144  1  0.37853265  0.41040926  0.53657264  1  -1.251057  0  -0.210008  -0.015025  0  3.755269  0
N  N145  1  0.62153121  0.58959467  0.03657112  1  -1.251553  0  -0.209856  -0.014889  0  3.755312  0
N  N146  1  0.37855389  0.08961122  0.46340418  1  -1.250495  0  -0.209733  -0.014521  0  3.754716  0
N  N147  1  0.62148888  0.91036253  0.96341918  1  -1.251051  0  -0.209786  -0.014675  0  3.755192  0
O  O148  1  0.92138295  0.73303987  0.57462145  1  -1.172296  0  -0.35101  -0.583008  0  2.32953  0
O  O149  1  0.07859302  0.26700582  0.07461285  1  -1.171029  0  -0.350996  -0.583041  0  2.329833  0
O  O150  1  0.92142002  0.76701494  0.42539490  1  -1.171124  0  -0.351018  -0.582979  0  2.329949  0
O  O151  1  0.07848009  0.23293862  0.92539463  1  -1.17132  0  -0.35105  -0.583042  0  2.329787  0
O  O152  1  0.07856046  0.26702924  0.42538827  1  -1.17129  0  -0.35091  -0.582886  0  2.330137  0
O  O153  1  0.92139328  0.73298591  0.92540225  1  -1.171226  0  -0.351028  -0.582958  0  2.329868  0
O  O154  1  0.07851266  0.23300048  0.57461726  1  -1.171087  0  -0.350938  -0.58305  0  2.330017  0
O  O155  1  0.92141506  0.76698994  0.07461606  1  -1.171543  0  -0.351057  -0.582924  0  2.329768  0
O  O156  1  0.23298953  0.68134452  0.62587992  1  -1.178357  0  -0.329998  -0.553417  0  2.109733  0
O  O157  1  0.76692229  0.31867672  0.12587052  1  -1.177931  0  -0.329954  -0.553411  0  2.110162  0
O  O158  1  0.23308731  0.81867821  0.37412981  1  -1.178097  0  -0.329909  -0.55327  0  2.109956  0
O  O159  1  0.76682156  0.18127876  0.87413332  1  -1.177793  0  -0.329715  -0.553056  0  2.110107  0
O  O160  1  0.76688596  0.31868143  0.37411905  1  -1.177619  0  -0.329876  -0.553218  0  2.10976  0
O  O161  1  0.23303720  0.68132923  0.87411818  1  -1.178087  0  -0.329933  -0.553309  0  2.110308  0
O  O162  1  0.76684716  0.18132774  0.62585937  1  -1.178201  0  -0.329825  -0.553208  0  2.109871  0
O  O163  1  0.23308789  0.81866402  0.12587835  1  -1.177848  0  -0.32995  -0.553375  0  2.109728  0
