# generated using pymatgen
data_CuH6C8(N2O3)2
_symmetry_space_group_name_H-M   'P 1'
_cell_length_a   6.79523710
_cell_length_b   7.60606509
_cell_length_c   12.04291751
_cell_angle_alpha   76.66298969
_cell_angle_beta   73.60362175
_cell_angle_gamma   63.43653969
_symmetry_Int_Tables_number   1
_chemical_formula_structural   CuH6C8(N2O3)2
_chemical_formula_sum   'Cu2 H12 C16 N8 O12'
_cell_volume   530.12080047
_cell_formula_units_Z   2
loop_
 _symmetry_equiv_pos_site_id
 _symmetry_equiv_pos_as_xyz
  1  'x, y, z'
loop_
 _atom_site_type_symbol
 _atom_site_label
 _atom_site_symmetry_multiplicity
 _atom_site_fract_x
 _atom_site_fract_y
 _atom_site_fract_z
 _atom_site_occupancy
 _atom_site_hle17_ddec_charge
 _atom_site_hle17_ddec_spin_density
 _atom_site_hle17_ddec_sum_bond_order
 _atom_site_hle17_magmom
 _atom_site_hse06_10hf_ddec_charge
 _atom_site_hse06_10hf_ddec_spin_density
 _atom_site_hse06_10hf_ddec_sum_bond_order
 _atom_site_hse06_10hf_magmom
 _atom_site_hse06_ddec_charge
 _atom_site_hse06_ddec_spin_density
 _atom_site_hse06_ddec_sum_bond_order
 _atom_site_hse06_magmom
 _atom_site_pbe_cm5_charge
 _atom_site_pbe_ddec_charge
 _atom_site_pbe_ddec_spin_density
 _atom_site_pbe_ddec_sum_bond_order
 _atom_site_pbe_magmom
Cu  Cu0  1  0.48019322  0.23019969  0.80958580  1  0.814549  -0.652335  1.741  -0.479  0.790717  -0.748356  2.116948  -0.592  0.886746  -0.818859  2.046423  -0.683  0.747466  0.730589  -0.696156  2.167442  -0.531
Cu  Cu1  1  0.51981329  0.76985519  0.19035786  1  0.814208  -0.652184  1.740551  -0.479  0.790356  -0.748272  2.116555  -0.592  0.886418  -0.818849  2.04604  -0.683  0.747285  0.730066  -0.696014  2.167206  -0.531
H  H2  1  0.07418305  0.23762654  0.98334129  1  0.107005  -0.00172  0.94307  -0.003  0.108729  -0.001366  1.013829  -0.002  0.111755  -0.001004  1.010517  -0.002  0.125997  0.106304  -0.00175  1.016575  -0.002
H  H3  1  0.29513016  0.76236709  0.01667811  1  0.106015  -0.001724  0.944277  -0.003  0.107391  -0.001362  1.014998  -0.002  0.11042  -0.001002  1.01168  -0.002  0.125386  0.104967  -0.001746  1.017751  -0.002
H  H4  1  0.92584982  0.76231584  0.01665004  1  0.10708  -0.001721  0.942857  -0.003  0.108863  -0.001366  1.013579  -0.002  0.111895  -0.001004  1.010252  -0.002  0.126004  0.106441  -0.001749  1.016319  -0.002
H  H5  1  0.70492032  0.23759009  0.98331681  1  0.10601  -0.001721  0.944429  -0.003  0.10741  -0.001363  1.015124  -0.002  0.110447  -0.001002  1.011797  -0.002  0.125277  0.104979  -0.001747  1.01789  -0.002
H  H6  1  0.44655866  0.24470926  0.59396231  1  0.099387  -0.000158  0.985782  0.0  0.110052  -7.5e-05  1.047901  0.0  0.11244  8.6e-05  1.045763  0.0  0.105851  0.108011  -0.000193  1.050037  0.0
H  H7  1  0.28487609  0.75549553  0.40600670  1  0.097907  -0.00016  0.986059  0.0  0.108589  -7.7e-05  1.048399  0.0  0.110967  8.5e-05  1.046259  0.0  0.105314  0.106552  -0.000193  1.050526  0.0
H  H8  1  0.55349043  0.75520940  0.40601788  1  0.099287  -0.000156  0.985902  0.0  0.110018  -7.6e-05  1.047912  0.0  0.112408  8.5e-05  1.045775  0.0  0.105834  0.10797  -0.000193  1.050051  0.0
H  H9  1  0.71517401  0.24443795  0.59397986  1  0.098059  -0.000157  0.985654  0.0  0.108707  -7.6e-05  1.048077  0.0  0.111097  8.6e-05  1.045909  0.0  0.105225  0.106605  -0.000193  1.050301  0.0
H  H10  1  0.35792257  0.24271127  0.40963941  1  0.107034  -4.6e-05  0.953615  0.0  0.111342  -7.1e-05  1.021221  0.0  0.115493  -5.6e-05  1.018069  0.0  0.104485  0.108278  -0.000105  1.023589  0.0
H  H11  1  0.00974589  0.75737019  0.59039546  1  0.106635  -5e-05  0.954056  0.0  0.111443  -7.4e-05  1.021303  0.0  0.115618  -5.7e-05  1.018155  0.0  0.104263  0.10836  -0.00011  1.023694  0.0
H  H12  1  0.64212550  0.75718076  0.59035300  1  0.106757  -4.8e-05  0.953742  0.0  0.111278  -7.1e-05  1.021185  0.0  0.115436  -5.5e-05  1.018019  0.0  0.104428  0.108208  -0.000105  1.023566  0.0
H  H13  1  0.99030973  0.24253072  0.40960150  1  0.106815  -5.1e-05  0.954159  0.0  0.111645  -7.4e-05  1.021415  0.0  0.115816  -5.7e-05  1.018277  0.0  0.104276  0.108557  -0.00011  1.02381  0.0
C  C14  1  0.03474971  0.23617652  0.90207466  1  0.124608  0.00325  3.605316  0.0  0.092172  -7.3e-05  3.869697  -0.001  0.101511  0.001816  3.879607  0.0  0.072191  0.085694  -0.001663  3.864297  -0.003
C  C15  1  0.17288359  0.76392019  0.09792240  1  0.124692  0.003306  3.607137  0.0  0.09448  -6.9e-05  3.869617  -0.001  0.103833  0.001814  3.879498  0.0  0.073602  0.087997  -0.001641  3.864251  -0.003
C  C16  1  0.96528152  0.76380138  0.09791002  1  0.124567  0.003307  3.605424  0.0  0.092045  -7e-05  3.869845  -0.001  0.101388  0.001819  3.879744  0.0  0.072199  0.085567  -0.001658  3.864438  -0.003
C  C17  1  0.82713723  0.23606661  0.90206637  1  0.12454  0.003326  3.607425  0.0  0.094215  -7.6e-05  3.869748  -0.001  0.103543  0.001811  3.879651  0.0  0.073505  0.08774  -0.001648  3.864393  -0.003
C  C18  1  0.13651589  0.23699687  0.70119146  1  0.183691  -0.004473  3.727378  -0.005  0.183361  -0.003983  3.966545  -0.004  0.188852  -0.002575  3.988431  -0.003  0.122973  0.179612  -0.005215  3.952451  -0.005
C  C19  1  0.07442909  0.76313300  0.29880304  1  0.184848  -0.004457  3.726586  -0.005  0.184177  -0.003975  3.966239  -0.004  0.189776  -0.002569  3.987998  -0.003  0.123693  0.180362  -0.005213  3.95226  -0.005
C  C20  1  0.86350449  0.76298252  0.29879711  1  0.183616  -0.004433  3.727663  -0.005  0.18334  -0.003985  3.966717  -0.004  0.18883  -0.002576  3.988606  -0.003  0.122879  0.179587  -0.005214  3.952629  -0.005
C  C21  1  0.92558740  0.23685676  0.70118693  1  0.184907  -0.004409  3.726593  -0.005  0.184251  -0.003975  3.966089  -0.004  0.189844  -0.002567  3.987848  -0.003  0.123757  0.180451  -0.005214  3.95209  -0.005
C  C22  1  0.28895043  0.24046824  0.59422527  1  -0.129904  -0.001457  3.71285  -0.002  -0.153773  -0.001041  3.962407  -0.002  -0.15946  -0.000727  3.985145  -0.001  -0.081669  -0.149911  -0.001535  3.947559  -0.002
C  C23  1  0.12327618  0.75976101  0.40576494  1  -0.126734  -0.001427  3.70994  -0.002  -0.150274  -0.001021  3.959682  -0.002  -0.155954  -0.000709  3.982402  -0.001  -0.080543  -0.146412  -0.001514  3.944855  -0.002
C  C24  1  0.71108566  0.75946525  0.40576455  1  -0.12984  -0.001512  3.712555  -0.002  -0.153653  -0.00104  3.962154  -0.002  -0.159346  -0.000729  3.984904  -0.001  -0.08155  -0.149794  -0.001534  3.947313  -0.002
C  C25  1  0.87675716  0.24020061  0.59422481  1  -0.126755  -0.001495  3.709541  -0.002  -0.150316  -0.001019  3.959266  -0.002  -0.156004  -0.000709  3.981993  -0.001  -0.08043  -0.14641  -0.001515  3.944454  -0.002
C  C26  1  0.23827962  0.24032369  0.49140714  1  -0.016932  0.001377  3.698943  0.001  -0.029861  0.000808  3.944657  0.0  -0.030261  0.000757  3.964932  0.0  -0.069005  -0.029697  0.000674  3.931298  0.0
C  C27  1  0.96962665  0.75976812  0.50859816  1  -0.019034  0.0014  3.699467  0.001  -0.032988  0.000796  3.945705  0.0  -0.033442  0.000734  3.965974  0.0  -0.069982  -0.032798  0.000691  3.932334  0.0
C  C28  1  0.76176434  0.75959202  0.50858586  1  -0.016433  0.001455  3.698469  0.001  -0.029703  0.000807  3.944306  0.0  -0.030102  0.00076  3.964582  0.0  -0.069033  -0.029539  0.000675  3.930941  0.0
C  C29  1  0.03041209  0.24016537  0.49139513  1  -0.019173  0.001488  3.699684  0.001  -0.033271  0.000794  3.945952  0.0  -0.033737  0.000735  3.966238  0.0  -0.070119  -0.033067  0.000689  3.932552  0.0
N  N30  1  0.18552822  0.23510894  0.80426566  1  -0.285528  -0.063844  3.302297  -0.082  -0.242323  -0.047549  3.591085  -0.064  -0.267988  -0.040082  3.610149  -0.059  -0.324696  -0.227935  -0.050654  3.581339  -0.065
N  N31  1  0.22464455  0.76509867  0.19574437  1  -0.285461  -0.063705  3.304254  -0.081  -0.242879  -0.047395  3.592909  -0.064  -0.268548  -0.03997  3.611923  -0.058  -0.324906  -0.228547  -0.050472  3.583304  -0.064
N  N32  1  0.81449435  0.76487193  0.19571840  1  -0.28548  -0.063835  3.302588  -0.082  -0.242235  -0.047522  3.591395  -0.064  -0.267921  -0.040063  3.610495  -0.059  -0.324542  -0.227836  -0.050619  3.581663  -0.065
N  N33  1  0.77537412  0.23489553  0.80424411  1  -0.285799  -0.063765  3.304471  -0.081  -0.242941  -0.047417  3.592739  -0.064  -0.268573  -0.039987  3.611726  -0.058  -0.324897  -0.228637  -0.050504  3.583128  -0.065
N  N34  1  0.28768746  0.63328532  0.79144866  1  0.683805  0.008772  4.116363  0.008  0.718439  0.003518  4.421693  0.004  0.751587  0.002991  4.426703  0.003  0.099254  0.695829  0.003829  4.418019  0.004
N  N35  1  0.71241557  0.36670125  0.20835113  1  0.683583  0.008798  4.116045  0.008  0.716055  0.003514  4.424493  0.004  0.748704  0.00299  4.429828  0.003  0.09937  0.69317  0.003825  4.420919  0.004
N  N36  1  0.67731744  0.82334043  0.82202411  1  0.690284  0.008186  4.119237  0.008  0.723291  0.00303  4.422225  0.003  0.757154  0.002446  4.426287  0.003  0.102114  0.699826  0.003374  4.419027  0.004
N  N37  1  0.32243031  0.17686441  0.17823355  1  0.688697  0.008171  4.120323  0.008  0.721962  0.003024  4.422869  0.003  0.755831  0.002438  4.426934  0.003  0.101841  0.698484  0.00337  4.419671  0.004
O  O38  1  0.31751826  0.48752076  0.87760332  1  -0.446933  -0.105728  1.823178  -0.143  -0.459414  -0.072124  2.093962  -0.106  -0.498543  -0.053513  2.090342  -0.085  -0.206661  -0.434104  -0.08349  2.097152  -0.116
O  O39  1  0.68251747  0.51254288  0.12224225  1  -0.446504  -0.105761  1.823122  -0.143  -0.45814  -0.072143  2.094525  -0.106  -0.497115  -0.053521  2.091021  -0.085  -0.206416  -0.432726  -0.083514  2.097771  -0.116
O  O40  1  0.18862218  0.80509431  0.81783665  1  -0.395138  -0.016464  1.750254  -0.022  -0.39521  -0.008939  1.957006  -0.013  -0.412071  -0.004022  1.954229  -0.006  -0.162013  -0.381948  -0.014662  1.958222  -0.02
O  O41  1  0.81147347  0.19492774  0.18190102  1  -0.395302  -0.016489  1.750015  -0.022  -0.394702  -0.008951  1.957793  -0.013  -0.411375  -0.004028  1.955093  -0.006  -0.16245  -0.381311  -0.014682  1.95904  -0.02
O  O42  1  0.35990753  0.59125464  0.68887800  1  -0.434657  0.004686  1.745349  0.002  -0.435893  0.004059  1.959934  0.002  -0.453699  0.004796  1.953553  0.003  -0.169053  -0.423063  0.002291  1.964153  0.001
O  O43  1  0.64026746  0.40862087  0.31094158  1  -0.434623  0.004679  1.745361  0.002  -0.435053  0.004059  1.960721  0.002  -0.45262  0.004796  1.954376  0.003  -0.16886  -0.422107  0.00229  1.96498  0.001
O  O44  1  0.64347334  0.97396675  0.73916646  1  -0.465308  -0.100127  1.881938  -0.136  -0.472552  -0.069206  2.159983  -0.102  -0.511262  -0.051392  2.157641  -0.082  -0.203623  -0.446647  -0.080413  2.161997  -0.112
O  O45  1  0.35649248  0.02600094  0.26094399  1  -0.464928  -0.100163  1.88187  -0.136  -0.472319  -0.069222  2.159903  -0.102  -0.511055  -0.05139  2.157565  -0.082  -0.203639  -0.446375  -0.080436  2.161927  -0.112
O  O46  1  0.77671679  0.65462260  0.79214188  1  -0.379273  -0.017066  1.765446  -0.023  -0.37524  -0.009446  1.969542  -0.014  -0.390511  -0.004154  1.966096  -0.007  -0.148728  -0.362369  -0.015814  1.970931  -0.021
O  O47  1  0.22299682  0.34545215  0.20831278  1  -0.378755  -0.017131  1.765729  -0.023  -0.374715  -0.009475  1.969645  -0.014  -0.390027  -0.004169  1.966265  -0.007  -0.148669  -0.361818  -0.015862  1.971036  -0.021
O  O48  1  0.60658600  0.86106692  0.92555539  1  -0.445488  0.00389  1.800673  0.001  -0.453853  0.003996  2.045524  0.002  -0.474516  0.005177  2.036721  0.003  -0.171681  -0.43899  0.001679  2.051553  0.0
O  O49  1  0.39299088  0.13949775  0.07464495  1  -0.444606  0.003882  1.801232  0.001  -0.45302  0.00399  2.0457  0.002  -0.473677  0.005174  2.036929  0.003  -0.171304  -0.438162  0.001661  2.051713  0.0
