# generated using pymatgen
data_Cd2H22C40S(N2O5)2
_symmetry_space_group_name_H-M   'P 1'
_cell_length_a   10.82863396
_cell_length_b   13.22291655
_cell_length_c   14.88769680
_cell_angle_alpha   110.52951265
_cell_angle_beta   94.97913137
_cell_angle_gamma   91.58580136
_symmetry_Int_Tables_number   1
_chemical_formula_structural   Cd2H22C40S(N2O5)2
_chemical_formula_sum   'Cd4 H44 C80 S2 N8 O20'
_cell_volume   1984.93504899
_cell_formula_units_Z   2
loop_
 _symmetry_equiv_pos_site_id
 _symmetry_equiv_pos_as_xyz
  1  'x, y, z'
loop_
 _atom_site_type_symbol
 _atom_site_label
 _atom_site_symmetry_multiplicity
 _atom_site_fract_x
 _atom_site_fract_y
 _atom_site_fract_z
 _atom_site_occupancy
 _atom_site_pbe_bader_charge
 _atom_site_pbe_bader_spin_density
 _atom_site_pbe_cm5_charge
 _atom_site_pbe_ddec_charge
 _atom_site_pbe_ddec_spin_density
 _atom_site_pbe_ddec_sum_bond_order
 _atom_site_pbe_magmom
Cd  Cd0  1  0.07813184  0.99268983  0.61097533  1  1.305233  0  0.786793  0.937993  0  2.157298  0
Cd  Cd1  1  0.92186756  0.00730820  0.38902318  1  1.305235  0  0.786779  0.937996  0  2.157297  0
Cd  Cd2  1  0.08250548  0.04510173  0.89401903  1  1.309135  0  0.785482  0.942571  0  2.172692  0
Cd  Cd3  1  0.91749410  0.95489874  0.10598159  1  1.309153  0  0.785477  0.942553  0  2.172697  0
H  H4  1  0.82588596  0.30849107  0.90040127  1  0.108377  0  0.106519  0.108401  0  1.009583  0
H  H5  1  0.17411357  0.69150859  0.09959776  1  0.108328  0  0.106528  0.108412  0  1.009554  0
H  H6  1  0.67964686  0.44199655  0.87179692  1  0.085702  0  0.108162  0.115935  0  0.995491  0
H  H7  1  0.32035267  0.55800311  0.12820211  1  0.085692  0  0.108145  0.115938  0  0.995507  0
H  H8  1  0.78276676  0.35181602  0.58154211  1  0.109082  0  0.108457  0.113011  0  1.017368  0
H  H9  1  0.21723357  0.64818202  0.41845646  1  0.109087  0  0.10844  0.112991  0  1.017399  0
H  H10  1  0.83742601  0.71057111  0.54906992  1  0.146745  0  0.112682  0.129325  0  1.007593  0
H  H11  1  0.16257276  0.28943098  0.45093115  1  0.146733  0  0.112685  0.129327  0  1.007559  0
H  H12  1  0.70242849  0.55026498  0.54510010  1  0.108342  0  0.113416  0.121806  0  0.990803  0
H  H13  1  0.29757295  0.44973549  0.45490065  1  0.108314  0  0.113419  0.121808  0  0.990829  0
H  H14  1  0.74731552  0.66970457  0.85659251  1  0.136953  0  0.110831  0.120041  0  1.003359  0
H  H15  1  0.25268592  0.33029590  0.14340823  1  0.136789  0  0.110839  0.120075  0  1.003323  0
H  H16  1  0.18152736  0.21747119  0.59329064  1  0.14419  0  0.118522  0.096257  0  1.022284  0
H  H17  1  0.81847205  0.78252685  0.40670787  1  0.144162  0  0.118522  0.096278  0  1.022241  0
H  H18  1  0.38398001  0.31787964  0.59641638  1  0.089761  0  0.108154  0.122508  0  1.008152  0
H  H19  1  0.61601963  0.68212165  0.40358651  1  0.08976  0  0.10817  0.122512  0  1.008182  0
H  H20  1  0.58168599  0.22983047  0.60979122  1  0.121106  0  0.101707  0.10088  0  1.035115  0
H  H21  1  0.41831456  0.77017081  0.39021241  1  0.121097  0  0.1017  0.100859  0  1.035132  0
H  H22  1  0.69058126  0.06924858  0.62358144  1  0.131531  0  0.107655  0.122697  0  0.995325  0
H  H23  1  0.30941913  0.93075027  0.37641739  1  0.131539  0  0.107656  0.122702  0  0.995353  0
H  H24  1  0.67851239  0.88820795  0.63269348  1  0.125181  0  0.102911  0.111126  0  1.042734  0
H  H25  1  0.32148708  0.11179090  0.36730596  1  0.124995  0  0.10291  0.11114  0  1.042692  0
H  H26  1  0.54854021  0.72822566  0.63516553  1  0.09844  0  0.104646  0.105064  0  1.021523  0
H  H27  1  0.45145926  0.27177319  0.36483324  1  0.098435  0  0.104656  0.105047  0  1.021538  0
H  H28  1  0.33797411  0.64296174  0.63200627  1  0.08353  0  0.112123  0.119891  0  0.982376  0
H  H29  1  0.66202541  0.35703792  0.36799410  1  0.083504  0  0.112121  0.119892  0  0.982375  0
H  H30  1  0.15043388  0.74826715  0.62226665  1  0.125585  0  0.120134  0.0988  0  0.984216  0
H  H31  1  0.84956570  0.25173333  0.37773397  1  0.125631  0  0.12013  0.098787  0  0.984229  0
H  H32  1  0.23699779  0.25227316  0.86295726  1  0.116632  0  0.121268  0.099477  0  0.976444  0
H  H33  1  0.76300081  0.74772650  0.13704171  1  0.116509  0  0.121273  0.099487  0  0.976442  0
H  H34  1  0.45371124  0.31142619  0.84654328  1  0.077311  0  0.108759  0.116208  0  0.996684  0
H  H35  1  0.54628736  0.68857347  0.15345703  1  0.077299  0  0.108808  0.116288  0  0.996673  0
H  H36  1  0.62434715  0.18552721  0.84469906  1  0.105338  0  0.109012  0.109555  0  1.007903  0
H  H37  1  0.37565237  0.81447245  0.15530064  1  0.105323  0  0.109017  0.109559  0  1.007862  0
H  H38  1  0.69127074  0.01151116  0.85796313  1  0.121913  0  0.110972  0.13126  0  0.995233  0
H  H39  1  0.30872890  0.98849012  0.14203707  1  0.121918  0  0.110958  0.131199  0  0.99528  0
H  H40  1  0.63520158  0.83803690  0.87668356  1  0.078508  0  0.101689  0.104993  0  1.037547  0
H  H41  1  0.36480089  0.16196519  0.12331977  1  0.078553  0  0.101695  0.10497  0  1.037581  0
H  H42  1  0.47641291  0.70856188  0.89450648  1  0.083547  0  0.10982  0.121068  0  0.995994  0
H  H43  1  0.52358667  0.29143859  0.10549482  1  0.083561  0  0.10982  0.121061  0  0.995998  0
H  H44  1  0.25822834  0.67459430  0.92696914  1  0.076334  0  0.112892  0.117963  0  0.978758  0
H  H45  1  0.74177113  0.32540454  0.07302895  1  0.076339  0  0.112879  0.117936  0  0.978755  0
H  H46  1  0.10682406  0.81684732  0.93984057  1  0.156056  0  0.11897  0.09602  0  1.016735  0
H  H47  1  0.89317442  0.18315072  0.06015788  1  0.156067  0  0.118986  0.095993  0  1.016774  0
C  C48  1  0.93978613  0.20528556  0.58143381  1  1.632547  0  0.201217  0.576792  0  4.240804  0
C  C49  1  0.06021433  0.79471409  0.41856460  1  1.632542  0  0.201157  0.576691  0  4.240867  0
C  C50  1  0.87207385  0.26790558  0.66714021  1  -0.023527  0  0.002527  -0.01301  0  3.874293  0
C  C51  1  0.12792654  0.73209327  0.33285929  1  -0.023522  0  0.002494  -0.013149  0  3.874399  0
C  C52  1  0.96987387  0.18031361  0.78267692  1  1.591019  0  0.203871  0.578078  0  4.221611  0
C  C53  1  0.03012559  0.81968523  0.21732185  1  1.590871  0  0.20383  0.578024  0  4.221649  0
C  C54  1  0.88253558  0.25568830  0.75786876  1  0.001127  0  -0.001394  -0.026711  0  3.885093  0
C  C55  1  0.11746394  0.74431136  0.24213026  1  0.001101  0  -0.001312  -0.026555  0  3.885026  0
C  C56  1  0.81381014  0.31893895  0.83078343  1  -0.041377  0  -0.081045  -0.091785  0  3.980258  0
C  C57  1  0.18618857  0.68106233  0.16921738  1  -0.041333  0  -0.081078  -0.091841  0  3.980257  0
C  C58  1  0.73332582  0.39284224  0.81542188  1  0.014685  0  -0.087148  -0.101987  0  4.005639  0
C  C59  1  0.26667371  0.60715742  0.18457714  1  0.014691  0  -0.087116  -0.102001  0  4.005629  0
C  C60  1  0.72183711  0.40248703  0.72460716  1  -0.289587  0  -0.022487  -0.080109  0  4.009822  0
C  C61  1  0.27816335  0.59751262  0.27539192  1  -0.289578  0  -0.022466  -0.080041  0  4.009791  0
C  C62  1  0.79117900  0.34227709  0.65160327  1  0.023709  0  -0.078215  -0.116208  0  3.954743  0
C  C63  1  0.20882047  0.65772176  0.34839550  1  0.023736  0  -0.078195  -0.116147  0  3.954779  0
C  C64  1  0.88096432  0.85107785  0.88973403  1  1.578765  0  0.201153  0.566909  0  4.238377  0
C  C65  1  0.11903440  0.14892343  0.11026611  1  1.578761  0  0.201125  0.566909  0  4.238361  0
C  C66  1  0.83805001  0.76852610  0.79132040  1  -0.023639  0  -0.005205  -0.037352  0  3.904281  0
C  C67  1  0.16194969  0.23147599  0.20868140  1  -0.023659  0  -0.005169  -0.037293  0  3.904256  0
C  C68  1  0.93946100  0.87276634  0.69700621  1  1.610094  0  0.202038  0.571881  0  4.223464  0
C  C69  1  0.06053778  0.12723574  0.30299418  1  1.610089  0  0.202101  0.571878  0  4.223328  0
C  C70  1  0.86089461  0.78056087  0.70371483  1  -0.048935  0  0.006853  -0.008127  0  3.876112  0
C  C71  1  0.13910416  0.21944121  0.29628624  1  -0.048957  0  0.006847  -0.008121  0  3.876084  0
C  C72  1  0.81450617  0.70071775  0.61554313  1  -0.034029  0  -0.075128  -0.093493  0  3.923098  0
C  C73  1  0.18549352  0.29928433  0.38445800  1  -0.034002  0  -0.075131  -0.093464  0  3.923098  0
C  C74  1  0.74179924  0.61109127  0.61310502  1  -0.00194  0  -0.075608  -0.081645  0  3.975749  0
C  C75  1  0.25820226  0.38891001  0.38689598  1  -0.001962  0  -0.075618  -0.081655  0  3.975788  0
C  C76  1  0.71613584  0.60220904  0.70058766  1  -0.231361  0  -0.025108  -0.090201  0  4.017688  0
C  C77  1  0.28386566  0.39779224  0.29941333  1  -0.231379  0  -0.025098  -0.090209  0  4.017658  0
C  C78  1  0.76566941  0.67816287  0.78866612  1  -0.024712  0  -0.076576  -0.108797  0  3.971478  0
C  C79  1  0.23433208  0.32183841  0.21133488  1  -0.024477  0  -0.076616  -0.108891  0  3.971464  0
C  C80  1  0.27004753  0.18218496  0.60021433  1  0.490734  0  0.062579  0.121658  0  3.906353  0
C  C81  1  0.72995182  0.81781227  0.39978325  1  0.490715  0  0.062617  0.121702  0  3.90637  0
C  C82  1  0.38298983  0.23786136  0.60177381  1  0.052475  0  -0.084049  -0.129425  0  3.971479  0
C  C83  1  0.61701062  0.76213830  0.39822595  1  0.052458  0  -0.08407  -0.12947  0  3.971521  0
C  C84  1  0.49269358  0.18913678  0.60931066  1  -0.162974  0  -0.06733  -0.074623  0  3.941638  0
C  C85  1  0.50730594  0.81086288  0.39068903  1  -0.162898  0  -0.06734  -0.074606  0  3.94164  0
C  C86  1  0.49003934  0.08512112  0.61544411  1  0.015992  0  -0.00396  0.035088  0  4.02608  0
C  C87  1  0.50996013  0.91487773  0.38455533  1  0.01595  0  -0.003941  0.035129  0  4.026083  0
C  C88  1  0.60031611  0.03003991  0.62299457  1  -0.110534  0  -0.082927  -0.113628  0  3.956151  0
C  C89  1  0.39968428  0.96995894  0.37700493  1  -0.110593  0  -0.082945  -0.113705  0  3.956234  0
C  C90  1  0.59343969  0.92904315  0.62810335  1  0.007557  0  -0.083907  -0.115061  0  3.978046  0
C  C91  1  0.40656070  0.07095570  0.37189548  1  0.00781  0  -0.083879  -0.115032  0  3.978057  0
C  C92  1  0.47596221  0.87553913  0.62610966  1  0.004135  0  -0.003115  0.03703  0  4.011352  0
C  C93  1  0.52403732  0.12446053  0.37389003  1  0.003957  0  -0.003138  0.037035  0  4.011383  0
C  C94  1  0.46488454  0.77078432  0.63051354  1  -0.04959  0  -0.060542  -0.054935  0  3.9111  0
C  C95  1  0.53511499  0.22921534  0.36948616  1  -0.049475  0  -0.060528  -0.05489  0  3.911101  0
C  C96  1  0.34873013  0.72369134  0.62860316  1  -0.030865  0  -0.083495  -0.131968  0  3.97894  0
C  C97  1  0.65126940  0.27630831  0.37139654  1  -0.030831  0  -0.083519  -0.132015  0  3.978946  0
C  C98  1  0.24351544  0.78201644  0.62294868  1  0.52983  0  0.057647  0.119994  0  3.933098  0
C  C99  1  0.75648409  0.21798322  0.37705102  1  0.529787  0  0.057652  0.120036  0  3.933103  0
C  C100  1  0.36422684  0.92777568  0.61932451  1  0.46901  0  0.115533  0.118657  0  3.972228  0
C  C101  1  0.63577264  0.07222316  0.38067358  1  0.469027  0  0.115587  0.118695  0  3.972165  0
C  C102  1  0.37144169  0.03474910  0.61341586  1  0.502761  0  0.118063  0.119864  0  3.973522  0
C  C103  1  0.62855865  0.96524893  0.38658137  1  0.502763  0  0.118027  0.119851  0  3.973526  0
C  C104  1  0.31433104  0.20196370  0.86535161  1  0.509149  0  0.059342  0.121752  0  3.937979  0
C  C105  1  0.68566848  0.79803596  0.13464809  1  0.509104  0  0.05932  0.121739  0  3.937995  0
C  C106  1  0.43569878  0.23412614  0.85536068  1  0.016805  0  -0.086676  -0.13931  0  3.994458  0
C  C107  1  0.56430075  0.76587352  0.14463969  1  0.01681  0  -0.086702  -0.139396  0  3.994519  0
C  C108  1  0.52931270  0.16485716  0.85418037  1  -0.086474  0  -0.062247  -0.070541  0  3.945558  0
C  C109  1  0.47068688  0.83514331  0.14581958  1  -0.086469  0  -0.062252  -0.070522  0  3.94551  0
C  C110  1  0.50215603  0.06485734  0.86473590  1  0.00959  0  -0.002588  0.037339  0  4.013586  0
C  C111  1  0.49784356  0.93514313  0.13526472  1  0.009584  0  -0.002578  0.037354  0  4.013558  0
C  C112  1  0.59542089  0.99051760  0.86531994  1  -0.02805  0  -0.082151  -0.114338  0  3.964994  0
C  C113  1  0.40457955  0.00948206  0.13468048  1  -0.028057  0  -0.082158  -0.114279  0  3.965071  0
C  C114  1  0.56479185  0.89489504  0.87596677  1  -0.034456  0  -0.086227  -0.117709  0  3.980113  0
C  C115  1  0.43520872  0.10510625  0.12403551  1  -0.039957  0  -0.086204  -0.117713  0  3.980249  0
C  C116  1  0.44056203  0.86663392  0.88804391  1  0.040366  0  -0.002575  0.040311  0  4.019425  0
C  C117  1  0.55943847  0.13336655  0.11195878  1  0.045825  0  -0.002556  0.040356  0  4.01954  0
C  C118  1  0.40720339  0.76823984  0.89959592  1  -0.030337  0  -0.06279  -0.074228  0  3.929487  0
C  C119  1  0.59279705  0.23175983  0.10040585  1  -0.030338  0  -0.062782  -0.074231  0  3.929434  0
C  C120  1  0.28707069  0.74924744  0.91702546  1  -0.049812  0  -0.080897  -0.127646  0  3.981927  0
C  C121  1  0.71292883  0.25075222  0.08297423  1  -0.049924  0  -0.080902  -0.127628  0  3.981781  0
C  C122  1  0.20084921  0.82827431  0.92268130  1  0.507763  0  0.062136  0.119787  0  3.910402  0
C  C123  1  0.79915026  0.17172454  0.07731814  1  0.507904  0  0.062153  0.119837  0  3.910389  0
C  C124  1  0.34597180  0.93980783  0.89050295  1  0.499395  0  0.120055  0.124758  0  3.96235  0
C  C125  1  0.65402870  0.06019264  0.10949907  1  0.499396  0  0.120026  0.124793  0  3.962334  0
C  C126  1  0.37704008  0.04005402  0.87624641  1  0.466981  0  0.118585  0.124224  0  3.96362  0
C  C127  1  0.62296032  0.95994482  0.12375242  1  0.466981  0  0.118589  0.124205  0  3.963565  0
S  S128  1  0.61687606  0.49339989  0.70096892  1  2.478977  0  0.467837  0.96233  0  5.769798  0
S  S129  1  0.38312538  0.50660058  0.29903047  1  2.478991  0  0.467818  0.962253  0  5.769973  0
N  N130  1  0.26493865  0.08393255  0.60605928  1  -1.200049  0  -0.318427  -0.255204  0  3.480517  0
N  N131  1  0.73505983  0.91606549  0.39393917  1  -1.200021  0  -0.318449  -0.255239  0  3.480657  0
N  N132  1  0.25112983  0.88075072  0.61834198  1  -1.232406  0  -0.316857  -0.27187  0  3.472883  0
N  N133  1  0.74887063  0.11924894  0.38165710  1  -1.232397  0  -0.316889  -0.27194  0  3.472918  0
N  N134  1  0.28608381  0.10804453  0.87522019  1  -1.234671  0  -0.31739  -0.275681  0  3.488539  0
N  N135  1  0.71391670  0.89195593  0.12478049  1  -1.234514  0  -0.317412  -0.27571  0  3.488521  0
N  N136  1  0.22907066  0.91971341  0.90828518  1  -1.201868  0  -0.313465  -0.255337  0  3.486523  0
N  N137  1  0.77092886  0.08028626  0.09171586  1  -1.201869  0  -0.31348  -0.25537  0  3.486524  0
O  O138  1  0.99143138  0.25876293  0.53935092  1  -1.169017  0  -0.322211  -0.545946  0  2.118124  0
O  O139  1  0.00856901  0.74123592  0.46064858  1  -1.168982  0  -0.322195  -0.545896  0  2.118039  0
O  O140  1  0.92984038  0.10071079  0.55481786  1  -1.180363  0  -0.345926  -0.596407  0  2.349298  0
O  O141  1  0.07015909  0.89928806  0.44518158  1  -1.180378  0  -0.345914  -0.596374  0  2.349382  0
O  O142  1  0.06744487  0.15904112  0.73982707  1  -1.190568  0  -0.33555  -0.596681  0  2.325061  0
O  O143  1  0.93255367  0.84095773  0.26017231  1  -1.190417  0  -0.335538  -0.596672  0  2.325091  0
O  O144  1  0.94033584  0.14629906  0.84852716  1  -1.133676  0  -0.321658  -0.528047  0  2.234833  0
O  O145  1  0.05966468  0.85370141  0.15147285  1  -1.133683  0  -0.321658  -0.528029  0  2.234816  0
O  O146  1  0.89556683  0.94989611  0.89957798  1  -1.174882  0  -0.329198  -0.569729  0  2.300793  0
O  O147  1  0.10443287  0.05010598  0.10042315  1  -1.17484  0  -0.329225  -0.569792  0  2.300853  0
O  O148  1  0.89457328  0.81421361  0.95832828  1  -1.150441  0  -0.331852  -0.557818  0  2.234001  0
O  O149  1  0.10542451  0.18578767  0.04167247  1  -1.150463  0  -0.331793  -0.557752  0  2.234001  0
O  O150  1  0.04688036  0.89584464  0.74340344  1  -1.189485  0  -0.33443  -0.599059  0  2.340314  0
O  O151  1  0.95311836  0.10415664  0.25659670  1  -1.189514  0  -0.334444  -0.599064  0  2.34022  0
O  O152  1  0.89729981  0.91615370  0.63774622  1  -1.127452  0  -0.308817  -0.511979  0  2.216479  0
O  O153  1  0.10269891  0.08384758  0.36225392  1  -1.127398  0  -0.308863  -0.511977  0  2.216527  0
O  O154  1  0.55477629  0.44253733  0.60406394  1  -1.30276  0  -0.313797  -0.522932  0  2.167108  0
O  O155  1  0.44522347  0.55746557  0.39593610  1  -1.302761  0  -0.31381  -0.522928  0  2.167156  0
O  O156  1  0.54390371  0.53257818  0.78258469  1  -1.308174  0  -0.32803  -0.539764  0  2.141221  0
O  O157  1  0.45609773  0.46742229  0.21741537  1  -1.308212  0  -0.328004  -0.539713  0  2.141324  0
