# generated using pymatgen
data_MnH6C6(NO)4
_symmetry_space_group_name_H-M   'P 1'
_cell_length_a   6.59156476
_cell_length_b   7.73428651
_cell_length_c   9.12804434
_cell_angle_alpha   98.67492930
_cell_angle_beta   94.82226191
_cell_angle_gamma   109.66322287
_symmetry_Int_Tables_number   1
_chemical_formula_structural   MnH6C6(NO)4
_chemical_formula_sum   'Mn2 H12 C12 N8 O8'
_cell_volume   428.64049548
_cell_formula_units_Z   2
loop_
 _symmetry_equiv_pos_site_id
 _symmetry_equiv_pos_as_xyz
  1  'x, y, z'
loop_
 _atom_site_type_symbol
 _atom_site_label
 _atom_site_symmetry_multiplicity
 _atom_site_fract_x
 _atom_site_fract_y
 _atom_site_fract_z
 _atom_site_occupancy
 _atom_site_pbe_cm5_charge
 _atom_site_pbe_ddec_charge
 _atom_site_pbe_ddec_spin_density
 _atom_site_pbe_ddec_sum_bond_order
 _atom_site_pbe_magmom
Mn  Mn0  1  0.99999407  0.49999866  0.50000422  1  0.637639  0.9804  4.514466  2.482958  4.331
Mn  Mn1  1  0.99999663  0.99999855  0.50000045  1  0.627508  1.061852  -4.578029  2.352386  -4.411
H  H2  1  0.30355739  0.69290205  0.93188324  1  0.112385  0.12191  -0.00025  1.028821  0.0
H  H3  1  0.69644163  0.30709626  0.06811462  1  0.112396  0.121911  -0.00025  1.02884  0.0
H  H4  1  0.36766987  0.78140016  0.21270337  1  0.128506  0.11863  -0.000132  1.041677  0.0
H  H5  1  0.63232247  0.21859672  0.78729495  1  0.128528  0.118648  -0.000132  1.041641  0.0
H  H6  1  0.20705304  0.22817839  0.25928597  1  0.135203  0.11942  0.000378  1.048362  0.0
H  H7  1  0.79293642  0.77182265  0.74071382  1  0.13523  0.119403  0.000379  1.048304  0.0
H  H8  1  0.13525350  0.11647632  0.97680347  1  0.117585  0.128432  0.0001  0.998597  0.0
H  H9  1  0.86474393  0.88352192  0.02319865  1  0.117591  0.128442  0.0001  0.998617  0.0
H  H10  1  0.45529935  0.26257510  0.52810461  1  0.300173  0.390749  -0.002205  0.94159  -0.003
H  H11  1  0.54470502  0.73742882  0.47189436  1  0.300173  0.390757  -0.002205  0.941569  -0.003
H  H12  1  0.39549079  0.10058536  0.38531595  1  0.302377  0.367789  -0.000749  0.97521  -0.002
H  H13  1  0.60450721  0.89941428  0.61468640  1  0.302348  0.36773  -0.00075  0.975269  -0.002
C  C14  1  0.20317379  0.39532433  0.93217204  1  -0.010404  -0.034356  0.014479  3.987536  0.011
C  C15  1  0.79683552  0.60467681  0.06782688  1  -0.01037  -0.034263  0.014482  3.987578  0.011
C  C16  1  0.27673192  0.58472242  0.99947291  1  -0.07315  -0.113999  -0.002971  3.980673  -0.003
C  C17  1  0.72327222  0.41527727  0.00052766  1  -0.073138  -0.113943  -0.002971  3.980579  -0.003
C  C18  1  0.31371869  0.63694110  0.15369967  1  0.040231  -0.039749  0.012427  3.841114  0.009
C  C19  1  0.68627994  0.36305999  0.84629963  1  0.040214  -0.039782  0.012429  3.841084  0.009
C  C20  1  0.22222694  0.32037881  0.17916928  1  0.046606  -0.027117  0.010961  3.834211  0.008
C  C21  1  0.77777051  0.67961944  0.82083175  1  0.0466  -0.027083  0.010964  3.834097  0.008
C  C22  1  0.18263278  0.26408492  0.02555268  1  -0.068585  -0.10543  -0.000967  3.960093  -0.002
C  C23  1  0.81736980  0.73591474  0.97444997  1  -0.068601  -0.105501  -0.000968  3.960102  -0.002
C  C24  1  0.13818320  0.33330782  0.76615975  1  0.221632  0.581372  0.005464  4.19336  0.003
C  C25  1  0.86182160  0.66669335  0.23383559  1  0.221611  0.581278  0.005464  4.193402  0.003
N  N26  1  0.28064762  0.50505657  0.24136823  1  -0.108328  0.327976  0.004741  3.914081  0.005
N  N27  1  0.71934889  0.49494310  0.75863184  1  -0.10834  0.327981  0.004743  3.914081  0.005
N  N28  1  0.88982382  0.20479749  0.39776545  1  -0.287752  -0.557647  -0.000432  3.142435  -0.002
N  N29  1  0.11017325  0.79520356  0.60223593  1  -0.287748  -0.557587  -0.000436  3.142485  -0.002
N  N30  1  0.72422029  0.13923370  0.31066073  1  0.095924  0.43353  9.7e-05  4.469878  0.0
N  N31  1  0.27577972  0.86076325  0.68933482  1  0.095934  0.433478  9.7e-05  4.470153  0.0
N  N32  1  0.56012618  0.07562083  0.22780027  1  -0.191662  -0.394822  0.00309  2.666485  0.003
N  N33  1  0.43987943  0.92437480  0.77219109  1  -0.191688  -0.394838  0.003089  2.666734  0.003
O  O34  1  0.17344067  0.46049786  0.68761847  1  -0.308098  -0.545483  0.033639  2.336349  0.016
O  O35  1  0.82656878  0.53950742  0.31238431  1  -0.308097  -0.545429  0.033636  2.336332  0.016
O  O36  1  0.04825557  0.15776845  0.71721790  1  -0.307767  -0.55464  -0.027821  2.305434  -0.009
O  O37  1  0.95174782  0.84223684  0.28278228  1  -0.307763  -0.554639  -0.027818  2.305362  -0.009
O  O38  1  0.30291344  0.55600779  0.38922679  1  -0.211642  -0.476565  0.02601  2.086256  0.011
O  O39  1  0.69708462  0.44399190  0.61077229  1  -0.21168  -0.476617  0.026017  2.086284  0.011
O  O40  1  0.33778157  0.14527256  0.47386368  1  -0.565794  -0.761111  -0.044079  2.165616  -0.027
O  O41  1  0.66222254  0.85472712  0.52613799  1  -0.565786  -0.761089  -0.044087  2.165682  -0.027
