# generated using pymatgen
data_Ag4Mo3H8C12(NO)10
_symmetry_space_group_name_H-M   'P 1'
_cell_length_a   7.48359574
_cell_length_b   12.00584718
_cell_length_c   13.16019411
_cell_angle_alpha   79.32396277
_cell_angle_beta   77.93739662
_cell_angle_gamma   87.75377982
_symmetry_Int_Tables_number   1
_chemical_formula_structural   Ag4Mo3H8C12(NO)10
_chemical_formula_sum   'Ag8 Mo6 H16 C24 N20 O20'
_cell_volume   1136.27990776
_cell_formula_units_Z   2
loop_
 _symmetry_equiv_pos_site_id
 _symmetry_equiv_pos_as_xyz
  1  'x, y, z'
loop_
 _atom_site_type_symbol
 _atom_site_label
 _atom_site_symmetry_multiplicity
 _atom_site_fract_x
 _atom_site_fract_y
 _atom_site_fract_z
 _atom_site_occupancy
 _atom_site_hle17_bader_spin_density
 _atom_site_hle17_ddec_charge
 _atom_site_hle17_ddec_spin_density
 _atom_site_hle17_ddec_sum_bond_order
 _atom_site_hle17_magmom
 _atom_site_hse06_10hf_bader_spin_density
 _atom_site_hse06_10hf_ddec_charge
 _atom_site_hse06_10hf_ddec_spin_density
 _atom_site_hse06_10hf_ddec_sum_bond_order
 _atom_site_hse06_10hf_magmom
 _atom_site_hse06_bader_spin_density
 _atom_site_hse06_ddec_charge
 _atom_site_hse06_ddec_spin_density
 _atom_site_hse06_ddec_sum_bond_order
 _atom_site_hse06_magmom
 _atom_site_pbe_bader_spin_density
 _atom_site_pbe_cm5_charge
 _atom_site_pbe_ddec_charge
 _atom_site_pbe_ddec_spin_density
 _atom_site_pbe_ddec_sum_bond_order
 _atom_site_pbe_magmom
Ag  Ag0  1  0.54711177  0.15414335  0.34499729  1  0  0.520178  0  1.533402  0  0  0.379753  0  1.998148  0  0  0.40017  0  1.958293  0  0  0.5153  0.366871  0  2.025006  0
Ag  Ag1  1  0.45288878  0.84585658  0.65500474  1  0  0.520184  0  1.53343  0  0  0.37977  0  1.998179  0  0  0.400188  0  1.958325  0  0  0.515297  0.366882  0  2.025031  0
Ag  Ag2  1  0.78202726  0.46541682  0.39776765  1  0  0.591962  0  1.438253  0  0  0.462317  0  1.907398  0  0  0.491866  0  1.853155  0  0  0.474751  0.441912  0  1.945076  0
Ag  Ag3  1  0.21796918  0.53458310  0.60223336  1  0  0.59196  0  1.438253  0  0  0.462322  0  1.907384  0  0  0.491857  0  1.853162  0  0  0.474757  0.441908  0  1.945075  0
Ag  Ag4  1  0.87099919  0.38668167  0.65611195  1  0  0.579579  0  1.564244  0  0  0.460667  0  2.045631  0  0  0.484664  0  1.993522  0  0  0.489433  0.444563  0  2.081481  0
Ag  Ag5  1  0.12899997  0.61331910  0.34388859  1  0  0.579567  0  1.564229  0  0  0.460662  0  2.0456  0  0  0.484652  0  1.993508  0  0  0.489437  0.444565  0  2.081455  0
Ag  Ag6  1  0.80606734  0.67839425  0.80783676  1  0  0.66114  0  1.211805  0  0  0.516922  0  1.646535  0  0  0.550088  0  1.59747  0  0  0.46463  0.493582  0  1.680409  0
Ag  Ag7  1  0.19393456  0.32160568  0.19216434  1  0  0.661149  0  1.21179  0  0  0.516935  0  1.646516  0  0  0.550101  0  1.597448  0  0  0.464654  0.493602  0  1.680405  0
Mo  Mo8  1  0.70990933  0.37761480  0.13722233  1  0  2.178979  0  4.112926  0  0  2.176349  0  4.63598  0  0  2.278255  0  4.600201  0  0  1.469821  2.102942  0  4.66524  0
Mo  Mo9  1  0.29009121  0.62238258  0.86277785  1  0  2.178925  0  4.112864  0  0  2.176291  0  4.635919  0  0  2.278207  0  4.600127  0  0  1.469809  2.102881  0  4.665164  0
Mo  Mo10  1  0.97388748  0.61165577  0.08278027  1  0  2.275381  0  4.021949  0  0  2.27376  0  4.534155  0  0  2.37518  0  4.501965  0  0  1.529854  2.199284  0  4.562949  0
Mo  Mo11  1  0.02611170  0.38834246  0.91722070  1  0  2.275391  0  4.021783  0  0  2.273794  0  4.533973  0  0  2.375213  0  4.501787  0  0  1.529884  2.199319  0  4.562752  0
Mo  Mo12  1  0.52279511  0.38340337  0.92873024  1  0  2.26069  0  4.029836  0  0  2.265073  0  4.537773  0  0  2.364141  0  4.506196  0  0  1.525336  2.191779  0  4.566909  0
Mo  Mo13  1  0.47720543  0.61659486  0.07126904  1  0  2.260623  0  4.029814  0  0  2.26502  0  4.537745  0  0  2.364086  0  4.506166  0  0  1.525336  2.191719  0  4.56689  0
H  H14  1  0.84323294  0.90616110  0.62962500  1  0  0.077441  0  0.969853  0  0  0.077378  0  1.052248  0  0  0.08109  0  1.047598  0  0  0.108521  0.074673  0  1.05567  0
H  H15  1  0.15677032  0.09383883  0.37037366  1  0  0.077443  0  0.969824  0  0  0.07739  0  1.052206  0  0  0.081099  0  1.047558  0  0  0.1085  0.074686  0  1.055628  0
H  H16  1  0.85927392  0.85282639  0.94798916  1  0  0.094574  0  0.993073  0  0  0.102567  0  1.057597  0  0  0.105408  0  1.05427  0  0  0.112884  0.100426  0  1.060174  0
H  H17  1  0.14072660  0.14717438  0.05200969  1  0  0.09458  0  0.993038  0  0  0.102571  0  1.057567  0  0  0.105412  0  1.054241  0  0  0.112883  0.100429  0  1.060144  0
H  H18  1  0.89837066  0.06014329  0.94225744  1  0  0.118639  0  0.941977  0  0  0.131318  0  0.993806  0  0  0.134055  0  0.993552  0  0  0.113529  0.129379  0  0.994125  0
H  H19  1  0.10162848  0.93985748  0.05774082  1  0  0.118619  0  0.941963  0  0  0.131308  0  0.993785  0  0  0.134046  0  0.99353  0  0  0.113527  0.129368  0  0.994103  0
H  H20  1  0.89889362  0.19444576  0.77418411  1  0  0.087967  0  0.973209  0  0  0.095128  0  1.050156  0  0  0.098921  0  1.045161  0  0  0.098293  0.092263  0  1.053833  0
H  H21  1  0.10110690  0.80555502  0.22581474  1  0  0.087954  0  0.973227  0  0  0.095112  0  1.050173  0  0  0.098902  0  1.045182  0  0  0.098299  0.092249  0  1.05385  0
H  H22  1  0.31849252  0.06426985  0.53267556  1  0  0.070557  0  1.005495  0  0  0.066577  0  1.099704  0  0  0.071317  0  1.093118  0  0  0.105366  0.063075  0  1.104418  0
H  H23  1  0.68150937  0.93573263  0.46732587  1  0  0.070571  0  1.005446  0  0  0.066543  0  1.099679  0  0  0.07132  0  1.093067  0  0  0.105365  0.063042  0  1.104401  0
H  H24  1  0.42207049  0.98527993  0.83420944  1  0  0.09635  0  0.91205  0  0  0.110619  0  0.963311  0  0  0.112742  0  0.961688  0  0  0.124448  0.108992  0  0.964632  0
H  H25  1  0.57793279  0.01471830  0.16579178  1  0  0.096395  0  0.912066  0  0  0.11066  0  0.963323  0  0  0.112782  0  0.961701  0  0  0.124468  0.109036  0  0.964644  0
H  H26  1  0.41819178  0.18898718  0.85101748  1  0  0.11448  0  0.996564  0  0  0.12273  0  1.058657  0  0  0.125408  0  1.05817  0  0  0.108164  0.120807  0  1.059138  0
H  H27  1  0.58180466  0.81101359  0.14898491  1  0  0.114479  0  0.99649  0  0  0.122689  0  1.058628  0  0  0.125362  0  1.058141  0  0  0.108166  0.120766  0  1.059107  0
H  H28  1  0.37602677  0.33789867  0.69705627  1  0  0.104476  0  0.951206  0  0  0.114538  0  1.018416  0  0  0.117909  0  1.014193  0  0  0.105317  0.111922  0  1.021741  0
H  H29  1  0.62396831  0.66210125  0.30294642  1  0  0.104429  0  0.951259  0  0  0.114516  0  1.018461  0  0  0.117881  0  1.014238  0  0  0.105306  0.111901  0  1.021777  0
C  C30  1  0.84683116  0.13416993  0.58994158  1  0  0.277082  0  3.796612  0  0  0.256414  0  4.056603  0  0  0.265968  0  4.076818  0  0  0.214759  0.250185  0  4.0427  0
C  C31  1  0.15317074  0.86583084  0.41005862  1  0  0.276957  0  3.796496  0  0  0.25628  0  4.056525  0  0  0.265832  0  4.076744  0  0  0.21469  0.250048  0  4.042628  0
C  C32  1  0.86618912  0.06066618  0.68859342  1  0  -0.048913  0  3.792029  0  0  -0.025954  0  4.020745  0  0  -0.032878  0  4.045601  0  0  -0.004095  -0.021898  0  4.00448  0
C  C33  1  0.13381004  0.93933459  0.31140635  1  0  -0.048834  0  3.79192  0  0  -0.025922  0  4.020705  0  0  -0.032832  0  4.045535  0  0  -0.004066  -0.02186  0  4.004446  0
C  C34  1  0.85353479  0.94257226  0.69796380  1  0  0.09662  0  3.693389  0  0  0.054114  0  3.957691  0  0  0.062075  0  3.973309  0  0  0.04586  0.048742  0  3.947393  0
C  C35  1  0.14646299  0.05742935  0.30203600  1  0  0.096611  0  3.693373  0  0  0.054114  0  3.957689  0  0  0.062072  0  3.973313  0  0  0.045878  0.04874  0  3.9474  0
C  C36  1  0.86446923  0.91326487  0.87503720  1  0  0.137451  0  3.667677  0  0  0.106975  0  3.910639  0  0  0.114053  0  3.929297  0  0  0.047032  0.102412  0  3.897873  0
C  C37  1  0.13552992  0.08673675  0.12496319  1  0  0.13737  0  3.667685  0  0  0.106903  0  3.910655  0  0  0.113982  0  3.929314  0  0  0.047012  0.102347  0  3.897888  0
C  C38  1  0.88512153  0.02866958  0.87176726  1  0  -0.108667  0  3.71552  0  0  -0.115639  0  3.955345  0  0  -0.123608  0  3.978447  0  0  -0.07928  -0.110514  0  3.939611  0
C  C39  1  0.11488035  0.97133204  0.12823128  1  0  -0.108601  0  3.715481  0  0  -0.115586  0  3.955309  0  0  -0.123553  0  3.978406  0  0  -0.079256  -0.110464  0  3.939574  0
C  C40  1  0.88579621  0.10354919  0.77768143  1  0  -0.021029  0  3.689382  0  0  -0.04732  0  3.934003  0  0  -0.044681  0  3.953859  0  0  -0.062042  -0.048457  0  3.920276  0
C  C41  1  0.11420568  0.89645074  0.22231740  1  0  -0.020997  0  3.689389  0  0  -0.047268  0  3.934014  0  0  -0.044631  0  3.95387  0  0  -0.062036  -0.048406  0  3.920286  0
C  C42  1  0.31156780  0.29245945  0.50815381  1  0  0.290487  0  3.782852  0  0  0.261232  0  4.043868  0  0  0.273679  0  4.062  0  0  0.219389  0.252925  0  4.031758  0
C  C43  1  0.68843137  0.70754048  0.49184687  1  0  0.290589  0  3.782825  0  0  0.261285  0  4.043895  0  0  0.273737  0  4.062028  0  0  0.21942  0.252976  0  4.03179  0
C  C44  1  0.34569633  0.21372886  0.60087837  1  0  -0.050293  0  3.78449  0  0  -0.025861  0  4.013368  0  0  -0.033737  0  4.03854  0  0  -0.005399  -0.021045  0  3.996724  0
C  C45  1  0.65430285  0.78627107  0.39912383  1  0  -0.050339  0  3.784526  0  0  -0.025911  0  4.013435  0  0  -0.033805  0  4.038638  0  0  -0.005425  -0.021097  0  3.996796  0
C  C46  1  0.34645558  0.09701467  0.59979759  1  0  0.092735  0  3.678802  0  0  0.051063  0  3.932867  0  0  0.058957  0  3.947617  0  0  0.042545  0.045911  0  3.923185  0
C  C47  1  0.65354632  0.90298611  0.40020337  1  0  0.09271  0  3.678788  0  0  0.0511  0  3.932843  0  0  0.058963  0  3.947583  0  0  0.042566  0.045951  0  3.923161  0
C  C48  1  0.40016653  0.05236737  0.76969340  1  0  0.128985  0  3.670645  0  0  0.097167  0  3.91622  0  0  0.104378  0  3.934864  0  0  0.051701  0.092515  0  3.903504  0
C  C49  1  0.59983811  0.94763257  0.23030737  1  0  0.12885  0  3.670669  0  0  0.097023  0  3.916234  0  0  0.104234  0  3.934878  0  0  0.051678  0.092369  0  3.90352  0
C  C50  1  0.39755938  0.16612045  0.77813688  1  0  -0.097329  0  3.707526  0  0  -0.108066  0  3.955429  0  0  -0.115849  0  3.978384  0  0  -0.078934  -0.103142  0  3.940032  0
C  C51  1  0.60243706  0.83388032  0.22186550  1  0  -0.09728  0  3.707405  0  0  -0.107959  0  3.955304  0  0  -0.115732  0  3.978248  0  0  -0.078921  -0.103033  0  3.939904  0
C  C52  1  0.37276680  0.24829507  0.69250766  1  0  -0.018444  0  3.651605  0  0  -0.046739  0  3.898987  0  0  -0.042928  0  3.916524  0  0  -0.061387  -0.048901  0  3.887107  0
C  C53  1  0.62723511  0.75170571  0.30749406  1  0  -0.018448  0  3.651601  0  0  -0.046773  0  3.898963  0  0  -0.042958  0  3.916513  0  0  -0.061432  -0.048931  0  3.887086  0
N  N54  1  0.85566208  0.24862132  0.56924428  1  0  -0.31526  0  3.22015  0  0  -0.255548  0  3.522648  0  0  -0.2727  0  3.539754  0  0  -0.253861  -0.24391  0  3.510703  0
N  N55  1  0.14433707  0.75137860  0.43075488  1  0  -0.315187  0  3.220116  0  0  -0.25546  0  3.522613  0  0  -0.272613  0  3.539717  0  0  -0.253836  -0.243825  0  3.510672  0
N  N56  1  0.81577045  0.28006877  0.47266334  1  0  -0.118676  0  3.208263  0  0  -0.075389  0  3.523766  0  0  -0.083285  0  3.538876  0  0  -0.134019  -0.069876  0  3.513427  0
N  N57  1  0.18423008  0.71993116  0.52733641  1  0  -0.118728  0  3.208256  0  0  -0.075444  0  3.523761  0  0  -0.083339  0  3.538868  0  0  -0.134053  -0.069931  0  3.513417  0
N  N58  1  0.78495197  0.18827130  0.43658983  1  0  -0.082971  0  3.126487  0  0  -0.048081  0  3.433815  0  0  -0.050517  0  3.446449  0  0  -0.11128  -0.046321  0  3.425229  0
N  N59  1  0.21504992  0.81172863  0.56340975  1  0  -0.082966  0  3.126533  0  0  -0.048075  0  3.433855  0  0  -0.05051  0  3.446487  0  0  -0.111256  -0.046312  0  3.42526  0
N  N60  1  0.80371301  0.09590531  0.50803718  1  0  -0.298755  0  2.951899  0  0  -0.267879  0  3.227891  0  0  -0.280311  0  3.243576  0  0  -0.21314  -0.259368  0  3.217141  0
N  N61  1  0.19629027  0.90409292  0.49196329  1  0  -0.298735  0  2.951943  0  0  -0.267865  0  3.227984  0  0  -0.280297  0  3.24366  0  0  -0.213145  -0.259355  0  3.217229  0
N  N62  1  0.85119680  0.87026167  0.78917101  1  0  -0.319014  0  3.281362  0  0  -0.240454  0  3.574061  0  0  -0.260671  0  3.589497  0  0  -0.327725  -0.226527  0  3.563105  0
N  N63  1  0.14880373  0.12973826  0.21082950  1  0  -0.318968  0  3.281405  0  0  -0.240411  0  3.574102  0  0  -0.260632  0  3.589542  0  0  -0.327689  -0.226486  0  3.563153  0
N  N64  1  0.24388286  0.39850874  0.50540449  1  0  -0.339909  0  3.24885  0  0  -0.277141  0  3.562348  0  0  -0.294715  0  3.572938  0  0  -0.24786  -0.265408  0  3.55524  0
N  N65  1  0.75611084  0.60149117  0.49459685  1  0  -0.339904  0  3.248788  0  0  -0.277118  0  3.562304  0  0  -0.294692  0  3.572893  0  0  -0.247822  -0.265388  0  3.555202  0
N  N66  1  0.21476493  0.43278537  0.40646788  1  0  -0.088899  0  3.21633  0  0  -0.047089  0  3.527178  0  0  -0.051104  0  3.538102  0  0  -0.120081  -0.044465  0  3.520031  0
N  N67  1  0.78523288  0.56721370  0.59353234  1  0  -0.088899  0  3.216318  0  0  -0.047093  0  3.527166  0  0  -0.051108  0  3.53809  0  0  -0.120096  -0.044468  0  3.520015  0
N  N68  1  0.26520321  0.35274577  0.35083721  1  0  -0.052134  0  3.133739  0  0  -0.01683  0  3.441326  0  0  -0.020655  0  3.452991  0  0  -0.097693  -0.014177  0  3.433663  0
N  N69  1  0.73479596  0.64725415  0.64916347  1  0  -0.052158  0  3.133731  0  0  -0.016841  0  3.441304  0  0  -0.020667  0  3.452968  0  0  -0.097693  -0.014185  0  3.433631  0
N  N70  1  0.32874512  0.26415795  0.41181247  1  0  -0.291893  0  3.190393  0  0  -0.228433  0  3.487197  0  0  -0.244724  0  3.500864  0  0  -0.243922  -0.217753  0  3.478037  0
N  N71  1  0.67125541  0.73584282  0.58818790  1  0  -0.291897  0  3.190397  0  0  -0.228427  0  3.487215  0  0  -0.244717  0  3.50088  0  0  -0.243925  -0.217747  0  3.478052  0
N  N72  1  0.37678896  0.01859295  0.68125775  1  0  -0.283873  0  3.325896  0  0  -0.201684  0  3.607944  0  0  -0.219389  0  3.624183  0  0  -0.344493  -0.189786  0  3.596651  0
N  N73  1  0.62321430  0.98140698  0.31874167  1  0  -0.283813  0  3.325865  0  0  -0.201606  0  3.607866  0  0  -0.21931  0  3.624116  0  0  -0.344479  -0.189707  0  3.596581  0
O  O74  1  0.94964622  0.75530146  0.06710952  1  0  -0.654677  0  1.478991  0  0  -0.642672  0  1.721165  0  0  -0.66745  0  1.713688  0  0  -0.488913  -0.625197  0  1.727402  0
O  O75  1  0.05035294  0.24469676  0.93288917  1  0  -0.654662  0  1.478917  0  0  -0.642684  0  1.7211  0  0  -0.667468  0  1.713629  0  0  -0.488919  -0.625213  0  1.727347  0
O  O76  1  0.47224058  0.24445319  0.98428749  1  0  -0.661486  0  1.431151  0  0  -0.657396  0  1.668826  0  0  -0.681587  0  1.66004  0  0  -0.500897  -0.64014  0  1.676004  0
O  O77  1  0.52776132  0.75554504  0.01571162  1  0  -0.661465  0  1.431106  0  0  -0.65737  0  1.668784  0  0  -0.681554  0  1.659993  0  0  -0.500904  -0.64011  0  1.675958  0
O  O78  1  0.67507999  0.40875555  0.26417611  1  0  -0.752829  0  1.6496  0  0  -0.731547  0  1.967059  0  0  -0.763112  0  1.952029  0  0  -0.549253  -0.709334  0  1.977953  0
O  O79  1  0.32491917  0.59124437  0.73582380  1  0  -0.752823  0  1.649622  0  0  -0.73152  0  1.967062  0  0  -0.763086  0  1.95203  0  0  -0.549253  -0.709306  0  1.977948  0
O  O80  1  0.60682443  0.38104270  0.79646314  1  0  -0.708084  0  1.580009  0  0  -0.694631  0  1.876974  0  0  -0.722414  0  1.863635  0  0  -0.523075  -0.67504  0  1.88726  0
O  O81  1  0.39317746  0.61895723  0.20353644  1  0  -0.708067  0  1.580003  0  0  -0.69465  0  1.877011  0  0  -0.722428  0  1.86367  0  0  -0.523067  -0.675061  0  1.887306  0
O  O82  1  0.69667113  0.23183955  0.15592575  1  0  -0.702882  0  1.510281  0  0  -0.689142  0  1.789594  0  0  -0.714971  0  1.775288  0  0  -0.524965  -0.671102  0  1.800111  0
O  O83  1  0.30333214  0.76815784  0.84407334  1  0  -0.702826  0  1.510227  0  0  -0.6891  0  1.789564  0  0  -0.714928  0  1.775257  0  0  -0.524939  -0.671059  0  1.800072  0
O  O84  1  0.72975148  0.57259008  0.07820596  1  0  -1.004194  0  1.985222  0  0  -0.994259  0  2.293595  0  0  -1.040798  0  2.29041  0  0  -0.623625  -0.959002  0  2.295238  0
O  O85  1  0.27024905  0.42740899  0.92179393  1  0  -1.004237  0  1.985284  0  0  -0.994299  0  2.293659  0  0  -1.040841  0  2.290477  0  0  -0.62362  -0.959047  0  2.295306  0
O  O86  1  0.97339236  0.57154610  0.21805885  1  0  -0.788394  0  1.694043  0  0  -0.762299  0  2.023805  0  0  -0.793259  0  2.005021  0  0  -0.544621  -0.740353  0  2.037463  0
O  O87  1  0.02659997  0.42845466  0.78194175  1  0  -0.788352  0  1.693922  0  0  -0.762288  0  2.023733  0  0  -0.79325  0  2.004953  0  0  -0.544648  -0.74034  0  2.037389  0
O  O88  1  0.03091022  0.59200823  0.91561068  1  0  -1.012727  0  1.776548  0  0  -0.985148  0  2.084958  0  0  -1.027874  0  2.07287  0  0  -0.594763  -0.953483  0  2.092858  0
O  O89  1  0.96908759  0.40798915  0.08439059  1  0  -1.012732  0  1.776582  0  0  -0.985153  0  2.084983  0  0  -1.027875  0  2.072886  0  0  -0.594766  -0.953494  0  2.092893  0
O  O90  1  0.76271159  0.39754773  0.96099754  1  0  -1.011509  0  2.024482  0  0  -1.0002  0  2.33332  0  0  -1.047212  0  2.331344  0  0  -0.631412  -0.964501  0  2.333867  0
O  O91  1  0.23728620  0.60245303  0.03900240  1  0  -1.011441  0  2.024379  0  0  -1.000131  0  2.333218  0  0  -1.047188  0  2.33135  0  0  -0.63142  -0.964433  0  2.333771  0
O  O92  1  0.51923490  0.57468160  0.90607141  1  0  -1.022966  0  1.812963  0  0  -0.997311  0  2.121985  0  0  -1.03992  0  2.109436  0  0  -0.600245  -0.965502  0  2.130065  0
O  O93  1  0.48076562  0.42531917  0.09392820  1  0  -1.022948  0  1.813  0  0  -0.997287  0  2.122011  0  0  -1.03989  0  2.109447  0  0  -0.600224  -0.96548  0  2.1301  0
