# generated using pymatgen
data_MnH6C2(N5Cl)2
_symmetry_space_group_name_H-M   'P 1'
_cell_length_a   3.63058969
_cell_length_b   7.96620517
_cell_length_c   16.15221214
_cell_angle_alpha   89.99998208
_cell_angle_beta   89.99996686
_cell_angle_gamma   95.04124740
_symmetry_Int_Tables_number   1
_chemical_formula_structural   MnH6C2(N5Cl)2
_chemical_formula_sum   'Mn2 H12 C4 N20 Cl4'
_cell_volume   465.34754514
_cell_formula_units_Z   2
loop_
 _symmetry_equiv_pos_site_id
 _symmetry_equiv_pos_as_xyz
  1  'x, y, z'
loop_
 _atom_site_type_symbol
 _atom_site_label
 _atom_site_symmetry_multiplicity
 _atom_site_fract_x
 _atom_site_fract_y
 _atom_site_fract_z
 _atom_site_occupancy
 _atom_site_hle17_ddec_charge
 _atom_site_hle17_ddec_spin_density
 _atom_site_hle17_ddec_sum_bond_order
 _atom_site_hle17_magmom
 _atom_site_hse06_10hf_ddec_charge
 _atom_site_hse06_10hf_ddec_spin_density
 _atom_site_hse06_10hf_ddec_sum_bond_order
 _atom_site_hse06_10hf_magmom
 _atom_site_hse06_ddec_charge
 _atom_site_hse06_ddec_spin_density
 _atom_site_hse06_ddec_sum_bond_order
 _atom_site_hse06_magmom
 _atom_site_pbe_cm5_charge
 _atom_site_pbe_ddec_charge
 _atom_site_pbe_ddec_spin_density
 _atom_site_pbe_ddec_sum_bond_order
 _atom_site_pbe_magmom
Mn  Mn0  1  0.49999876  0.49999870  0.50000017  1  0.904733  4.775643  2.062601  4.646  0.757771  4.7023  2.551604  4.51  0.813798  4.746355  2.496641  4.575  0.410838  0.712415  4.660605  2.592654  4.449
Mn  Mn1  1  0.00000298  0.00000127  1.00000000  1  0.904754  4.775643  2.062567  4.646  0.757784  4.702299  2.551588  4.51  0.813813  4.746354  2.496627  4.575  0.410851  0.712432  4.660604  2.592635  4.449
H  H2  1  0.65821459  0.14009330  0.22111208  1  0.300439  -5.8e-05  0.939997  0.0  0.26073  2.2e-05  1.036142  0.0  0.270695  -5.3e-05  1.02779  0.0  0.317717  0.253629  0.000104  1.042146  0.0
H  H3  1  0.84178554  0.35990625  0.72111291  1  0.300548  -5.7e-05  0.939946  0.0  0.260816  2.2e-05  1.03609  0.0  0.270779  -5.4e-05  1.027738  0.0  0.317743  0.253712  0.000104  1.042093  0.0
H  H4  1  0.34178889  0.85990662  0.77888703  1  0.300558  -5.8e-05  0.939908  0.0  0.260806  2.2e-05  1.036082  0.0  0.27077  -5.3e-05  1.027731  0.0  0.317744  0.253701  0.000104  1.042089  0.0
H  H5  1  0.15821451  0.64008989  0.27888929  1  0.30037  -5.8e-05  0.939885  0.0  0.260653  2.2e-05  1.036034  0.0  0.270619  -5.3e-05  1.027684  0.0  0.317685  0.253548  0.000104  1.042033  0.0
H  H6  1  0.77129059  0.12420985  0.45333785  1  0.337952  -0.000504  0.914688  0.0  0.321429  -0.000204  0.97699  0.0  0.329189  -0.000365  0.970357  0.0  0.286249  0.315826  -3e-05  0.981854  0.0
H  H7  1  0.72870909  0.37579079  0.95333869  1  0.338027  -0.000503  0.914594  0.0  0.321491  -0.000204  0.976908  0.0  0.329252  -0.000365  0.970277  0.0  0.286267  0.315887  -3e-05  0.98177  0.0
H  H8  1  0.22870738  0.87579006  0.54666064  1  0.337964  -0.000502  0.914653  0.0  0.321443  -0.000204  0.976951  0.0  0.329204  -0.000365  0.970316  0.0  0.28623  0.315839  -3e-05  0.981806  0.0
H  H9  1  0.27128889  0.62420912  0.04666475  1  0.337944  -0.000501  0.914874  0.0  0.321423  -0.000204  0.977149  0.0  0.329182  -0.000365  0.970519  0.0  0.286286  0.315817  -3e-05  0.982012  0.0
H  H10  1  0.79872220  0.99514514  0.36502232  1  0.332178  7.7e-05  0.927911  0.0  0.301418  0.000396  1.017611  0.0  0.309449  0.000247  1.010144  0.0  0.295417  0.295625  0.000551  1.023068  0.0
H  H11  1  0.70127815  0.50485609  0.86502199  1  0.332142  7.7e-05  0.927921  0.0  0.30137  0.000396  1.017633  0.0  0.309402  0.000247  1.010167  0.0  0.295388  0.295578  0.000551  1.02309  0.0
H  H12  1  0.20127578  0.00485477  0.63497679  1  0.33213  8e-05  0.92794  0.0  0.301354  0.000396  1.017661  0.0  0.309386  0.000247  1.010196  0.0  0.295385  0.295562  0.000551  1.023115  0.0
H  H13  1  0.29872534  0.49514383  0.13497836  1  0.332069  7.9e-05  0.927972  0.0  0.301292  0.000396  1.017721  0.0  0.309323  0.000247  1.010257  0.0  0.295339  0.295498  0.000551  1.023177  0.0
C  C14  1  0.59179438  0.22258925  0.34794733  1  0.585277  0.002001  3.794582  0.003  0.527668  0.003319  4.078962  0.004  0.551969  0.00269  4.088835  0.003  0.350668  0.51122  0.003964  4.071838  0.005
C  C15  1  0.90820079  0.27741524  0.84795127  1  0.585498  0.002006  3.794483  0.003  0.527798  0.00332  4.078946  0.004  0.552107  0.00269  4.088802  0.003  0.350757  0.511374  0.003964  4.071783  0.005
C  C16  1  0.40820107  0.77741192  0.65205054  1  0.585358  0.002004  3.794674  0.003  0.527681  0.00332  4.0791  0.004  0.551987  0.002692  4.08896  0.003  0.35062  0.511225  0.003965  4.071975  0.005
C  C17  1  0.09179052  0.72259348  0.15205775  1  0.58531  0.001997  3.794529  0.003  0.527695  0.003319  4.078914  0.004  0.551997  0.00269  4.08878  0.003  0.350642  0.511275  0.003964  4.071738  0.005
N  N18  1  0.47749428  0.36991239  0.37582029  1  -0.394697  0.024439  3.069071  0.013  -0.340695  0.027376  3.368247  0.012  -0.364418  0.024567  3.381137  0.01  -0.231481  -0.323714  0.029933  3.358923  0.014
N  N19  1  0.02250635  0.13008730  0.87581996  1  -0.394741  0.024442  3.069024  0.013  -0.340705  0.027377  3.368214  0.012  -0.364432  0.02457  3.381111  0.01  -0.231494  -0.323732  0.029934  3.358887  0.014
N  N20  1  0.52250346  0.63008627  0.62417944  1  -0.394693  0.024437  3.069051  0.013  -0.340674  0.027377  3.36823  0.012  -0.3644  0.024565  3.381123  0.01  -0.231423  -0.323685  0.029933  3.358902  0.014
N  N21  1  0.97749713  0.86991262  0.12417915  1  -0.394619  0.024433  3.06898  0.013  -0.340659  0.027376  3.368188  0.012  -0.36438  0.024567  3.381077  0.01  -0.231427  -0.323681  0.029933  3.35885  0.014
N  N22  1  0.38801851  0.45638594  0.30755472  1  -0.052019  -0.000782  3.091886  0.0  -0.04005  0.000719  3.393373  0.002  -0.037097  3e-06  3.404177  0.001  -0.07425  -0.041828  0.001394  3.385828  0.002
N  N23  1  0.11197934  0.04361253  0.80755501  1  -0.052035  -0.000784  3.091715  0.0  -0.040061  0.000718  3.393199  0.002  -0.037107  1e-06  3.404004  0.001  -0.074216  -0.041841  0.001393  3.385662  0.002
N  N24  1  0.61197900  0.54361145  0.69244439  1  -0.051933  -0.000821  3.091489  0.0  -0.039961  0.00072  3.392963  0.002  -0.037003  -1e-06  3.403764  0.001  -0.074196  -0.041748  0.001393  3.385432  0.002
N  N25  1  0.88802392  0.95638614  0.19244658  1  -0.052074  -0.000828  3.091811  0.0  -0.040075  0.000722  3.393295  0.002  -0.03712  -3e-06  3.404096  0.001  -0.074218  -0.041871  0.001395  3.385776  0.002
N  N26  1  0.44047377  0.37313215  0.24061219  1  -0.052869  0.003068  2.961172  0.003  -0.0517  0.004559  3.254871  0.005  -0.04847  0.003734  3.263255  0.004  -0.082736  -0.053783  0.005537  3.249468  0.005
N  N27  1  0.05952451  0.12686763  0.74061185  1  -0.052788  0.003063  2.96111  0.003  -0.051638  0.004557  3.254803  0.005  -0.048409  0.00374  3.263187  0.004  -0.082746  -0.053717  0.005537  3.249395  0.005
N  N28  1  0.55952421  0.62686776  0.75938878  1  -0.052957  0.003108  2.960931  0.003  -0.051807  0.004557  3.254619  0.005  -0.048581  0.00374  3.263004  0.004  -0.082794  -0.053886  0.005538  3.249217  0.005
N  N29  1  0.94047622  0.87313229  0.25938787  1  -0.052855  0.003111  2.961218  0.003  -0.051711  0.004557  3.254923  0.005  -0.048481  0.003738  3.263306  0.004  -0.082728  -0.053791  0.005537  3.249522  0.005
N  N30  1  0.56817210  0.22619265  0.26398918  1  -0.304744  -8.7e-05  3.36717  0.0  -0.244056  0.000434  3.623798  0.0  -0.26208  8.1e-05  3.634566  0.0  -0.262469  -0.232167  0.000763  3.616883  0.0
N  N31  1  0.93182537  0.27380812  0.76398692  1  -0.305148  -9.1e-05  3.367121  0.0  -0.244393  0.000436  3.62381  0.0  -0.262419  7.3e-05  3.634577  0.0  -0.262596  -0.232506  0.000764  3.616882  0.0
N  N32  1  0.43182610  0.77380852  0.73601117  1  -0.304975  -9.2e-05  3.367031  0.0  -0.244209  0.000434  3.623693  0.0  -0.262232  8.3e-05  3.634461  0.0  -0.26254  -0.232314  0.000764  3.616774  0.0
N  N33  1  0.06816846  0.72619934  0.23600662  1  -0.304737  -8.2e-05  3.367414  0.0  -0.244024  0.000432  3.624037  0.0  -0.262047  8.6e-05  3.63481  0.0  -0.262521  -0.232137  0.000763  3.617095  0.0
N  N34  1  0.69345214  0.09502946  0.39374045  1  -0.678022  0.000883  3.09934  0.001  -0.642207  0.002266  3.341338  0.002  -0.662714  0.001539  3.336066  0.002  -0.572966  -0.627901  0.003049  3.345033  0.003
N  N35  1  0.80655276  0.40496871  0.89373694  1  -0.678023  0.000885  3.099507  0.001  -0.642155  0.002266  3.341525  0.002  -0.662662  0.00154  3.336255  0.002  -0.572929  -0.627858  0.003049  3.345206  0.003
N  N36  1  0.30654836  0.90496919  0.60626176  1  -0.677974  0.000876  3.099428  0.001  -0.642125  0.002266  3.341416  0.002  -0.662633  0.00154  3.336148  0.002  -0.57289  -0.627821  0.003049  3.345102  0.003
N  N37  1  0.19345876  0.59502997  0.10625536  1  -0.677969  0.000876  3.099169  0.001  -0.64214  0.002266  3.341162  0.002  -0.662649  0.001539  3.335891  0.002  -0.572928  -0.627845  0.003048  3.344841  0.003
Cl  Cl38  1  0.96227049  0.30399636  0.55273783  1  -0.52584  0.083149  1.087303  0.054  -0.471397  0.109964  1.391497  0.064  -0.493399  0.094379  1.366825  0.053  -0.231566  -0.453085  0.124432  1.409145  0.075
Cl  Cl39  1  0.53772737  0.19600330  0.05273824  1  -0.525856  0.083147  1.087285  0.054  -0.471404  0.109962  1.391487  0.064  -0.493408  0.094378  1.366816  0.053  -0.231569  -0.45309  0.124429  1.409136  0.075
Cl  Cl40  1  0.03772725  0.69600229  0.44726128  1  -0.525841  0.083144  1.087306  0.054  -0.471395  0.10996  1.391488  0.064  -0.493398  0.094375  1.366814  0.053  -0.231572  -0.45309  0.12443  1.409141  0.075
Cl  Cl41  1  0.46227358  0.80399787  0.94726149  1  -0.525842  0.083149  1.087293  0.054  -0.471378  0.109962  1.391447  0.064  -0.493382  0.094377  1.366777  0.053  -0.231571  -0.453075  0.124433  1.409109  0.075
