# generated using pymatgen
data_FeH16C14(SN7)2
_symmetry_space_group_name_H-M   'P 1'
_cell_length_a   8.79139967
_cell_length_b   9.13672410
_cell_length_c   12.37545348
_cell_angle_alpha   90.41427247
_cell_angle_beta   89.99402562
_cell_angle_gamma   89.98953822
_symmetry_Int_Tables_number   1
_chemical_formula_structural   FeH16C14(SN7)2
_chemical_formula_sum   'Fe2 H32 C28 S4 N28'
_cell_volume   994.02726064
_cell_formula_units_Z   2
loop_
 _symmetry_equiv_pos_site_id
 _symmetry_equiv_pos_as_xyz
  1  'x, y, z'
loop_
 _atom_site_type_symbol
 _atom_site_label
 _atom_site_symmetry_multiplicity
 _atom_site_fract_x
 _atom_site_fract_y
 _atom_site_fract_z
 _atom_site_occupancy
 _atom_site_hle17_bader_spin_density
 _atom_site_hle17_ddec_charge
 _atom_site_hle17_ddec_spin_density
 _atom_site_hle17_ddec_sum_bond_order
 _atom_site_hle17_magmom
 _atom_site_hse06_10hf_bader_spin_density
 _atom_site_hse06_10hf_ddec_charge
 _atom_site_hse06_10hf_ddec_spin_density
 _atom_site_hse06_10hf_ddec_sum_bond_order
 _atom_site_hse06_10hf_magmom
 _atom_site_hse06_bader_spin_density
 _atom_site_hse06_ddec_charge
 _atom_site_hse06_ddec_spin_density
 _atom_site_hse06_ddec_sum_bond_order
 _atom_site_hse06_magmom
 _atom_site_pbe_bader_spin_density
 _atom_site_pbe_cm5_charge
 _atom_site_pbe_ddec_charge
 _atom_site_pbe_ddec_spin_density
 _atom_site_pbe_ddec_sum_bond_order
 _atom_site_pbe_magmom
Fe  Fe0  1  0.49490510  0.48207961  0.50634460  1  0  0.536654  0  3.08283  0  0  0.485929  0  3.59039  0  0  0.538902  0  3.526119  0  0  0.746693  0.45683  0  3.628623  0
Fe  Fe1  1  0.00508060  0.98188047  0.00638478  1  0  0.536708  0  3.08298  0  0  0.485859  0  3.590599  0  0  0.53881  0  3.52633  0  0  0.746901  0.456795  0  3.628894  0
H  H2  1  0.03433331  0.29104468  0.57233433  1  0  0.105783  0  0.977919  0  0  0.106082  0  1.058377  0  0  0.109227  0  1.054743  0  0  0.132465  0.103882  0  1.060706  0
H  H3  1  0.52046626  0.21569695  0.92366733  1  0  0.108401  0  0.972221  0  0  0.107173  0  1.05436  0  0  0.110498  0  1.050545  0  0  0.132115  0.104918  0  1.056391  0
H  H4  1  0.97930753  0.71561556  0.42367331  1  0  0.108258  0  0.972647  0  0  0.107121  0  1.054539  0  0  0.110526  0  1.050653  0  0  0.132103  0.104811  0  1.056614  0
H  H5  1  0.46549750  0.79125599  0.07249169  1  0  0.106071  0  0.978205  0  0  0.106198  0  1.058796  0  0  0.109276  0  1.05517  0  0  0.132536  0.104038  0  1.061124  0
H  H6  1  0.75130881  0.65187388  0.64543843  1  0  0.108697  0  0.945562  0  0  0.114712  0  1.015092  0  0  0.117467  0  1.011144  0  0  0.137251  0.112232  0  1.018539  0
H  H7  1  0.26604149  0.83343052  0.85706781  1  0  0.105201  0  0.961179  0  0  0.11127  0  1.030714  0  0  0.114041  0  1.026897  0  0  0.132482  0.108741  0  1.03401  0
H  H8  1  0.23423455  0.33354533  0.35711921  1  0  0.105047  0  0.961243  0  0  0.111024  0  1.030879  0  0  0.113816  0  1.027003  0  0  0.132479  0.108509  0  1.034204  0
H  H9  1  0.74887150  0.15177604  0.14547967  1  0  0.10891  0  0.945519  0  0  0.114638  0  1.015382  0  0  0.117376  0  1.011466  0  0  0.137262  0.112182  0  1.018775  0
H  H10  1  0.19629756  0.05720543  0.65874707  1  0  0.106089  0  0.954579  0  0  0.110554  0  1.025914  0  0  0.112771  0  1.023391  0  0  0.130037  0.108078  0  1.029098  0
H  H11  1  0.69154155  0.45479917  0.84014650  1  0  0.100876  0  0.965337  0  0  0.106465  0  1.035989  0  0  0.108255  0  1.034191  0  0  0.127789  0.104421  0  1.038375  0
H  H12  1  0.80836897  0.95505601  0.34039105  1  0  0.100748  0  0.96538  0  0  0.106517  0  1.035989  0  0  0.108305  0  1.034191  0  0  0.127726  0.104466  0  1.038395  0
H  H13  1  0.30375791  0.55726913  0.15883761  1  0  0.106232  0  0.954224  0  0  0.110603  0  1.025679  0  0  0.112811  0  1.023171  0  0  0.130066  0.108129  0  1.028857  0
H  H14  1  0.64851362  0.16834239  0.57107281  1  0  0.114481  0  0.977964  0  0  0.11183  0  1.059158  0  0  0.11578  0  1.053846  0  0  0.138818  0.10856  0  1.063733  0
H  H15  1  0.14265940  0.33541332  0.92342738  1  0  0.107513  0  0.972824  0  0  0.106312  0  1.053876  0  0  0.109191  0  1.05085  0  0  0.13435  0.104225  0  1.055994  0
H  H16  1  0.35716754  0.83567198  0.42339520  1  0  0.107602  0  0.972963  0  0  0.106543  0  1.053803  0  0  0.10942  0  1.050776  0  0  0.134372  0.104476  0  1.055914  0
H  H17  1  0.85153444  0.66824032  0.07094024  1  0  0.114618  0  0.978195  0  0  0.111971  0  1.059241  0  0  0.115927  0  1.053922  0  0  0.138887  0.10869  0  1.063829  0
H  H18  1  0.14561976  0.47512253  0.69842751  1  0  0.101757  0  0.92824  0  0  0.111908  0  0.994776  0  0  0.113036  0  0.994423  0  0  0.118821  0.111221  0  0.994808  0
H  H19  1  0.64463806  0.03392959  0.79821364  1  0  0.103493  0  0.921799  0  0  0.113048  0  0.988539  0  0  0.114399  0  0.988065  0  0  0.119001  0.112108  0  0.988841  0
H  H20  1  0.85548923  0.53403110  0.29815603  1  0  0.103196  0  0.921546  0  0  0.112846  0  0.988349  0  0  0.114125  0  0.98789  0  0  0.118929  0.111938  0  0.988625  0
H  H21  1  0.35437227  0.97542381  0.19849449  1  0  0.101622  0  0.928599  0  0  0.111937  0  0.995148  0  0  0.113104  0  0.994772  0  0  0.118735  0.111223  0  0.995211  0
H  H22  1  0.08651157  0.65614742  0.66828085  1  0  0.094622  0  0.942079  0  0  0.103158  0  1.013504  0  0  0.103524  0  1.01401  0  0  0.111319  0.102903  0  1.013024  0
H  H23  1  0.59201860  0.85059654  0.82650365  1  0  0.096807  0  0.930843  0  0  0.106199  0  1.000531  0  0  0.106595  0  1.001139  0  0  0.113771  0.105893  0  0.999966  0
H  H24  1  0.90802659  0.35066932  0.32649412  1  0  0.096747  0  0.9304  0  0  0.106062  0  1.000281  0  0  0.106432  0  1.00087  0  0  0.113766  0.10575  0  0.999742  0
H  H25  1  0.41353940  0.15639304  0.16831277  1  0  0.094463  0  0.94219  0  0  0.103243  0  1.013615  0  0  0.103612  0  1.014135  0  0  0.11137  0.102994  0  1.013097  0
H  H26  1  0.90322577  0.65726196  0.82174180  1  0  0.095373  0  0.930935  0  0  0.110964  0  0.989885  0  0  0.111199  0  0.990406  0  0  0.118323  0.110566  0  0.990094  0
H  H27  1  0.40650092  0.84887780  0.67260287  1  0  0.099568  0  0.91516  0  0  0.114981  0  0.973976  0  0  0.115402  0  0.974331  0  0  0.120381  0.114074  0  0.975016  0
H  H28  1  0.09377398  0.34889345  0.17265173  1  0  0.099516  0  0.914709  0  0  0.114894  0  0.973517  0  0  0.115304  0  0.973873  0  0  0.120453  0.113994  0  0.974522  0
H  H29  1  0.59671284  0.15747828  0.32182283  1  0  0.095234  0  0.931074  0  0  0.110943  0  0.989951  0  0  0.111184  0  0.990472  0  0  0.118307  0.110546  0  0.990144  0
H  H30  1  0.08976356  0.61414332  0.86519335  1  0  0.089132  0  0.950373  0  0  0.100818  0  1.019267  0  0  0.101359  0  1.020116  0  0  0.109716  0.099803  0  1.019946  0
H  H31  1  0.59403647  0.89239762  0.63074799  1  0  0.092697  0  0.950866  0  0  0.103072  0  1.020822  0  0  0.103918  0  1.02157  0  0  0.110703  0.101648  0  1.021806  0
H  H32  1  0.90621232  0.39229334  0.13075165  1  0  0.093015  0  0.950477  0  0  0.103334  0  1.020482  0  0  0.104197  0  1.021175  0  0  0.110781  0.10185  0  1.021553  0
H  H33  1  0.41013033  0.11447373  0.36523836  1  0  0.088943  0  0.950654  0  0  0.100773  0  1.019389  0  0  0.101313  0  1.020231  0  0  0.109702  0.099744  0  1.02009  0
C  C34  1  0.56314664  0.42860976  0.26636896  1  0  0.245815  0  4.037425  0  0  0.2401  0  4.339264  0  0  0.263679  0  4.34923  0  0  0.121852  0.224086  0  4.331016  0
C  C35  1  0.06904064  0.05983571  0.24324777  1  0  0.241694  0  4.034357  0  0  0.236717  0  4.337192  0  0  0.260429  0  4.347467  0  0  0.121775  0.220715  0  4.328482  0
C  C36  1  0.43086328  0.55980822  0.74318164  1  0  0.242111  0  4.033799  0  0  0.237107  0  4.336672  0  0  0.260823  0  4.346951  0  0  0.122133  0.221094  0  4.327934  0
C  C37  1  0.93698673  0.92840770  0.76640433  1  0  0.245355  0  4.037147  0  0  0.239655  0  4.338901  0  0  0.263232  0  4.348891  0  0  0.121677  0.223648  0  4.33066  0
C  C38  1  0.93403749  0.36030976  0.57612904  1  0  0.140686  0  3.660671  0  0  0.076049  0  3.946198  0  0  0.087393  0  3.957757  0  0  0.147054  0.068827  0  3.937906  0
C  C39  1  0.42634201  0.13867602  0.92209705  1  0  0.136483  0  3.658134  0  0  0.072677  0  3.944341  0  0  0.08374  0  3.955801  0  0  0.146173  0.066164  0  3.935423  0
C  C40  1  0.07355938  0.63870601  0.42208802  1  0  0.136382  0  3.658005  0  0  0.07261  0  3.944146  0  0  0.083606  0  3.955555  0  0  0.146324  0.066159  0  3.935252  0
C  C41  1  0.56586139  0.86040489  0.07625607  1  0  0.140681  0  3.660555  0  0  0.076257  0  3.94608  0  0  0.087699  0  3.957691  0  0  0.147266  0.068974  0  3.937741  0
C  C42  1  0.78937538  0.54676476  0.61487888  1  0  0.148808  0  3.603426  0  0  0.081911  0  3.881065  0  0  0.097715  0  3.890492  0  0  0.154858  0.072807  0  3.873881  0
C  C43  1  0.29626759  0.94131222  0.88695982  1  0  0.140367  0  3.615212  0  0  0.075298  0  3.888833  0  0  0.090612  0  3.898595  0  0  0.151215  0.066398  0  3.881651  0
C  C44  1  0.20385369  0.44141729  0.38695925  1  0  0.140272  0  3.614901  0  0  0.075334  0  3.888617  0  0  0.090666  0  3.898363  0  0  0.151184  0.066403  0  3.881487  0
C  C45  1  0.71067717  0.04670732  0.11495158  1  0  0.147959  0  3.603858  0  0  0.081255  0  3.881431  0  0  0.097046  0  3.890879  0  0  0.154649  0.072164  0  3.874259  0
C  C46  1  0.04908268  0.55099352  0.70148438  1  0  -0.026264  0  3.612694  0  0  -0.087581  0  3.866067  0  0  -0.084507  0  3.878232  0  0  -0.050474  -0.08949  0  3.857217  0
C  C47  1  0.55073191  0.95509905  0.79432861  1  0  -0.023117  0  3.609137  0  0  -0.08533  0  3.865626  0  0  -0.082448  0  3.877948  0  0  -0.048229  -0.087154  0  3.856962  0
C  C48  1  0.94937521  0.45513400  0.29431488  1  0  -0.022908  0  3.608715  0  0  -0.085231  0  3.865055  0  0  -0.082205  0  3.877279  0  0  -0.048263  -0.087107  0  3.856411  0
C  C49  1  0.45091202  0.05123460  0.20155309  1  0  -0.025748  0  3.612336  0  0  -0.087853  0  3.866601  0  0  -0.08484  0  3.878825  0  0  -0.050538  -0.089723  0  3.857742  0
C  C50  1  0.78881908  0.39169068  0.86782463  1  0  0.130154  0  3.66782  0  0  0.077732  0  3.934758  0  0  0.087446  0  3.949611  0  0  0.144236  0.07158  0  3.924439  0
C  C51  1  0.29460108  0.11898704  0.63100520  1  0  0.138593  0  3.659379  0  0  0.08193  0  3.933231  0  0  0.092781  0  3.945765  0  0  0.14881  0.074543  0  3.925506  0
C  C52  1  0.20543404  0.61898614  0.13103703  1  0  0.13839  0  3.659456  0  0  0.081773  0  3.933437  0  0  0.092633  0  3.945959  0  0  0.14878  0.074383  0  3.92572  0
C  C53  1  0.71106657  0.89194407  0.36800284  1  0  0.130278  0  3.668193  0  0  0.077436  0  3.935369  0  0  0.087151  0  3.950228  0  0  0.144246  0.071293  0  3.92504  0
C  C54  1  0.52649056  0.17399386  0.58471913  1  0  0.148064  0  3.5559  0  0  0.085687  0  3.824577  0  0  0.101717  0  3.833129  0  0  0.154965  0.073653  0  3.820196  0
C  C55  1  0.02018747  0.33211073  0.91159824  1  0  0.137062  0  3.625837  0  0  0.081039  0  3.892503  0  0  0.092158  0  3.906255  0  0  0.153616  0.073278  0  3.883079  0
C  C56  1  0.47965660  0.83234867  0.41164326  1  0  0.136722  0  3.626272  0  0  0.080458  0  3.892899  0  0  0.091582  0  3.906663  0  0  0.153506  0.072673  0  3.883459  0
C  C57  1  0.97355101  0.67388452  0.08462592  1  0  0.148315  0  3.555743  0  0  0.086032  0  3.824282  0  0  0.102091  0  3.832805  0  0  0.155049  0.073984  0  3.819938  0
C  C58  1  0.99322314  0.57459055  0.81705514  1  0  -0.027488  0  3.635783  0  0  -0.093  0  3.893969  0  0  -0.089744  0  3.906384  0  0  -0.051696  -0.09484  0  3.885681  0
C  C59  1  0.49658174  0.93161278  0.67816336  1  0  -0.027117  0  3.620058  0  0  -0.093721  0  3.881737  0  0  -0.090622  0  3.893664  0  0  -0.04957  -0.095566  0  3.874753  0
C  C60  1  0.00360706  0.43156667  0.17817071  1  0  -0.027606  0  3.619421  0  0  -0.093896  0  3.880604  0  0  -0.090839  0  3.892524  0  0  -0.049567  -0.09567  0  3.873565  0
C  C61  1  0.50670019  0.07484883  0.31713755  1  0  -0.026379  0  3.635604  0  0  -0.092046  0  3.893982  0  0  -0.088797  0  3.906458  0  0  -0.051299  -0.093879  0  3.885681  0
S  S62  1  0.59148710  0.42972302  0.13626295  1  0  -0.396278  0  2.005163  0  0  -0.382849  0  2.300632  0  0  -0.394703  0  2.292904  0  0  -0.195518  -0.373383  0  2.306069  0
S  S63  1  0.09698936  0.06990942  0.37315465  1  0  -0.387169  0  2.022186  0  0  -0.376336  0  2.320694  0  0  -0.388842  0  2.312997  0  0  -0.188011  -0.366014  0  2.326034  0
S  S64  1  0.40286531  0.56959121  0.87310025  1  0  -0.387255  0  2.020977  0  0  -0.37644  0  2.319377  0  0  -0.388952  0  2.31167  0  0  -0.188139  -0.366101  0  2.324708  0
S  S65  1  0.90870023  0.92974364  0.63631200  1  0  -0.395978  0  2.00603  0  0  -0.382653  0  2.301663  0  0  -0.394512  0  2.293946  0  0  -0.195384  -0.373191  0  2.307108  0
N  N66  1  0.54140627  0.42605635  0.36099765  1  0  -0.472713  0  3.220018  0  0  -0.4503  0  3.536768  0  0  -0.470168  0  3.537087  0  0  -0.423246  -0.437635  0  3.534512  0
N  N67  1  0.04715974  0.05301351  0.14864721  1  0  -0.464462  0  3.211823  0  0  -0.443818  0  3.531095  0  0  -0.463682  0  3.531566  0  0  -0.420934  -0.430804  0  3.528606  0
N  N68  1  0.45277175  0.55315511  0.64858653  1  0  -0.464876  0  3.21301  0  0  -0.444161  0  3.53217  0  0  -0.464053  0  3.532672  0  0  -0.421419  -0.431133  0  3.529637  0
N  N69  1  0.95866492  0.92580880  0.86105366  1  0  -0.472479  0  3.218904  0  0  -0.450108  0  3.535831  0  0  -0.469987  0  3.536184  0  0  -0.423165  -0.437449  0  3.533596  0
N  N70  1  0.71165480  0.45567420  0.55179912  1  0  -0.154396  0  3.275901  0  0  -0.112914  0  3.579152  0  0  -0.133092  0  3.594295  0  0  -0.239902  -0.100922  0  3.569205  0
N  N71  1  0.21624534  0.02403169  0.95460205  1  0  -0.147712  0  3.276194  0  0  -0.10616  0  3.580111  0  0  -0.126081  0  3.594761  0  0  -0.238472  -0.094295  0  3.570775  0
N  N72  1  0.28377916  0.52420566  0.45458511  1  0  -0.147947  0  3.275729  0  0  -0.10646  0  3.579778  0  0  -0.126379  0  3.594403  0  0  -0.238515  -0.094635  0  3.570492  0
N  N73  1  0.78831461  0.95552291  0.05186636  1  0  -0.153856  0  3.275933  0  0  -0.112114  0  3.578896  0  0  -0.132289  0  3.594067  0  0  -0.239727  -0.100131  0  3.56896  0
N  N74  1  0.80358170  0.33790440  0.52594727  1  0  -0.239595  0  2.940353  0  0  -0.217402  0  3.230191  0  0  -0.22529  0  3.244395  0  0  -0.224202  -0.212904  0  3.221771  0
N  N75  1  0.29829136  0.14939217  0.97743378  1  0  -0.235841  0  2.923808  0  0  -0.216078  0  3.216388  0  0  -0.223048  0  3.230056  0  0  -0.223052  -0.212252  0  3.208205  0
N  N76  1  0.20159650  0.64952687  0.47741210  1  0  -0.235849  0  2.923058  0  0  -0.216173  0  3.21572  0  0  -0.223127  0  3.229389  0  0  -0.223215  -0.212339  0  3.207532  0
N  N77  1  0.69630720  0.83783463  0.02604950  1  0  -0.240332  0  2.939822  0  0  -0.2184  0  3.229873  0  0  -0.226298  0  3.24404  0  0  -0.224538  -0.213893  0  3.221482  0
N  N78  1  0.93035828  0.48987643  0.63218812  1  0  -0.094448  0  3.558479  0  0  0.000551  0  3.78118  0  0  -0.015608  0  3.804972  0  0  -0.238516  0.011461  0  3.764414  0
N  N79  1  0.42993934  0.00997616  0.86471524  1  0  -0.098621  0  3.56217  0  0  -0.002846  0  3.78495  0  0  -0.018995  0  3.809  0  0  -0.239381  0.007724  0  3.768217  0
N  N80  1  0.07010436  0.50999688  0.36471205  1  0  -0.097858  0  3.562134  0  0  -0.002104  0  3.78489  0  0  -0.018294  0  3.80891  0  0  -0.239408  0.008447  0  3.76822  0
N  N81  1  0.56965653  0.98997763  0.13228907  1  0  -0.094197  0  3.558748  0  0  0.000989  0  3.781424  0  0  -0.015162  0  3.805235  0  0  -0.238326  0.011899  0  3.764651  0
N  N82  1  0.92879958  0.22474183  0.94084259  1  0  -0.179252  0  3.070274  0  0  -0.13987  0  3.359426  0  0  -0.158131  0  3.377619  0  0  -0.194089  -0.127526  0  3.34727  0
N  N83  1  0.43669956  0.28593554  0.55948542  1  0  -0.138615  0  3.276216  0  0  -0.096047  0  3.57929  0  0  -0.118687  0  3.59552  0  0  -0.232821  -0.081543  0  3.568474  0
N  N84  1  0.06328997  0.78586018  0.05945525  1  0  -0.139037  0  3.277013  0  0  -0.096404  0  3.580026  0  0  -0.119044  0  3.596222  0  0  -0.233295  -0.08192  0  3.569269  0
N  N85  1  0.57104047  0.72494585  0.44091037  1  0  -0.179269  0  3.070422  0  0  -0.139811  0  3.359373  0  0  -0.158098  0  3.377598  0  0  -0.194002  -0.127444  0  3.347197  0
N  N86  1  0.78218551  0.26115922  0.91282972  1  0  -0.245543  0  2.963826  0  0  -0.221471  0  3.252418  0  0  -0.230956  0  3.269622  0  0  -0.223828  -0.215084  0  3.240624  0
N  N87  1  0.28936129  0.25124408  0.58913750  1  0  -0.233295  0  2.93652  0  0  -0.212437  0  3.223202  0  0  -0.220332  0  3.239155  0  0  -0.219637  -0.207744  0  3.213378  0
N  N88  1  0.21062149  0.75123353  0.08916806  1  0  -0.233161  0  2.936385  0  0  -0.212311  0  3.223018  0  0  -0.22017  0  3.238915  0  0  -0.21968  -0.207634  0  3.213233  0
N  N89  1  0.71768459  0.76138748  0.41299106  1  0  -0.245056  0  2.963371  0  0  -0.220906  0  3.251895  0  0  -0.230399  0  3.269127  0  0  -0.22369  -0.214513  0  3.240072  0
N  N90  1  0.93605847  0.44045628  0.86542061  1  0  -0.094489  0  3.561866  0  0  -7e-06  0  3.783478  0  0  -0.016381  0  3.808783  0  0  -0.239776  0.01113  0  3.765561  0
N  N91  1  0.44032589  0.06656794  0.62988390  1  0  -0.088499  0  3.551349  0  0  0.004086  0  3.778772  0  0  -0.011819  0  3.801438  0  0  -0.237091  0.014788  0  3.763476  0
N  N92  1  0.05976158  0.56650749  0.12984443  1  0  -0.088321  0  3.551804  0  0  0.004086  0  3.779312  0  0  -0.01183  0  3.80197  0  0  -0.237129  0.014783  0  3.764007  0
N  N93  1  0.56382043  0.94071821  0.36553466  1  0  -0.095239  0  3.563024  0  0  -0.000516  0  3.784712  0  0  -0.016891  0  3.81002  0  0  -0.240039  0.010623  0  3.766792  0
