# generated using pymatgen
data_AlH24C45(BrO2)3
_symmetry_space_group_name_H-M   'P 1'
_cell_length_a   3.98208086
_cell_length_b   23.59780902
_cell_length_c   23.54882650
_cell_angle_alpha   60.05837685
_cell_angle_beta   87.81279489
_cell_angle_gamma   87.70672782
_symmetry_Int_Tables_number   1
_chemical_formula_structural   AlH24C45(BrO2)3
_chemical_formula_sum   'Al1 H24 C45 Br3 O6'
_cell_volume   1915.54771130
_cell_formula_units_Z   1
loop_
 _symmetry_equiv_pos_site_id
 _symmetry_equiv_pos_as_xyz
  1  'x, y, z'
loop_
 _atom_site_type_symbol
 _atom_site_label
 _atom_site_symmetry_multiplicity
 _atom_site_fract_x
 _atom_site_fract_y
 _atom_site_fract_z
 _atom_site_occupancy
 _atom_site_pbe_bader_charge
 _atom_site_pbe_bader_spin_density
 _atom_site_pbe_cm5_charge
 _atom_site_pbe_ddec_charge
 _atom_site_pbe_ddec_spin_density
 _atom_site_pbe_ddec_sum_bond_order
 _atom_site_pbe_magmom
Al  Al0  1  0.00220569  0.50006612  0.49953831  1  2.504065  0  0.427414  1.598866  0  2.564728  0
H  H1  1  0.49452328  0.32197708  0.67656868  1  0.046275  0  0.108075  0.111042  0  0.977221  0
H  H2  1  0.48985582  0.25706809  0.79694800  1  0.04603  0  0.079461  0.081869  0  1.084789  0
H  H3  1  0.81504223  0.16179748  0.01759874  1  0.062268  0  0.09866  0.109551  0  1.017514  0
H  H4  1  0.45282056  0.68642910  0.31468179  1  0.045713  0  0.106617  0.107792  0  0.986126  0
H  H5  1  0.50897459  0.80603057  0.25882357  1  0.013465  0  0.097512  0.092642  0  1.015702  0
H  H6  1  0.25517949  0.89292827  0.23214008  1  0.03041  0  0.101813  0.101773  0  1.009065  0
H  H7  1  0.24857144  0.01188880  0.16740378  1  0.081449  0  0.100497  0.102527  0  1.002374  0
H  H8  1  0.50770643  0.10587676  0.10556873  1  0.025634  0  0.099208  0.099262  0  1.025421  0
H  H9  1  0.51997437  0.67629067  0.50131025  1  0.053406  0  0.108463  0.112103  0  0.977391  0
H  H10  1  0.50937376  0.79623165  0.44663031  1  0.055092  0  0.079798  0.082746  0  1.087665  0
H  H11  1  0.79919918  0.01722125  0.31842170  1  0.088065  0  0.098645  0.109483  0  1.020739  0
H  H12  1  0.53192788  0.31530888  0.49866316  1  0.047929  0  0.106736  0.108177  0  0.984232  0
H  H13  1  0.58997980  0.25891310  0.43417196  1  0.014533  0  0.097597  0.092657  0  1.013602  0
H  H14  1  0.29132548  0.23407094  0.37737564  1  0.057056  0  0.101926  0.10208  0  1.007799  0
H  H15  1  0.26824893  0.16922474  0.32291732  1  0.068854  0  0.100693  0.103287  0  1.001311  0
H  H16  1  0.53461980  0.10568807  0.28808217  1  0.019257  0  0.099593  0.100224  0  1.025557  0
H  H17  1  0.54714686  0.50124259  0.32039336  1  0.046412  0  0.108097  0.110816  0  0.978239  0
H  H18  1  0.54377035  0.44534562  0.25581637  1  0.047522  0  0.081612  0.08371  0  1.076781  0
H  H19  1  0.84868289  0.31458376  0.16111363  1  0.086363  0  0.098397  0.108899  0  1.019448  0
H  H20  1  0.48372196  0.49931578  0.68622729  1  0.03083  0  0.106419  0.107429  0  0.985406  0
H  H21  1  0.53416010  0.43428268  0.80646606  1  0.024828  0  0.097367  0.091998  0  1.013532  0
H  H22  1  0.23525329  0.37608551  0.89292949  1  0.109187  0  0.102067  0.102029  0  1.006486  0
H  H23  1  0.22645837  0.32111197  0.01280558  1  0.069977  0  0.100359  0.10206  0  1.001719  0
H  H24  1  0.53551534  0.28765492  0.10576565  1  0.026257  0  0.09914  0.099596  0  1.024302  0
C  C25  1  0.49092123  0.45192781  0.60041565  1  1.541055  0  0.280764  0.663525  0  4.051391  0
C  C26  1  0.52471991  0.44779485  0.45093725  1  1.545289  0  0.279991  0.662074  0  4.05388  0
C  C27  1  0.48990256  0.60061230  0.44726819  1  1.595142  0  0.279567  0.660321  0  4.057316  0
C  C28  1  0.49801574  0.34643351  0.70542134  1  0.103503  0  -0.081947  -0.083692  0  3.968501  0
C  C29  1  0.50221556  0.30987514  0.77336216  1  -0.033794  0  -0.097106  -0.124965  0  4.000757  0
C  C30  1  0.68226165  0.23988982  0.92271684  1  -0.037077  0  -0.011271  0.075566  0  3.915552  0
C  C31  1  0.68068643  0.20853455  0.99083712  1  0.002644  0  -0.100753  -0.186815  0  3.994263  0
C  C32  1  0.47346877  0.71075218  0.34338977  1  -0.082255  0  -0.083215  -0.094191  0  3.987863  0
C  C33  1  0.49968967  0.77843944  0.31224647  1  0.121698  0  -0.090416  -0.127816  0  3.982521  0
C  C34  1  0.38445432  0.91993911  0.25078149  1  -0.033763  0  -0.088795  -0.113876  0  3.988363  0
C  C35  1  0.37970793  0.98772701  0.21379832  1  -0.065001  0  -0.094274  -0.132322  0  3.998193  0
C  C36  1  0.48988301  0.41478829  0.67346373  1  -0.02522  0  -0.00468  -0.020512  0  3.956189  0
C  C37  1  0.51921202  0.34004864  0.81169882  1  -0.001186  0  -0.010709  0.072337  0  3.978838  0
C  C38  1  0.52951701  0.30224814  0.88421421  1  0.045069  0  -0.009907  0.018116  0  3.963419  0
C  C39  1  0.52123045  0.23661405  0.02518946  1  -0.092494  0  -0.007962  0.080843  0  4.005058  0
C  C40  1  0.52029255  0.20085763  0.09752884  1  0.026258  0  -0.006552  0.082692  0  4.020949  0
C  C41  1  0.51537617  0.13228657  0.13247496  1  0.06373  0  -0.087823  -0.175169  0  3.925166  0
C  C42  1  0.51082261  0.70522962  0.44803836  1  -0.003406  0  -0.081476  -0.082657  0  3.967772  0
C  C43  1  0.51281148  0.77301315  0.41684865  1  0.125728  0  -0.097798  -0.126516  0  3.999768  0
C  C44  1  0.67294982  0.92268603  0.33602972  1  -0.15794  0  -0.011936  0.074726  0  3.91295  0
C  C45  1  0.67269392  0.99063763  0.29906781  1  0.082833  0  -0.101028  -0.187405  0  3.996896  0
C  C46  1  0.54230901  0.34366653  0.44526276  1  -0.083041  0  -0.083995  -0.096253  0  3.990082  0
C  C47  1  0.57007996  0.31219131  0.40857013  1  0.056226  0  -0.09085  -0.128856  0  3.986679  0
C  C48  1  0.42341446  0.25116892  0.33045624  1  -0.034259  0  -0.089049  -0.113915  0  3.990007  0
C  C49  1  0.40998932  0.21423064  0.29967245  1  -0.148274  0  -0.095286  -0.134257  0  4.000599  0
C  C50  1  0.48821469  0.67338736  0.41175313  1  -0.087884  0  -0.005256  -0.021933  0  3.957661  0
C  C51  1  0.51794708  0.81152197  0.34805684  1  -0.088378  0  -0.009523  0.074672  0  3.972881  0
C  C52  1  0.53086195  0.88391544  0.31326156  1  0.025391  0  -0.010112  0.016264  0  3.960973  0
C  C53  1  0.52448780  0.02495224  0.23754963  1  -0.101456  0  -0.007546  0.08154  0  4.000957  0
C  C54  1  0.52187829  0.09719289  0.20106907  1  0.025188  0  -0.006779  0.081332  0  4.017484  0
C  C55  1  0.53107433  0.13219861  0.23470658  1  -0.00166  0  -0.087899  -0.174598  0  3.923462  0
C  C56  1  0.55105641  0.44797841  0.34512208  1  -0.069671  0  -0.080368  -0.082635  0  3.966393  0
C  C57  1  0.55653845  0.41624973  0.30879144  1  -0.037345  0  -0.09657  -0.125097  0  3.994954  0
C  C58  1  0.72948885  0.33347201  0.23954369  1  -0.090064  0  -0.012569  0.074935  0  3.922058  0
C  C59  1  0.72030429  0.29659729  0.20842812  1  -0.035985  0  -0.101409  -0.187731  0  3.996084  0
C  C60  1  0.49083890  0.44602397  0.71071082  1  0.002  0  -0.084563  -0.0973  0  3.99073  0
C  C61  1  0.51470255  0.40900120  0.77862757  1  -0.04241  0  -0.090369  -0.126473  0  3.985789  0
C  C62  1  0.37091552  0.32948700  0.92019922  1  -0.198244  0  -0.088686  -0.114035  0  3.988063  0
C  C63  1  0.36528382  0.29840998  0.98818721  1  0.053329  0  -0.094433  -0.132793  0  3.997392  0
C  C64  1  0.53942180  0.41205813  0.41362114  1  0.176461  0  -0.005123  -0.020868  0  3.957215  0
C  C65  1  0.57426872  0.34760069  0.33946408  1  -0.029384  0  -0.009962  0.075294  0  3.977143  0
C  C66  1  0.58226614  0.31219614  0.30224705  1  0.035271  0  -0.010488  0.01511  0  3.968363  0
C  C67  1  0.55744751  0.23672033  0.23715972  1  0.084576  0  -0.007249  0.080992  0  4.000697  0
C  C68  1  0.53864626  0.20059424  0.20120522  1  -0.063025  0  -0.006634  0.083204  0  4.018885  0
C  C69  1  0.53098099  0.23435707  0.13249878  1  0.008347  0  -0.087652  -0.176002  0  3.926155  0
Br  Br70  1  0.95972785  0.41413671  0.18927873  1  -0.083984  0  0.035374  -0.070325  0  1.560847  0
Br  Br71  1  0.91615517  0.19079506  0.88809166  1  -0.07997  0  0.035683  -0.071257  0  1.562471  0
Br  Br72  1  0.88766027  0.88941130  0.41865818  1  -0.081562  0  0.038067  -0.068645  0  1.568807  0
O  O73  1  0.26382967  0.57178278  0.43476243  1  -1.259515  0  -0.238102  -0.596713  0  2.337249  0
O  O74  1  0.25175943  0.49303043  0.57155994  1  -1.258283  0  -0.237188  -0.594477  0  2.33432  0
O  O75  1  0.28435410  0.43559384  0.49258128  1  -1.25537  0  -0.238354  -0.59791  0  2.340369  0
O  O76  1  0.72039303  0.57183521  0.48926719  1  -1.253609  0  -0.237867  -0.604492  0  2.369224  0
O  O77  1  0.75316252  0.48931238  0.43761051  1  -1.250165  0  -0.236477  -0.600706  0  2.358162  0
O  O78  1  0.73385154  0.43862077  0.57169779  1  -1.254939  0  -0.237608  -0.602953  0  2.362322  0
