# generated using pymatgen
data_ZnH42C54S2(N4O3)2
_symmetry_space_group_name_H-M   'P 1'
_cell_length_a   10.73207511
_cell_length_b   11.88089474
_cell_length_c   12.07331690
_cell_angle_alpha   109.72753881
_cell_angle_beta   106.02775763
_cell_angle_gamma   97.74262974
_symmetry_Int_Tables_number   1
_chemical_formula_structural   ZnH42C54S2(N4O3)2
_chemical_formula_sum   'Zn1 H42 C54 S2 N8 O6'
_cell_volume   1347.82753419
_cell_formula_units_Z   1
loop_
 _symmetry_equiv_pos_site_id
 _symmetry_equiv_pos_as_xyz
  1  'x, y, z'
loop_
 _atom_site_type_symbol
 _atom_site_label
 _atom_site_symmetry_multiplicity
 _atom_site_fract_x
 _atom_site_fract_y
 _atom_site_fract_z
 _atom_site_occupancy
 _atom_site_pbe_bader_charge
 _atom_site_pbe_bader_spin_density
 _atom_site_pbe_cm5_charge
 _atom_site_pbe_ddec_charge
 _atom_site_pbe_ddec_spin_density
 _atom_site_pbe_ddec_sum_bond_order
 _atom_site_pbe_magmom
Zn  Zn0  1  0.50000451  0.50000925  0.49999866  1  1.321913  0  0.713681  0.789853  0  2.389303  0
H  H1  1  0.54158827  0.22767464  0.51547573  1  0.160649  0  0.120308  0.123687  0  1.023413  0
H  H2  1  0.45840321  0.77233852  0.48452714  1  0.16211  0  0.120347  0.12377  0  1.02338  0
H  H3  1  0.73955598  0.21915556  0.71471324  1  0.154889  0  0.129032  0.134656  0  1.003249  0
H  H4  1  0.26042778  0.78085540  0.28529329  1  0.155242  0  0.129027  0.134537  0  1.00313  0
H  H5  1  0.76642323  0.59180497  0.75686271  1  0.123592  0  0.131663  0.100605  0  1.031986  0
H  H6  1  0.23357973  0.40820509  0.24313161  1  0.124237  0  0.131692  0.100685  0  1.031964  0
H  H7  1  0.55354018  0.79382128  0.69759258  1  0.200821  0  0.134786  0.116345  0  1.050996  0
H  H8  1  0.44648035  0.20618343  0.30241325  1  0.200959  0  0.134853  0.116526  0  1.050827  0
H  H9  1  0.37189440  0.45670449  0.69894194  1  0.177623  0  0.121032  0.123442  0  1.023222  0
H  H10  1  0.62810760  0.54329732  0.30104760  1  0.177568  0  0.121018  0.123392  0  1.023327  0
H  H11  1  0.37246274  0.65164170  0.91055347  1  0.115719  0  0.11945  0.118336  0  1.034179  0
H  H12  1  0.62755696  0.34834825  0.08944870  1  0.115673  0  0.119434  0.118349  0  1.034147  0
H  H13  1  0.68341645  0.77388207  0.98761749  1  0.06325  0  0.098501  0.094747  0  1.046702  0
H  H14  1  0.31658975  0.22612283  0.01239838  1  0.063069  0  0.098479  0.094674  0  1.046635  0
H  H15  1  0.87465222  0.86673964  0.18641453  1  0.066405  0  0.104728  0.103349  0  0.999941  0
H  H16  1  0.12535557  0.13325364  0.81358785  1  0.06657  0  0.104686  0.103276  0  1.000013  0
H  H17  1  0.90098871  0.07729323  0.34162962  1  0.116674  0  0.110366  0.118105  0  0.985799  0
H  H18  1  0.09903518  0.92268995  0.65838718  1  0.116405  0  0.110434  0.11809  0  0.985999  0
H  H19  1  0.73451087  0.19571796  0.29823292  1  0.073575  0  0.105122  0.104943  0  1.011349  0
H  H20  1  0.26552882  0.80427020  0.70178932  1  0.073307  0  0.105087  0.104802  0  1.011469  0
H  H21  1  0.95834969  0.34129089  0.68156166  1  0.08273  0  0.108379  0.110769  0  1.006599  0
H  H22  1  0.04164733  0.65873788  0.31845234  1  0.082607  0  0.108448  0.110807  0  1.006406  0
H  H23  1  0.17835173  0.30407660  0.68304497  1  0.154081  0  0.107013  0.128686  0  1.029717  0
H  H24  1  0.82162946  0.69593156  0.31695903  1  0.153601  0  0.107069  0.128747  0  1.029575  0
H  H25  1  0.36942173  0.37909988  0.88688889  1  0.061159  0  0.104554  0.100814  0  0.989078  0
H  H26  1  0.63055484  0.62087581  0.11311088  1  0.060694  0  0.104517  0.100717  0  0.989125  0
H  H27  1  0.33858768  0.48760996  0.08685083  1  0.078371  0  0.099986  0.096441  0  1.0415  0
H  H28  1  0.66140618  0.51237712  0.91315867  1  0.078428  0  0.099988  0.096437  0  1.04153  0
H  H29  1  0.82316570  0.17439489  0.88085930  1  0.02983  0  0.092314  0.13003  0  1.004302  0
H  H30  1  0.17680314  0.82558477  0.11912302  1  0.029519  0  0.092292  0.129989  0  1.004431  0
H  H31  1  0.77595992  0.29884838  0.97787957  1  0.043896  0  0.082767  0.113489  0  1.054505  0
H  H32  1  0.22401985  0.70113614  0.02210675  1  0.043927  0  0.082777  0.113504  0  1.054496  0
H  H33  1  0.71438777  0.14513034  0.95977769  1  0.051382  0  0.090036  0.129473  0  1.010568  0
H  H34  1  0.28559421  0.85485844  0.04022400  1  0.051543  0  0.09004  0.129391  0  1.010719  0
H  H35  1  0.00589634  0.09778304  0.96628035  1  0.04393  0  0.097191  0.098688  0  1.035101  0
H  H36  1  0.99409471  0.90219993  0.03370785  1  0.044199  0  0.097166  0.098717  0  1.035008  0
H  H37  1  0.18476092  0.09801728  0.14854573  1  0.088499  0  0.102898  0.108338  0  1.019327  0
H  H38  1  0.81523136  0.90198596  0.85144815  1  0.088443  0  0.10294  0.108349  0  1.019205  0
H  H39  1  0.04652704  0.36082195  0.39959316  1  0.101019  0  0.107831  0.114721  0  0.977977  0
H  H40  1  0.95347525  0.63919028  0.60038928  1  0.100786  0  0.107936  0.114835  0  0.978102  0
H  H41  1  0.86734040  0.36041555  0.21817319  1  0.060675  0  0.095001  0.094641  0  1.032442  0
H  H42  1  0.13264174  0.63957743  0.78181175  1  0.060203  0  0.095019  0.094677  0  1.032494  0
C  C43  1  0.61950264  0.30230319  0.59387019  1  0.415354  0  0.000754  -0.022354  0  3.981068  0
C  C44  1  0.38049157  0.69770831  0.40612875  1  0.413623  0  0.000752  -0.022487  0  3.9812  0
C  C45  1  0.71541060  0.29638818  0.69254021  1  0.233926  0  0.001341  -0.110647  0  3.916919  0
C  C46  1  0.28457992  0.70362208  0.30746553  1  0.233411  0  0.001373  -0.110296  0  3.916851  0
C  C47  1  0.73031891  0.49201384  0.71623047  1  1.007362  0  0.142646  0.103808  0  3.903068  0
C  C48  1  0.26968281  0.50799689  0.28377120  1  1.005827  0  0.142678  0.103744  0  3.903035  0
C  C49  1  0.50207309  0.72699188  0.72412654  1  0.96997  0  0.144173  0.095599  0  3.869441  0
C  C50  1  0.49794454  0.27300989  0.27588159  1  0.969946  0  0.144014  0.095303  0  3.869397  0
C  C51  1  0.41027410  0.55564802  0.73193454  1  0.391682  0  -0.003795  -0.034801  0  3.997274  0
C  C52  1  0.58972969  0.44435377  0.26805800  1  0.391022  0  -0.00381  -0.034788  0  3.997368  0
C  C53  1  0.40904723  0.65025627  0.83520386  1  0.252652  0  -0.00389  -0.115447  0  3.936365  0
C  C54  1  0.59096976  0.34974193  0.16479871  1  0.25327  0  -0.003839  -0.115502  0  3.93643  0
C  C55  1  0.38927357  0.94651146  0.88377475  1  -0.039166  0  -0.00176  0.01307  0  4.008608  0
C  C56  1  0.61074340  0.05348550  0.11623900  1  -0.03785  0  -0.001672  0.0133  0  4.008558  0
C  C57  1  0.48454221  0.88137371  0.91468720  1  0.33396  0  0.094919  0.057328  0  3.962784  0
C  C58  1  0.51547963  0.11862788  0.08533203  1  0.332606  0  0.094967  0.057376  0  3.962657  0
C  C59  1  0.59519016  0.93084993  0.02691197  1  -0.030383  0  -0.005713  0.011338  0  4.017591  0
C  C60  1  0.40482079  0.06914969  0.97309930  1  -0.029979  0  -0.005777  0.011341  0  4.017402  0
C  C61  1  0.69356316  0.86561707  0.05528935  1  -0.013295  0  -0.094472  -0.137162  0  3.995586  0
C  C62  1  0.30644648  0.13437786  0.94472242  1  -0.012333  0  -0.094434  -0.137017  0  3.995648  0
C  C63  1  0.80033560  0.91779253  0.16596463  1  -0.0637  0  -0.080239  -0.056818  0  3.976294  0
C  C64  1  0.19967576  0.08220070  0.83404372  1  -0.064315  0  -0.080191  -0.056792  0  3.976454  0
C  C65  1  0.81479553  0.03745949  0.25485897  1  0.007431  0  -0.078525  -0.054507  0  3.956523  0
C  C66  1  0.18523368  0.96252483  0.74515643  1  6.9e-05  0  -0.078597  -0.054619  0  3.957151  0
C  C67  1  0.72249817  0.10346691  0.23045200  1  -0.00924  0  -0.085096  -0.119705  0  3.973427  0
C  C68  1  0.27752205  0.89653027  0.76955778  1  -0.001093  0  -0.085047  -0.119357  0  3.97374  0
C  C69  1  0.87240606  0.52333106  0.99820841  1  0.011637  0  -0.002435  0.013174  0  4.002929  0
C  C70  1  0.12758450  0.47666976  0.00180322  1  0.011937  0  -0.00242  0.013151  0  4.002523  0
C  C71  1  0.89386554  0.45954164  0.88618595  1  0.36137  0  0.098757  0.065156  0  3.958687  0
C  C72  1  0.10612793  0.54046213  0.11382338  1  0.361588  0  0.098803  0.065288  0  3.958704  0
C  C73  1  0.01793151  0.43483142  0.88423464  1  -0.030551  0  -0.001639  0.015469  0  3.996173  0
C  C74  1  0.98206431  0.56517051  0.11577640  1  -0.030188  0  -0.001721  0.015381  0  3.9961  0
C  C75  1  0.04057770  0.37283345  0.77043264  1  -0.041996  0  -0.086126  -0.121662  0  3.965441  0
C  C76  1  0.95940051  0.62717462  0.22957130  1  -0.042326  0  -0.086198  -0.121581  0  3.96593  0
C  C77  1  0.16389851  0.35281619  0.77134386  1  -0.077566  0  -0.082626  -0.076814  0  3.968001  0
C  C78  1  0.83609919  0.64717959  0.22865730  1  -0.076692  0  -0.082702  -0.077105  0  3.968643  0
C  C79  1  0.27182119  0.39528865  0.88713483  1  -0.011762  0  -0.08356  -0.067503  0  4.01254  0
C  C80  1  0.72815732  0.60469982  0.11287406  1  -0.011166  0  -0.083508  -0.067209  0  4.011947  0
C  C81  1  0.25477024  0.45552248  0.99893639  1  -0.098438  0  -0.095028  -0.144224  0  3.996362  0
C  C82  1  0.74522292  0.54446470  0.00106880  1  -0.09899  0  -0.094919  -0.144191  0  3.996392  0
C  C83  1  0.80286571  0.21113294  0.96869678  1  -0.07323  0  -0.241931  -0.413074  0  3.960299  0
C  C84  1  0.19711165  0.78884968  0.03128819  1  -0.073024  0  -0.241886  -0.412821  0  3.960098  0
C  C85  1  0.92042819  0.22506231  0.07882537  1  0.015592  0  -0.011466  0.168311  0  3.971949  0
C  C86  1  0.07955486  0.77492984  0.92115705  1  0.015026  0  -0.01146  0.168114  0  3.972061  0
C  C87  1  0.01368842  0.15524752  0.06113165  1  -0.095567  0  -0.096884  -0.147469  0  3.969498  0
C  C88  1  0.98629772  0.84474395  0.93884562  1  -0.094936  0  -0.09697  -0.147543  0  3.970061  0
C  C89  1  0.11430227  0.15478297  0.16291401  1  0.008439  0  -0.095531  -0.107269  0  4.035382  0
C  C90  1  0.88570103  0.84522353  0.83707504  1  0.008355  0  -0.095469  -0.107177  0  4.035433  0
C  C91  1  0.12324101  0.22602895  0.28456462  1  -0.228595  0  -0.0251  -0.101066  0  4.003991  0
C  C92  1  0.87675859  0.77398495  0.71542094  1  -0.227478  0  -0.02509  -0.100947  0  4.004014  0
C  C93  1  0.03617133  0.30253683  0.30414209  1  -0.042079  0  -0.088688  -0.09446  0  4.017199  0
C  C94  1  0.96382935  0.69747262  0.69583810  1  -0.042058  0  -0.088729  -0.094568  0  4.017344  0
C  C95  1  0.93609572  0.30198798  0.20194644  1  -0.038609  0  -0.098155  -0.151229  0  3.984646  0
C  C96  1  0.06388968  0.69800604  0.79803814  1  -0.038846  0  -0.098296  -0.151352  0  3.984863  0
S  S97  1  0.24666166  0.22331735  0.41685533  1  3.192232  0  0.492772  1.161161  0  6.256753  0
S  S98  1  0.75334100  0.77669011  0.58313220  1  3.192227  0  0.492813  1.161018  0  6.257338  0
N  N99  1  0.63048890  0.42452080  0.60981984  1  -1.221362  0  -0.341842  -0.275246  0  3.533615  0
N  N100  1  0.36951750  0.57549202  0.39017891  1  -1.220193  0  -0.341862  -0.275114  0  3.533293  0
N  N101  1  0.78540454  0.41797664  0.77033138  1  -1.261853  0  -0.235105  -0.005717  0  3.835913  0
N  N102  1  0.21458793  0.58203367  0.22967495  1  -1.261764  0  -0.235224  -0.006098  0  3.836257  0
N  N103  1  0.46848405  0.60492230  0.66430862  1  -1.240315  0  -0.345798  -0.271338  0  3.562055  0
N  N104  1  0.53152076  0.39508405  0.33568744  1  -1.240334  0  -0.3457  -0.271193  0  3.561738  0
N  N105  1  0.46722767  0.75849675  0.82875728  1  -1.272694  0  -0.234846  0.003388  0  3.839985  0
N  N106  1  0.53279524  0.24150326  0.17125342  1  -1.272253  0  -0.234906  0.003369  0  3.840408  0
O  O107  1  0.33543919  0.35051063  0.47729602  1  -1.350895  0  -0.354063  -0.627842  0  2.358714  0
O  O108  1  0.66457021  0.64949900  0.52268757  1  -1.350986  0  -0.354049  -0.627843  0  2.35913  0
O  O109  1  0.17462974  0.19786732  0.49571598  1  -1.327767  0  -0.357945  -0.601224  0  2.137545  0
O  O110  1  0.82537325  0.80215384  0.50427886  1  -1.328048  0  -0.357946  -0.601067  0  2.137849  0
O  O111  1  0.31473099  0.12907575  0.36721219  1  -1.34316  0  -0.362976  -0.609694  0  2.139946  0
O  O112  1  0.68525838  0.87092455  0.63278398  1  -1.34321  0  -0.362994  -0.60968  0  2.139741  0
