# generated using pymatgen
data_CoH16(C12N5)2
_symmetry_space_group_name_H-M   'P 1'
_cell_length_a   9.24127183
_cell_length_b   16.08346373
_cell_length_c   15.62898990
_cell_angle_alpha   72.47647490
_cell_angle_beta   75.30777547
_cell_angle_gamma   76.83313617
_symmetry_Int_Tables_number   1
_chemical_formula_structural   CoH16(C12N5)2
_chemical_formula_sum   'Co3 H48 C72 N30'
_cell_volume   2113.66280193
_cell_formula_units_Z   3
loop_
 _symmetry_equiv_pos_site_id
 _symmetry_equiv_pos_as_xyz
  1  'x, y, z'
loop_
 _atom_site_type_symbol
 _atom_site_label
 _atom_site_symmetry_multiplicity
 _atom_site_fract_x
 _atom_site_fract_y
 _atom_site_fract_z
 _atom_site_occupancy
 _atom_site_pbe_bader_charge
 _atom_site_pbe_bader_spin_density
 _atom_site_pbe_cm5_charge
 _atom_site_pbe_ddec_charge
 _atom_site_pbe_ddec_spin_density
 _atom_site_pbe_ddec_sum_bond_order
 _atom_site_pbe_magmom
Co  Co0  1  0.49999728  0.50000192  0.99999871  1  1.070884  0.934546  0.691159  0.380551  1.025732  3.261295  0.927
Co  Co1  1  0.00000318  0.00000077  0.49999749  1  1.076604  0.932847  0.688413  0.38453  1.024126  3.261247  0.925
Co  Co2  1  0.99999846  0.49999974  0.49999959  1  1.049423  0.942621  0.677918  0.377977  1.026325  3.210442  0.935
H  H3  1  0.98198719  0.67730727  0.02563072  1  0.129479  0.000158  0.114633  0.128149  0.000128  0.981891  0.0
H  H4  1  0.98075829  0.73036860  0.16328096  1  0.057471  -0.000273  0.101459  0.091424  -0.000293  1.00482  0.0
H  H5  1  0.21209289  0.68020017  0.23372791  1  0.085547  0.000122  0.093357  0.093046  5.3e-05  1.071812  0.0
H  H6  1  0.43454338  0.58221212  0.16549805  1  0.162167  0.000347  0.113161  0.074988  -3.4e-05  1.086287  0.0
H  H7  1  0.18719746  0.37756021  0.62849334  1  0.109445  0.000359  0.11869  0.089124  -1.2e-05  1.03387  0.0
H  H8  1  0.27969990  0.38387670  0.76276690  1  0.078746  0.000113  0.109424  0.113667  7.6e-05  1.00027  0.0
H  H9  1  0.98134525  0.63310434  0.75785420  1  0.126606  0.0001  0.112308  0.125616  5.6e-05  1.004638  0.0
H  H10  1  0.90563332  0.61909549  0.62100667  1  0.118827  0.000484  0.119153  0.088103  6.8e-05  1.042808  0.0
H  H11  1  0.95625348  0.00767231  0.82060144  1  0.115703  0.000158  0.115869  0.127975  0.000134  0.980047  0.0
H  H12  1  0.12062892  0.12414446  0.78913461  1  0.056743  -0.000282  0.107507  0.102408  -0.000284  0.986769  0.0
H  H13  1  0.23093707  0.19376217  0.62333227  1  0.12044  0.000209  0.10141  0.099783  0.000123  1.051318  0.0
H  H14  1  0.18126481  0.14201295  0.50027786  1  0.181393  0.000378  0.116619  0.077512  -1.4e-05  1.090561  0.0
H  H15  1  0.62228377  0.65570091  0.00690012  1  0.082552  0.001864  0.112003  0.077454  0.000566  1.027447  0.001
H  H16  1  0.73256388  0.78977323  0.90780620  1  0.095823  0.001057  0.106465  0.116051  0.000454  1.0096  0.0
H  H17  1  0.64972759  0.73001957  0.67498704  1  0.069477  0.001099  0.104002  0.113084  0.000443  1.03363  0.001
H  H18  1  0.54301468  0.59863044  0.78301354  1  0.08951  0.001932  0.114694  0.088225  0.000623  0.999129  0.001
H  H19  1  0.48921677  0.41867774  0.64675447  1  0.10426  -9e-05  0.110514  0.119865  -4.8e-05  1.026287  0.0
H  H20  1  0.57383536  0.25281499  0.67513041  1  0.084687  -0.000159  0.110248  0.106645  -0.000172  0.97268  0.0
H  H21  1  0.85122897  0.19609358  0.62904176  1  0.113293  -8.4e-05  0.104163  0.107737  -8.4e-05  1.040184  0.0
H  H22  1  0.03074378  0.30474859  0.55507280  1  0.133089  1.6e-05  0.11896  0.085956  -0.000225  1.061204  0.0
H  H23  1  0.35635236  0.97155450  0.46389946  1  0.092656  0.002113  0.114364  0.086154  0.000711  0.998788  0.001
H  H24  1  0.57743461  0.84978234  0.47845668  1  0.104756  0.000996  0.103281  0.110167  0.000398  1.052161  0.001
H  H25  1  0.26096292  0.66725159  0.60742041  1  0.141497  0.000947  0.10544  0.116673  0.000391  1.027842  0.001
H  H26  1  0.05181540  0.79684987  0.58908873  1  0.123738  0.001846  0.114164  0.082148  0.000568  1.029421  0.001
H  H27  1  0.01800015  0.32269032  0.97437900  1  0.129374  0.000158  0.114675  0.128243  0.000128  0.981864  0.0
H  H28  1  0.01924291  0.26962369  0.83673209  1  0.059215  -0.000271  0.101458  0.091461  -0.000293  1.004826  0.0
H  H29  1  0.78792457  0.31979759  0.76626951  1  0.085768  0.000122  0.093326  0.092985  5.3e-05  1.071814  0.0
H  H30  1  0.56546653  0.41779232  0.83449213  1  0.162167  0.000347  0.113211  0.075062  -3.4e-05  1.086178  0.0
H  H31  1  0.81280197  0.62243418  0.37150975  1  0.10959  0.000358  0.118643  0.08909  -1.2e-05  1.033965  0.0
H  H32  1  0.72029280  0.61611769  0.23723592  1  0.079062  0.000113  0.109418  0.113695  7.6e-05  1.000247  0.0
H  H33  1  0.01864592  0.36689143  0.24214333  1  0.126715  0.0001  0.112321  0.125617  5.6e-05  1.004631  0.0
H  H34  1  0.09437440  0.38090101  0.37898621  1  0.118979  0.000484  0.119147  0.088152  6.9e-05  1.042701  0.0
H  H35  1  0.04373857  0.99233205  0.17939403  1  0.115579  0.000158  0.115896  0.127997  0.000134  0.980268  0.0
H  H36  1  0.87937789  0.87585135  0.21086053  1  0.05673  -0.000282  0.107539  0.102423  -0.000284  0.986642  0.0
H  H37  1  0.76907910  0.80623228  0.37666634  1  0.120501  0.000209  0.101438  0.099755  0.000123  1.051155  0.0
H  H38  1  0.81875189  0.85798353  0.49971687  1  0.181486  0.000378  0.116655  0.0775  -1.4e-05  1.090545  0.0
H  H39  1  0.37770365  0.34431192  0.99310313  1  0.082401  0.001864  0.112042  0.077406  0.000566  1.027481  0.001
H  H40  1  0.26743861  0.21023378  0.09218946  1  0.095822  0.001056  0.106477  0.116122  0.000454  1.009676  0.0
H  H41  1  0.35026251  0.26997612  0.32501707  1  0.069441  0.0011  0.103999  0.113095  0.000443  1.03361  0.001
H  H42  1  0.45697304  0.40136977  0.21699790  1  0.089308  0.001932  0.114678  0.088177  0.000623  0.999243  0.001
H  H43  1  0.51078077  0.58131930  0.35324747  1  0.104274  -9e-05  0.110528  0.119941  -4.7e-05  1.026374  0.0
H  H44  1  0.42616435  0.74718214  0.32486413  1  0.084746  -0.000159  0.110241  0.106579  -0.000172  0.972617  0.0
H  H45  1  0.14876791  0.80390557  0.37094942  1  0.112763  -8.4e-05  0.104228  0.107808  -8.4e-05  1.04008  0.0
H  H46  1  0.96925463  0.69524918  0.44492303  1  0.133065  1.6e-05  0.118987  0.086024  -0.000225  1.061173  0.0
H  H47  1  0.64365415  0.02844645  0.53610572  1  0.092225  0.002113  0.114391  0.086205  0.000711  0.99878  0.001
H  H48  1  0.42257179  0.15021916  0.52155731  1  0.104872  0.000996  0.103263  0.110112  0.000398  1.052082  0.001
H  H49  1  0.73903761  0.33275069  0.39258399  1  0.141559  0.000947  0.105448  0.116701  0.000391  1.027878  0.001
H  H50  1  0.94818956  0.20315248  0.41091050  1  0.123553  0.001847  0.114182  0.082133  0.000568  1.029328  0.001
C  C51  1  0.19871280  0.52183843  0.84331987  1  0.917746  -0.001356  0.192371  0.231679  -0.001795  4.092857  -0.001
C  C52  1  0.21940673  0.56771423  0.95037312  1  0.998133  -0.003168  0.201819  0.213195  -0.003794  4.101916  -0.002
C  C53  1  0.20659365  0.60416094  0.02580226  1  0.427027  -0.007163  0.123845  0.164011  -0.00767  3.983211  -0.005
C  C54  1  0.07853651  0.65926125  0.05935181  1  0.006839  0.001454  -0.078771  -0.146748  0.000446  3.941467  0.001
C  C55  1  0.07909489  0.68771908  0.13485158  1  -0.08811  -0.009524  -0.078434  -0.042791  -0.009958  4.031621  -0.006
C  C56  1  0.20728596  0.65980027  0.17435959  1  -0.008249  0.001259  -0.097237  -0.139813  0.000271  3.997849  0.001
C  C57  1  0.33154965  0.60488805  0.13722882  1  0.407195  -0.007147  0.043066  0.083911  -0.007458  3.91144  -0.004
C  C58  1  0.14588601  0.43355737  0.65846120  1  0.420483  -0.004438  0.037276  0.069048  -0.004766  3.943919  -0.003
C  C59  1  0.19716474  0.43764577  0.73275996  1  -0.02732  0.000191  -0.085232  -0.171917  -0.000201  3.98293  0.0
C  C60  1  0.14222452  0.51106118  0.76956551  1  0.089823  -0.006091  0.019409  0.084813  -0.006385  4.001394  -0.004
C  C61  1  0.03066942  0.57593563  0.73034498  1  -0.054803  0.000456  -0.077595  -0.150615  -7.3e-05  3.916409  0.0
C  C62  1  0.98770990  0.56830732  0.65474515  1  0.424886  -0.005213  0.040763  0.073171  -0.005555  3.928686  -0.003
C  C63  1  0.77293777  0.84592540  0.72615594  1  0.960279  -0.00124  0.195211  0.242735  -0.001701  4.076833  -0.001
C  C64  1  0.89528286  0.95031556  0.68781553  1  0.987266  -0.003554  0.195315  0.205072  -0.004235  4.130235  -0.002
C  C65  1  0.98504099  0.01575038  0.67831235  1  0.438704  -0.007274  0.119826  0.157206  -0.007776  3.998699  -0.005
C  C66  1  0.00933941  0.03996209  0.75151287  1  -0.010806  0.001174  -0.078727  -0.149065  0.000292  3.951243  0.001
C  C67  1  0.10012091  0.10376263  0.73332131  1  -0.094069  -0.009768  -0.075701  -0.042915  -0.010187  4.014989  -0.006
C  C68  1  0.16308879  0.14136217  0.64230387  1  -0.04978  0.001167  -0.094278  -0.146042  0.000259  4.007631  0.001
C  C69  1  0.13490612  0.11380186  0.57239327  1  0.415222  -0.007421  0.043838  0.079863  -0.007734  3.901451  -0.005
C  C70  1  0.62941743  0.67485280  0.93299196  1  0.520117  -0.002866  0.038554  0.083449  -0.003522  3.977696  -0.002
C  C71  1  0.69012671  0.74900806  0.87838205  1  -0.055581  0.003712  -0.084716  -0.160127  0.001901  3.954344  0.003
C  C72  1  0.70022121  0.77090038  0.78321152  1  0.001551  -0.005035  0.010996  0.069791  -0.005319  4.007952  -0.003
C  C73  1  0.64499953  0.71608109  0.74822633  1  0.023303  0.004174  -0.088129  -0.171812  0.002192  3.937033  0.003
C  C74  1  0.58608087  0.64265031  0.80835338  1  0.481425  -0.001867  0.044025  0.0919  -0.002543  3.941865  -0.001
C  C75  1  0.55853891  0.67143454  0.54702139  1  0.936531  0.003164  0.189834  0.235388  0.001752  4.091653  0.004
C  C76  1  0.67227863  0.54077462  0.56818654  1  0.981805  -0.001609  0.192561  0.202845  -0.002609  4.121672  0.0
C  C77  1  0.71411684  0.44575808  0.58795151  1  0.430184  -0.005578  0.127976  0.170741  -0.005894  3.956436  -0.004
C  C78  1  0.60721468  0.38901240  0.62882385  1  -0.017743  0.00061  -0.074059  -0.136842  2.2e-05  3.914639  0.001
C  C79  1  0.65503037  0.29840557  0.64410534  1  0.000757  -0.006568  -0.069065  -0.033231  -0.006834  3.98884  -0.004
C  C80  1  0.80916516  0.26654211  0.61848840  1  -0.014399  0.000684  -0.090037  -0.137527  -2.1e-05  3.996622  0.001
C  C81  1  0.90993065  0.32636400  0.57751228  1  0.397407  -0.00619  0.044841  0.070987  -0.006505  3.914686  -0.004
C  C82  1  0.33980208  0.90306155  0.49577904  1  0.465773  -0.001896  0.038645  0.083017  -0.002676  3.974358  -0.001
C  C83  1  0.46283069  0.83492769  0.50353412  1  -0.02623  0.003781  -0.090578  -0.178593  0.001977  3.959688  0.003
C  C84  1  0.43719235  0.74734541  0.54289392  1  -0.065985  -0.003272  0.012027  0.072489  -0.003642  4.012113  -0.002
C  C85  1  0.28599207  0.73399425  0.57602408  1  -0.020888  0.00433  -0.085381  -0.160122  0.002264  3.940725  0.003
C  C86  1  0.17020523  0.80588633  0.56564630  1  0.428247  -0.001995  0.03885  0.08497  -0.002722  3.958088  -0.002
C  C87  1  0.80127469  0.47815856  0.15668554  1  0.917627  -0.001355  0.192375  0.231658  -0.001795  4.092816  -0.001
C  C88  1  0.78058236  0.43228878  0.04962576  1  0.997915  -0.003168  0.201892  0.213307  -0.003794  4.101754  -0.002
C  C89  1  0.79340197  0.39584273  0.97419608  1  0.427009  -0.00716  0.12381  0.163954  -0.007667  3.983314  -0.005
C  C90  1  0.92145993  0.34073970  0.94065361  1  0.006916  0.001454  -0.078746  -0.14676  0.000446  3.941147  0.001
C  C91  1  0.92090264  0.31227797  0.86514972  1  -0.089935  -0.009528  -0.07844  -0.042868  -0.00996  4.031459  -0.006
C  C92  1  0.79272274  0.34020076  0.82563947  1  -0.008132  0.00126  -0.097229  -0.139719  0.000271  3.997911  0.001
C  C93  1  0.66845433  0.39511371  0.86276498  1  0.407243  -0.007152  0.042995  0.083768  -0.007462  3.91136  -0.004
C  C94  1  0.85410947  0.56643904  0.34153869  1  0.420288  -0.004438  0.037329  0.068935  -0.004766  3.944148  -0.003
C  C95  1  0.80282780  0.56234924  0.26724590  1  -0.02727  0.000191  -0.085224  -0.171913  -0.000201  3.983212  0.0
C  C96  1  0.85776444  0.48893454  0.23043685  1  0.089259  -0.006092  0.019439  0.084838  -0.006386  4.001337  -0.004
C  C97  1  0.96932234  0.42405812  0.26965626  1  -0.05408  0.000456  -0.077605  -0.15054  -7.3e-05  3.916395  0.0
C  C98  1  0.01229076  0.43169046  0.34525034  1  0.424164  -0.005213  0.040785  0.073089  -0.005554  3.928686  -0.003
C  C99  1  0.22706884  0.15407502  0.27383914  1  0.959778  -0.001239  0.195074  0.242624  -0.001699  4.076809  -0.001
C  C100  1  0.10471682  0.04968555  0.31217720  1  0.987079  -0.003557  0.195362  0.205269  -0.004237  4.130105  -0.002
C  C101  1  0.01496096  0.98425462  0.32168527  1  0.438769  -0.007269  0.119888  0.157016  -0.007772  3.99872  -0.005
C  C102  1  0.99065894  0.96003972  0.24847665  1  -0.011479  0.001172  -0.078782  -0.149009  0.000291  3.951083  0.001
C  C103  1  0.89988020  0.89623372  0.26668350  1  -0.093679  -0.009756  -0.075632  -0.04298  -0.010175  4.015493  -0.006
C  C104  1  0.83692526  0.85863567  0.35768701  1  -0.049914  0.001165  -0.094435  -0.145955  0.000258  4.007673  0.001
C  C105  1  0.86510315  0.88619718  0.42760694  1  0.415961  -0.007424  0.043904  0.079905  -0.007737  3.901127  -0.005
C  C106  1  0.37057672  0.32515608  0.06701080  1  0.520747  -0.002867  0.038542  0.083459  -0.003522  3.977578  -0.002
C  C107  1  0.30987188  0.25099695  0.12161480  1  -0.055812  0.003711  -0.084732  -0.160254  0.0019  3.954421  0.003
C  C108  1  0.29978058  0.22910130  0.21678776  1  0.001195  -0.005034  0.011122  0.06999  -0.005317  4.008151  -0.003
C  C109  1  0.35499502  0.28391857  0.25177656  1  0.023465  0.004175  -0.088067  -0.171789  0.002192  3.937203  0.003
C  C110  1  0.41391146  0.35735327  0.19165188  1  0.481666  -0.001867  0.043944  0.091814  -0.002542  3.942254  -0.001
C  C111  1  0.44146145  0.32856443  0.45298338  1  0.936486  0.003165  0.189798  0.235364  0.001753  4.09179  0.004
C  C112  1  0.32771948  0.45922436  0.43181794  1  0.981727  -0.00161  0.192663  0.203008  -0.002609  4.121657  0.0
C  C113  1  0.28588126  0.55424092  0.41205168  1  0.430321  -0.005577  0.12797  0.170724  -0.005893  3.956755  -0.004
C  C114  1  0.39278902  0.61098267  0.37117775  1  -0.017424  0.000611  -0.074031  -0.136957  2.3e-05  3.914621  0.001
C  C115  1  0.34496414  0.70159416  0.35589178  1  0.000789  -0.00657  -0.069087  -0.03305  -0.006836  3.988656  -0.004
C  C116  1  0.19083699  0.73345436  0.38150661  1  -0.013953  0.000685  -0.090148  -0.137741  -2.1e-05  3.996942  0.001
C  C117  1  0.09006589  0.67363641  0.42248369  1  0.397551  -0.006194  0.044773  0.070845  -0.006509  3.914656  -0.004
C  C118  1  0.66020313  0.09694005  0.50422678  1  0.467154  -0.001898  0.038632  0.082965  -0.002676  3.97438  -0.001
C  C119  1  0.53717604  0.16507255  0.49647443  1  -0.026901  0.003781  -0.090646  -0.178574  0.001977  3.959764  0.003
C  C120  1  0.56280725  0.25265619  0.45711147  1  -0.066201  -0.003274  0.012172  0.072566  -0.003643  4.012089  -0.002
C  C121  1  0.71401198  0.26600740  0.42397742  1  -0.02093  0.00433  -0.085464  -0.160274  0.002264  3.940856  0.003
C  C122  1  0.82979488  0.19411732  0.43435393  1  0.428453  -0.001994  0.038909  0.085126  -0.002721  3.957792  -0.002
N  N123  1  0.34938541  0.51058286  0.93120452  1  -0.697169  -0.009594  -0.251297  -0.154758  -0.008503  3.657869  -0.006
N  N124  1  0.33655460  0.47976225  0.86295446  1  -0.636705  -0.008205  -0.221745  -0.262727  -0.00842  3.193044  -0.006
N  N125  1  0.12242452  0.57758344  0.89611892  1  -1.168831  -0.002047  -0.339291  -0.404179  -0.001864  3.160251  -0.001
N  N126  1  0.33305227  0.57718391  0.06371354  1  -1.154806  0.002249  -0.313586  -0.195512  0.001298  3.555982  0.004
N  N127  1  0.04550837  0.49897970  0.61731567  1  -1.198849  -0.003275  -0.33306  -0.172269  -0.002875  3.634061  -0.001
N  N128  1  0.88118895  0.93610930  0.60903463  1  -0.70899  -0.008998  -0.257425  -0.165849  -0.008106  3.66429  -0.005
N  N129  1  0.80199884  0.86897925  0.63293880  1  -0.715477  -0.00705  -0.223713  -0.259524  -0.007252  3.183596  -0.006
N  N130  1  0.82869411  0.89566589  0.76284138  1  -1.168393  -0.002676  -0.347803  -0.42296  -0.002554  3.187911  -0.002
N  N131  1  0.04773011  0.05166735  0.58909075  1  -1.147794  0.002258  -0.317554  -0.200968  0.001224  3.559931  0.005
N  N132  1  0.57873141  0.62146975  0.89938110  1  -1.227692  0.073042  -0.313291  -0.218051  0.039268  3.522796  0.064
N  N133  1  0.78050766  0.59245975  0.52731219  1  -0.717466  0.060442  -0.232993  -0.228494  0.033672  3.480579  0.052
N  N134  1  0.70831371  0.67723579  0.51298914  1  -0.692903  0.00655  -0.236813  -0.282508  0.002782  3.189652  0.005
N  N135  1  0.53146133  0.58708994  0.58234494  1  -1.177574  -0.000707  -0.342136  -0.413345  -0.001125  3.17773  -0.001
N  N136  1  0.86414665  0.41449019  0.56208907  1  -1.178369  -0.008837  -0.326733  -0.193066  -0.008041  3.618109  -0.006
N  N137  1  0.19491297  0.88951422  0.52516054  1  -1.212146  0.072508  -0.316292  -0.221379  0.038972  3.529578  0.064
N  N138  1  0.65060817  0.48942014  0.06879497  1  -0.69731  -0.009593  -0.251364  -0.154881  -0.008501  3.657866  -0.006
N  N139  1  0.66343658  0.52023742  0.13704767  1  -0.636725  -0.008204  -0.221694  -0.262629  -0.008419  3.192947  -0.006
N  N140  1  0.87756780  0.42241621  0.10388432  1  -1.168478  -0.002045  -0.339359  -0.404258  -0.001863  3.160149  -0.001
N  N141  1  0.66694761  0.42282046  0.93628202  1  -1.155016  0.002247  -0.31357  -0.19548  0.001297  3.555879  0.004
N  N142  1  0.95449587  0.50101342  0.38268323  1  -1.198688  -0.003274  -0.333129  -0.172222  -0.002875  3.633844  -0.001
N  N143  1  0.11881560  0.06389048  0.39095968  1  -0.708631  -0.008997  -0.257392  -0.165904  -0.008107  3.664295  -0.005
N  N144  1  0.19800834  0.13101919  0.36705743  1  -0.715541  -0.007053  -0.223646  -0.259445  -0.007255  3.183431  -0.006
N  N145  1  0.17130838  0.10433717  0.23715289  1  -1.16795  -0.002676  -0.347869  -0.423063  -0.002555  3.187737  -0.002
N  N146  1  0.95227442  0.94833639  0.41090238  1  -1.148122  0.002255  -0.317658  -0.20095  0.001222  3.560124  0.005
N  N147  1  0.42126371  0.37853580  0.10062443  1  -1.227872  0.073037  -0.313319  -0.217943  0.039266  3.522733  0.064
N  N148  1  0.21948857  0.40753795  0.47268976  1  -0.717371  0.060446  -0.233007  -0.228492  0.033675  3.480666  0.052
N  N149  1  0.29168568  0.32276258  0.48701149  1  -0.69297  0.00655  -0.236843  -0.282588  0.002782  3.189852  0.005
N  N150  1  0.46853534  0.41291029  0.41766451  1  -1.17751  -0.000707  -0.34219  -0.413413  -0.001126  3.177799  -0.001
N  N151  1  0.13585533  0.58550690  0.43790899  1  -1.178887  -0.008837  -0.326683  -0.192966  -0.00804  3.618096  -0.006
N  N152  1  0.80509313  0.11048810  0.47484109  1  -1.212363  0.072511  -0.316335  -0.221437  0.038974  3.529318  0.064
