# generated using pymatgen
data_Mn2As2H8C12S5N2
_symmetry_space_group_name_H-M   'P 1'
_cell_length_a   11.81165447
_cell_length_b   12.35200000
_cell_length_c   12.36820197
_cell_angle_alpha   112.27004935
_cell_angle_beta   90.00000000
_cell_angle_gamma   90.00000000
_symmetry_Int_Tables_number   1
_chemical_formula_structural   Mn2As2H8C12S5N2
_chemical_formula_sum   'Mn8 As8 H32 C48 S20 N8'
_cell_volume   1669.88979578
_cell_formula_units_Z   4
loop_
 _symmetry_equiv_pos_site_id
 _symmetry_equiv_pos_as_xyz
  1  'x, y, z'
loop_
 _atom_site_type_symbol
 _atom_site_label
 _atom_site_symmetry_multiplicity
 _atom_site_fract_x
 _atom_site_fract_y
 _atom_site_fract_z
 _atom_site_occupancy
 _atom_site_hle17_ddec_charge
 _atom_site_hle17_ddec_spin_density
 _atom_site_hle17_ddec_sum_bond_order
 _atom_site_hle17_magmom
 _atom_site_hse06_10hf_ddec_charge
 _atom_site_hse06_10hf_ddec_spin_density
 _atom_site_hse06_10hf_ddec_sum_bond_order
 _atom_site_hse06_10hf_magmom
 _atom_site_hse06_ddec_charge
 _atom_site_hse06_ddec_spin_density
 _atom_site_hse06_ddec_sum_bond_order
 _atom_site_hse06_magmom
 _atom_site_pbe_bader_charge
 _atom_site_pbe_bader_spin_density
 _atom_site_pbe_cm5_charge
 _atom_site_pbe_ddec_charge
 _atom_site_pbe_ddec_spin_density
 _atom_site_pbe_ddec_sum_bond_order
 _atom_site_pbe_magmom
Mn  Mn0  1  0.79256043  0.27709951  0.13874637  1  0.758903  4.676125  2.294803  4.538  0.614048  4.548553  2.79714  4.355  0.678421  4.653321  2.741006  4.473  1.235251  4.322983  0.398624  0.558663  4.413524  2.844123  4.212
Mn  Mn1  1  0.29256020  0.22289263  0.86125254  1  0.758927  4.676121  2.29481  4.538  0.614096  4.548541  2.797138  4.355  0.678466  4.653309  2.741009  4.473  1.235097  4.32318  0.398678  0.558732  4.413735  2.84416  4.212
Mn  Mn2  1  0.20743241  0.72289010  0.86125866  1  0.758888  4.676167  2.294892  4.538  0.614074  4.548583  2.797224  4.355  0.678441  4.653357  2.741098  4.473  1.235128  4.32321  0.398692  0.558731  4.413817  2.844238  4.212
Mn  Mn3  1  0.70743857  0.77710484  0.13874550  1  0.758872  4.676138  2.294945  4.538  0.614034  4.548534  2.797299  4.355  0.678437  4.653311  2.741127  4.473  1.235173  4.323163  0.398661  0.558682  4.413689  2.844268  4.212
Mn  Mn4  1  0.65444600  0.01214901  0.00417190  1  0.739014  -4.636545  2.373359  -4.513  0.630881  -4.503734  2.858906  -4.334  0.694522  -4.616172  2.806523  -4.459  1.159159  -4.296818  0.276836  0.573967  -4.35904  2.905299  -4.183
Mn  Mn5  1  0.15444830  0.48785351  0.99582877  1  0.738953  -4.636553  2.37351  -4.513  0.630809  -4.503728  2.859098  -4.334  0.694485  -4.616185  2.80666  -4.459  1.159062  -4.296842  0.276821  0.573884  -4.359067  2.905513  -4.183
Mn  Mn6  1  0.34555193  0.98785027  0.99582877  1  0.738976  -4.636613  2.373448  -4.513  0.630802  -4.503739  2.859085  -4.334  0.694495  -4.6162  2.80661  -4.459  1.159057  -4.296856  0.276795  0.573884  -4.359075  2.905499  -4.183
Mn  Mn7  1  0.84555555  0.51214739  0.00417190  1  0.738988  -4.636556  2.373407  -4.513  0.63085  -4.50371  2.858968  -4.334  0.694529  -4.616173  2.806526  -4.459  1.159163  -4.296836  0.27682  0.573933  -4.359054  2.905376  -4.183
As  As8  1  0.20079406  0.25740083  0.12226148  1  0.526072  -0.006312  2.799495  -0.003  0.491476  -0.00864  3.235541  -0.004  0.507494  -0.006068  3.235096  -0.003  0.794358  -0.011327  0.212757  0.478131  -0.010902  3.234891  -0.005
As  As9  1  0.70080530  0.24259293  0.87773743  1  0.526126  -0.006304  2.799487  -0.003  0.491534  -0.008648  3.235533  -0.004  0.50755  -0.006075  3.235082  -0.003  0.794434  -0.01133  0.212783  0.478179  -0.010902  3.234888  -0.005
As  As10  1  0.79919541  0.74259084  0.87773831  1  0.526098  -0.006365  2.799525  -0.003  0.491507  -0.008647  3.23556  -0.004  0.507521  -0.006084  3.235115  -0.003  0.794384  -0.011336  0.212756  0.478157  -0.010906  3.234915  -0.005
As  As11  1  0.29920025  0.75740410  0.12226585  1  0.52612  -0.006302  2.799357  -0.003  0.491538  -0.008648  3.235397  -0.004  0.50755  -0.006085  3.234947  -0.003  0.794372  -0.011338  0.212783  0.47819  -0.010911  3.234747  -0.005
As  As12  1  0.49952359  0.25511639  0.12696634  1  0.555748  -0.024158  2.805129  -0.011  0.520932  -0.037707  3.239073  -0.016  0.540118  -0.029413  3.237673  -0.013  0.836299  -0.051402  0.214694  0.503653  -0.054078  3.239888  -0.024
As  As13  1  0.99953567  0.24488366  0.87302996  1  0.555719  -0.024183  2.805079  -0.011  0.520906  -0.037707  3.239034  -0.016  0.540087  -0.029417  3.237639  -0.013  0.836565  -0.051406  0.214669  0.503625  -0.054086  3.23985  -0.024
As  As14  1  0.50046249  0.74488123  0.87302996  1  0.55574  -0.02412  2.805096  -0.011  0.52093  -0.037709  3.239042  -0.016  0.540116  -0.029406  3.237646  -0.013  0.836534  -0.051407  0.214652  0.503651  -0.054087  3.239856  -0.024
As  As15  1  0.00047072  0.75511886  0.12697070  1  0.555775  -0.024201  2.805038  -0.011  0.520964  -0.037707  3.238987  -0.016  0.540146  -0.029408  3.23759  -0.013  0.836471  -0.051405  0.21471  0.503686  -0.054083  3.239801  -0.024
H  H16  1  0.98828069  0.08258193  0.10912722  1  0.089817  0.001005  0.941693  0.0  0.094329  0.001911  1.013592  0.001  0.097558  0.001492  1.010169  0.0  0.10298  0.002851  0.106592  0.090349  0.002348  1.018669  0.001
H  H17  1  0.48828469  0.41740506  0.89087519  1  0.089928  0.001007  0.941634  0.0  0.094389  0.00191  1.01357  0.001  0.097616  0.001491  1.010154  0.0  0.103022  0.00285  0.106635  0.090413  0.002347  1.018644  0.001
H  H18  1  0.01171470  0.91741044  0.89087869  1  0.089883  0.001004  0.941812  0.0  0.094366  0.00191  1.013707  0.001  0.097596  0.001491  1.01028  0.0  0.102907  0.002851  0.106617  0.090388  0.002347  1.018779  0.001
H  H19  1  0.51172340  0.58258998  0.10912285  1  0.089862  0.001009  0.941736  0.0  0.094327  0.00191  1.013657  0.001  0.097546  0.001491  1.01026  0.0  0.10301  0.002851  0.106613  0.09035  0.002348  1.01873  0.001
H  H20  1  0.11837376  0.03050604  0.23964600  1  0.109003  0.001314  0.995966  0.0  0.11468  0.001647  1.06309  0.0  0.11881  0.001382  1.061528  0.0  0.14212  0.002094  0.089158  0.111468  0.001771  1.064719  0.001
H  H21  1  0.61837569  0.46948489  0.76036253  1  0.109103  0.001315  0.995896  0.0  0.114792  0.001647  1.063015  0.0  0.118933  0.001381  1.061433  0.0  0.142202  0.002095  0.08918  0.111548  0.001771  1.064684  0.001
H  H22  1  0.88162840  0.96949361  0.76035991  1  0.108999  0.001315  0.995909  0.0  0.114662  0.001647  1.063064  0.0  0.118794  0.001381  1.061499  0.0  0.142145  0.002095  0.089143  0.111449  0.001771  1.064693  0.001
H  H23  1  0.38163324  0.53050678  0.23963726  1  0.108997  0.00132  0.995981  0.0  0.114671  0.001647  1.06311  0.0  0.118809  0.001382  1.061535  0.0  0.142145  0.002096  0.089138  0.11146  0.001772  1.064742  0.001
H  H24  1  0.12282022  0.15734681  0.45502947  1  0.104919  -0.000228  0.928076  0.0  0.117502  -0.000262  0.983378  0.0  0.120475  -0.000225  0.981689  0.0  0.085436  -0.000232  0.10866  0.115195  -0.000234  0.984961  0.0
H  H25  1  0.62281961  0.34265461  0.54497469  1  0.104968  -0.000227  0.928039  0.0  0.117523  -0.000262  0.983373  0.0  0.120497  -0.000225  0.981682  0.0  0.085559  -0.000231  0.108666  0.115222  -0.000234  0.984952  0.0
H  H26  1  0.87718702  0.84265752  0.54497382  1  0.104994  -0.000227  0.928034  0.0  0.117545  -0.000262  0.983364  0.0  0.120519  -0.000224  0.981675  0.0  0.085538  -0.000232  0.108698  0.11524  -0.000234  0.984941  0.0
H  H27  1  0.37718340  0.65734610  0.45502335  1  0.105007  -0.000187  0.928058  0.0  0.11756  -0.000262  0.983396  0.0  0.120532  -0.000225  0.981707  0.0  0.085565  -0.000231  0.10869  0.115255  -0.000234  0.98498  0.0
H  H28  1  0.04384568  0.33162492  0.62077915  1  0.105064  6.9e-05  0.990918  0.0  0.112106  -0.000135  1.058631  0.0  0.116011  -9.9e-05  1.057065  0.0  0.117688  -0.000125  0.087833  0.108932  -0.000162  1.059641  0.0
H  H29  1  0.54383914  0.16837745  0.37922326  1  0.105054  6.9e-05  0.990893  0.0  0.112096  -0.000135  1.058602  0.0  0.115991  -9.9e-05  1.057069  0.0  0.117856  -0.000125  0.087847  0.108926  -0.000162  1.059615  0.0
H  H30  1  0.95615902  0.66837926  0.37922588  1  0.105074  7.1e-05  0.990891  0.0  0.112114  -0.000135  1.058601  0.0  0.116018  -9.9e-05  1.057039  0.0  0.117787  -0.000124  0.087852  0.108941  -0.000162  1.059612  0.0
H  H31  1  0.45615540  0.83162797  0.62077653  1  0.105098  7.3e-05  0.990917  0.0  0.112122  -0.000135  1.058643  0.0  0.116031  -9.9e-05  1.057072  0.0  0.117759  -0.000125  0.08784  0.10895  -0.000162  1.059649  0.0
H  H32  1  0.91028145  0.49735601  0.68982034  1  0.110347  0.000391  0.943487  0.0  0.117834  0.000473  1.010623  0.0  0.120999  0.000457  1.00931  0.0  0.06011  0.000221  0.098748  0.114941  0.000469  1.012319  0.0
H  H33  1  0.41027953  0.00264714  0.31017771  1  0.110341  0.000391  0.943528  0.0  0.117837  0.000473  1.010658  0.0  0.121004  0.000457  1.009342  0.0  0.061141  0.00022  0.098765  0.114947  0.000469  1.012353  0.0
H  H34  1  0.08972155  0.50264636  0.31018207  1  0.110377  0.000392  0.943532  0.0  0.117834  0.000473  1.010686  0.0  0.120997  0.000457  1.009376  0.0  0.060159  0.000222  0.098777  0.114941  0.00047  1.012381  0.0
H  H35  1  0.58972094  0.99735711  0.68981684  1  0.110377  0.000389  0.943518  0.0  0.117839  0.000473  1.010657  0.0  0.121001  0.000457  1.009349  0.0  0.060115  0.000221  0.09877  0.114948  0.000469  1.012355  0.0
H  H36  1  0.75943298  0.61991344  0.64335545  1  0.086655  -0.000449  0.991294  0.0  0.090362  -0.000618  1.069299  0.0  0.094101  -0.000496  1.065953  0.0  0.09414  -0.001005  0.091978  0.087216  -0.00073  1.072237  0.0
H  H37  1  0.25943275  0.88008808  0.35664259  1  0.086587  -0.000452  0.991357  0.0  0.090327  -0.000617  1.069336  0.0  0.094067  -0.000496  1.065986  0.0  0.094081  -0.001005  0.091965  0.087186  -0.00073  1.072269  0.0
H  H38  1  0.24057172  0.38009250  0.35664783  1  0.086635  -0.000452  0.9913  0.0  0.090364  -0.000618  1.069288  0.0  0.094111  -0.000496  1.065928  0.0  0.094187  -0.001003  0.091941  0.087217  -0.000729  1.072223  0.0
H  H39  1  0.74057110  0.11991230  0.64335458  1  0.086634  -0.000455  0.991301  0.0  0.090363  -0.000618  1.069293  0.0  0.094106  -0.000496  1.065938  0.0  0.094121  -0.001004  0.09198  0.087219  -0.000729  1.072228  0.0
H  H40  1  0.64978281  0.66154302  0.49243587  1  0.098845  0.000112  0.989665  0.0  0.108247  -7.9e-05  1.051071  0.0  0.110748  -5.8e-05  1.051971  0.0  0.09573  0.000156  0.099583  0.106245  -6.3e-05  1.05096  0.0
H  H41  1  0.14978257  0.83845214  0.50755605  1  0.098779  0.000137  0.989779  0.0  0.108227  -7.9e-05  1.051133  0.0  0.110751  -5.8e-05  1.052008  0.0  0.096134  0.000156  0.099587  0.106228  -6.4e-05  1.051022  0.0
H  H42  1  0.35022105  0.33845836  0.50756392  1  0.098829  0.000118  0.989702  0.0  0.108237  -7.9e-05  1.051099  0.0  0.110735  -5.8e-05  1.051999  0.0  0.095904  0.000156  0.099581  0.106235  -6.3e-05  1.050989  0.0
H  H43  1  0.85022297  0.16154335  0.49243675  1  0.098819  0.000124  0.989854  0.0  0.108233  -7.9e-05  1.051234  0.0  0.110767  -5.9e-05  1.052098  0.0  0.095702  0.000156  0.099577  0.106231  -6.3e-05  1.051126  0.0
H  H44  1  0.67489953  0.53135774  0.28038031  1  0.079603  -5.3e-05  0.962087  0.0  0.088192  0.000215  1.028552  0.0  0.090193  0.000156  1.026824  0.0  0.092591  0.000723  0.106641  0.086224  0.000195  1.030619  0.0
H  H45  1  0.17489421  0.96863679  0.71961423  1  0.079639  -5.9e-05  0.962087  0.0  0.088206  0.000214  1.028577  0.0  0.090208  0.000156  1.026847  0.0  0.092553  0.000722  0.106661  0.086239  0.000194  1.030645  0.0
H  H46  1  0.32510179  0.46863863  0.71962122  1  0.079635  -5.8e-05  0.962071  0.0  0.088227  0.000214  1.028527  0.0  0.090229  0.000156  1.026794  0.0  0.09246  0.000722  0.106644  0.086258  0.000194  1.030594  0.0
H  H47  1  0.82510287  0.03136536  0.28038119  1  0.079624  -5.6e-05  0.962086  0.0  0.088196  0.000215  1.02856  0.0  0.090199  0.000156  1.026829  0.0  0.092465  0.000723  0.106633  0.086229  0.000195  1.030627  0.0
C  C48  1  0.99220139  0.13700695  0.20213737  1  0.136221  0.005806  3.67997  0.005  0.099868  0.008501  3.9508  0.006  0.110335  0.007616  3.963786  0.006  0.475421  0.011697  0.051616  0.092191  0.010182  3.943404  0.007
C  C49  1  0.49220285  0.36298328  0.79786504  1  0.136123  0.005787  3.679937  0.005  0.099829  0.008503  3.950787  0.006  0.110295  0.007625  3.963772  0.006  0.475865  0.011694  0.051623  0.092157  0.01018  3.943386  0.007
C  C50  1  0.00779738  0.86299141  0.79786941  1  0.136083  0.005805  3.680024  0.005  0.099796  0.008503  3.950838  0.006  0.110266  0.007619  3.963828  0.006  0.475903  0.011694  0.05156  0.092122  0.01018  3.943441  0.007
C  C51  1  0.50780100  0.63701420  0.20213300  1  0.136232  0.005726  3.680037  0.005  0.099946  0.00851  3.950841  0.006  0.110419  0.007618  3.963819  0.006  0.475877  0.011698  0.051646  0.09227  0.010184  3.943454  0.007
C  C52  1  0.06506794  0.10784359  0.27712318  1  -0.117847  -1.4e-05  3.731832  0.0  -0.13414  0.000848  3.994257  0.001  -0.140842  0.000191  4.012291  0.0  -0.053229  0.001568  -0.089779  -0.131535  0.00123  3.984969  0.001
C  C53  1  0.56506902  0.39214778  0.72288011  1  -0.117981  -1e-06  3.732049  0.0  -0.134267  0.000845  3.994376  0.001  -0.140974  0.000187  4.01241  0.0  -0.053715  0.001571  -0.08985  -0.131632  0.001232  3.9851  0.001
C  C54  1  0.93493592  0.89215345  0.72288011  1  -0.11786  -9e-06  3.732022  0.0  -0.134145  0.000843  3.994404  0.001  -0.14085  0.000202  4.012443  0.0  -0.053743  0.001572  -0.089794  -0.131536  0.001233  3.985107  0.001
C  C55  1  0.43493568  0.60784693  0.27711706  1  -0.117889  -8e-06  3.73195  0.0  -0.134144  0.000839  3.994281  0.001  -0.140843  0.000187  4.012305  0.0  -0.053663  0.00157  -0.089757  -0.131537  0.001231  3.984994  0.001
C  C56  1  0.06743678  0.17774014  0.39466059  1  -0.04518  0.003102  3.674723  0.003  -0.067708  0.004449  3.919874  0.003  -0.06339  0.004292  3.934797  0.003  -0.029825  0.00757  -0.064704  -0.071403  0.005847  3.91185  0.004
C  C57  1  0.56743533  0.32225884  0.60534357  1  -0.045212  0.003102  3.674808  0.003  -0.067718  0.004451  3.919938  0.003  -0.063399  0.00429  3.934858  0.003  -0.029674  0.007571  -0.064644  -0.071408  0.005848  3.911899  0.004
C  C58  1  0.93256876  0.82226355  0.60534532  1  -0.045209  0.003118  3.674842  0.003  -0.067693  0.004451  3.919951  0.003  -0.063381  0.004277  3.934877  0.003  -0.029813  0.007569  -0.064626  -0.071382  0.005847  3.911914  0.004
C  C59  1  0.43256514  0.67774106  0.39465447  1  -0.045299  0.003033  3.674598  0.003  -0.067807  0.004456  3.919751  0.003  -0.063489  0.004295  3.93468  0.003  -0.029982  0.007569  -0.064702  -0.071501  0.005846  3.911735  0.004
C  C60  1  0.99585626  0.27666115  0.43758001  1  0.017428  -0.000647  3.807655  -0.001  0.034914  -0.00019  4.037848  0.0  0.032563  -0.00062  4.060625  -0.001  -0.031916  0.000888  -0.003837  0.036317  0.000495  4.023641  0.0
C  C61  1  0.49584840  0.22333956  0.56241803  1  0.017457  -0.000641  3.807628  -0.001  0.034925  -0.000188  4.037832  0.0  0.032589  -0.000618  4.060583  -0.001  -0.032095  0.000887  -0.003828  0.036322  0.000495  4.023621  0.0
C  C62  1  0.00415014  0.72334074  0.56242327  1  0.017566  -0.000649  3.807652  -0.001  0.035026  -0.000191  4.037861  0.0  0.032687  -0.000614  4.060616  -0.001  -0.031912  0.000888  -0.003813  0.036431  0.000495  4.02365  0.0
C  C63  1  0.50414614  0.77666663  0.43757739  1  0.017641  -0.000641  3.807604  -0.001  0.035054  -0.000192  4.037857  0.0  0.032697  -0.000619  4.060647  -0.001  -0.031577  0.000888  -0.003798  0.036437  0.000495  4.023635  0.0
C  C64  1  0.92532676  0.29958380  0.35556969  1  0.129456  0.002091  3.728274  0.002  0.123175  0.004053  3.965482  0.004  0.127932  0.003579  3.986683  0.003  0.440924  0.005245  0.117923  0.118445  0.004107  3.951776  0.004
C  C65  1  0.42532145  0.20041644  0.64442922  1  0.129475  0.002079  3.728215  0.002  0.123227  0.004052  3.965388  0.004  0.127977  0.003574  3.986592  0.003  0.441294  0.005243  0.117992  0.118528  0.004105  3.951651  0.004
C  C66  1  0.07467624  0.70041681  0.64443447  1  0.129419  0.002085  3.728183  0.002  0.123167  0.004054  3.965398  0.004  0.127923  0.003568  3.986595  0.003  0.441024  0.005244  0.117968  0.11844  0.004106  3.951692  0.004
C  C67  1  0.57467140  0.79959090  0.35556707  1  0.12931  0.002088  3.728288  0.002  0.123093  0.004055  3.965472  0.004  0.127851  0.003574  3.986678  0.003  0.44093  0.005246  0.117973  0.118436  0.004108  3.951675  0.004
C  C68  1  0.98945072  0.35052773  0.55863929  1  -0.098797  -0.000209  3.72964  0.0  -0.123047  -0.000228  3.986192  0.0  -0.126125  -0.00029  4.006773  0.0  -0.013554  -0.000351  -0.089091  -0.120829  -0.000274  3.97326  0.0
C  C69  1  0.48944625  0.14947883  0.44136137  1  -0.098644  -0.000223  3.729546  0.0  -0.122893  -0.000224  3.986095  0.0  -0.125974  -0.000282  4.006662  0.0  -0.013873  -0.000353  -0.089072  -0.120678  -0.000275  3.973165  0.0
C  C70  1  0.01055060  0.64947887  0.44136574  1  -0.098698  -0.000257  3.729453  0.0  -0.122939  -0.000224  3.985988  0.0  -0.126019  -0.000296  4.006564  0.0  -0.013683  -0.000353  -0.089053  -0.120724  -0.000275  3.973054  0.0
C  C71  1  0.51054744  0.85052655  0.55863405  1  -0.098783  -0.000274  3.729554  0.0  -0.123002  -0.000227  3.986096  0.0  -0.126074  -0.00027  4.006673  0.0  -0.013784  -0.000353  -0.089037  -0.120781  -0.000275  3.973169  0.0
C  C72  1  0.91544076  0.44231308  0.59699104  1  -0.08477  -0.00018  3.712413  0.0  -0.106914  -0.000226  3.969979  0.0  -0.109389  -0.000251  3.991136  0.0  0.000625  6.6e-05  -0.083269  -0.105669  0.000244  3.956807  0.0
C  C73  1  0.41543545  0.05769006  0.40300700  1  -0.08487  -0.000175  3.71237  0.0  -0.107048  -0.00023  3.969938  0.0  -0.109523  -0.000256  3.9911  0.0  -0.000449  6.6e-05  -0.083286  -0.1058  0.000243  3.956764  0.0
C  C74  1  0.08456478  0.55768638  0.40301224  1  -0.085  -0.000147  3.712519  0.0  -0.107103  -0.000231  3.97009  0.0  -0.109576  -0.000235  3.99125  0.0  0.000647  6.7e-05  -0.083321  -0.105855  0.000245  3.956915  0.0
C  C75  1  0.58456078  0.94231842  0.59699017  1  -0.084852  -0.00012  3.712505  0.0  -0.106966  -0.000229  3.970021  0.0  -0.109433  -0.000266  3.991177  0.0  0.000777  6.6e-05  -0.083339  -0.105722  0.000244  3.956855  0.0
C  C76  1  0.84441092  0.46879424  0.51669491  1  0.018131  -0.001059  3.808197  -0.001  0.035093  -0.000452  4.037147  -0.001  0.032366  -0.000852  4.061227  -0.001  0.002344  -0.000148  -0.003387  0.0372  -0.000216  4.021403  0.0
C  C77  1  0.34440391  0.03120728  0.48330313  1  0.018113  -0.001119  3.808198  -0.001  0.035137  -0.000453  4.037047  -0.001  0.032395  -0.000851  4.061151  -0.001  0.0026  -0.000148  -0.003386  0.037246  -0.000216  4.021303  0.0
C  C78  1  0.15559209  0.53120879  0.48330925  1  0.018215  -0.001114  3.808384  -0.001  0.035143  -0.00045  4.03737  -0.001  0.032407  -0.00085  4.061466  -0.001  0.00263  -0.000146  -0.003434  0.037253  -0.000214  4.021616  0.0
C  C79  1  0.65558978  0.96880039  0.51669404  1  0.017925  -0.001155  3.808362  -0.001  0.034909  -0.000451  4.037266  -0.001  0.032169  -0.000854  4.061365  -0.001  0.00244  -0.000149  -0.003516  0.037017  -0.000216  4.021524  0.0
C  C80  1  0.85107552  0.39902290  0.39532722  1  0.129317  0.002978  3.74395  0.003  0.122002  0.004885  3.979749  0.004  0.126845  0.004017  4.001097  0.004  0.518566  0.006577  0.118412  0.118495  0.005227  3.966019  0.005
C  C81  1  0.35106682  0.10097829  0.60466995  1  0.129166  0.003028  3.743946  0.003  0.121893  0.004886  3.979659  0.004  0.126737  0.004016  4.001014  0.004  0.518531  0.006577  0.118294  0.11838  0.005227  3.965925  0.005
C  C82  1  0.14892918  0.60097542  0.60467519  1  0.129269  0.003017  3.743959  0.003  0.122001  0.004885  3.979772  0.004  0.126835  0.00401  4.001121  0.004  0.518526  0.006579  0.118409  0.118495  0.005228  3.966038  0.005
C  C83  1  0.64892433  0.89903000  0.39532460  1  0.129318  0.003048  3.743959  0.003  0.122025  0.004886  3.979721  0.004  0.126866  0.004013  4.001073  0.004  0.518124  0.006578  0.118414  0.1185  0.005227  3.965978  0.005
C  C84  1  0.76828610  0.56384710  0.55121288  1  -0.045619  0.003688  3.701545  0.003  -0.067874  0.00463  3.947966  0.003  -0.064301  0.004278  3.963552  0.003  -0.082353  0.007232  -0.068388  -0.072024  0.005575  3.939604  0.004
C  C85  1  0.26827994  0.93614905  0.44878167  1  -0.045553  0.003856  3.701532  0.003  -0.067876  0.004628  3.947975  0.003  -0.064293  0.004272  3.963558  0.003  -0.082398  0.007231  -0.068375  -0.072023  0.005574  3.939612  0.004
C  C86  1  0.23171775  0.43615527  0.44878953  1  -0.045636  0.0038  3.701621  0.003  -0.067915  0.004631  3.948048  0.003  -0.064341  0.004269  3.963627  0.003  -0.082369  0.007231  -0.06838  -0.072056  0.005575  3.939677  0.004
C  C87  1  0.73171968  0.06385115  0.55121288  1  -0.045448  0.003859  3.70155  0.003  -0.067741  0.004638  3.94794  0.003  -0.064168  0.004271  3.963535  0.003  -0.082248  0.007236  -0.068313  -0.071887  0.005579  3.939579  0.004
C  C88  1  0.70717104  0.58727712  0.46737566  1  -0.118808  -0.00183  3.730749  -0.001  -0.131243  -0.001126  3.979874  -0.001  -0.137537  -0.001631  3.998483  -0.001  -0.03645  -0.001057  -0.087694  -0.12729  -0.001074  3.969706  -0.001
C  C89  1  0.20716742  0.91271885  0.53261627  1  -0.118751  -0.002055  3.730911  -0.002  -0.131229  -0.001122  3.980028  -0.001  -0.137543  -0.00163  3.998625  -0.001  -0.037046  -0.001055  -0.08773  -0.127273  -0.001072  3.969859  -0.001
C  C90  1  0.29283281  0.41272492  0.53262588  1  -0.118791  -0.001935  3.730871  -0.002  -0.13121  -0.001129  3.979955  -0.001  -0.137505  -0.001626  3.998577  -0.001  -0.036953  -0.001053  -0.08767  -0.12725  -0.001071  3.969774  -0.001
C  C91  1  0.79283643  0.08728116  0.46737566  1  -0.118811  -0.001985  3.730938  -0.002  -0.131264  -0.001128  3.980037  -0.001  -0.137583  -0.001625  3.998625  -0.001  -0.036711  -0.001059  -0.087714  -0.12731  -0.001075  3.969872  -0.001
C  C92  1  0.72105648  0.51498634  0.34905454  1  0.152032  0.004947  3.663043  0.005  0.117169  0.006753  3.921485  0.006  0.127856  0.006019  3.935182  0.005  0.514325  0.009705  0.055251  0.108117  0.008037  3.915119  0.007
C  C93  1  0.22105032  0.98500801  0.65093738  1  0.151998  0.005142  3.662894  0.005  0.117177  0.00675  3.921316  0.006  0.127859  0.006031  3.935011  0.005  0.514374  0.009704  0.055252  0.108129  0.008035  3.914953  0.007
C  C94  1  0.27894568  0.48501165  0.65094699  1  0.151938  0.005043  3.663021  0.005  0.117105  0.006751  3.921492  0.006  0.127786  0.006031  3.935179  0.005  0.514548  0.009701  0.05519  0.108057  0.008033  3.915121  0.007
C  C95  1  0.77894676  0.01499348  0.34905629  1  0.151989  0.005039  3.663036  0.005  0.117169  0.006744  3.921439  0.006  0.127854  0.006036  3.935134  0.005  0.514327  0.00971  0.055263  0.108117  0.008039  3.915077  0.007
S  S96  1  0.34893672  0.17354205  0.19484550  1  -0.445015  -0.042429  2.040929  -0.024  -0.398318  -0.049734  2.415322  -0.023  -0.416517  -0.043607  2.4094  -0.02  -0.689318  -0.070835  -0.167632  -0.380792  -0.056905  2.418514  -0.028
S  S97  1  0.84894373  0.32645642  0.80515516  1  -0.44505  -0.042397  2.040959  -0.023  -0.398351  -0.049732  2.41534  -0.023  -0.416545  -0.043589  2.409418  -0.02  -0.689383  -0.070834  -0.167645  -0.380824  -0.056903  2.41853  -0.028
S  S98  1  0.65105528  0.82645385  0.80515691  1  -0.445038  -0.042429  2.040941  -0.024  -0.398324  -0.049733  2.415289  -0.023  -0.41651  -0.04359  2.409363  -0.02  -0.689324  -0.070834  -0.16761  -0.380799  -0.056903  2.418479  -0.028
S  S99  1  0.15105759  0.67354157  0.19484638  1  -0.44499  -0.042412  2.04085  -0.024  -0.398299  -0.049737  2.415246  -0.023  -0.416493  -0.043574  2.409324  -0.02  -0.68938  -0.07084  -0.167629  -0.380772  -0.056908  2.418437  -0.028
S  S100  1  0.18548799  0.10219023  0.95029786  1  -0.585105  0.012213  2.128641  0.011  -0.522378  0.011183  2.541004  0.009  -0.557229  0.00904  2.52688  0.007  -0.818555  0.022444  -0.231222  -0.48721  0.014707  2.551235  0.013
S  S101  1  0.68549330  0.39780382  0.04969756  1  -0.585097  0.012208  2.128676  0.011  -0.522375  0.011178  2.541012  0.009  -0.557218  0.009032  2.526887  0.007  -0.818827  0.022438  -0.231229  -0.487207  0.014693  2.551237  0.013
S  S102  1  0.81450571  0.89780577  0.04969843  1  -0.585127  0.012248  2.128716  0.011  -0.522399  0.011182  2.541071  0.009  -0.557247  0.009031  2.526946  0.007  -0.818728  0.022434  -0.23125  -0.487239  0.014705  2.551299  0.013
S  S103  1  0.31451055  0.60218965  0.95030485  1  -0.585052  0.012234  2.128546  0.011  -0.522358  0.011175  2.540942  0.009  -0.557199  0.009017  2.526814  0.007  -0.818631  0.022443  -0.231232  -0.487188  0.0147  2.551172  0.013
S  S104  1  0.30400991  0.37722984  0.06001503  1  -0.591814  0.008007  2.213552  0.003  -0.523983  0.007681  2.62637  0.002  -0.55829  0.006843  2.613002  0.001  -0.827229  0.017754  -0.234691  -0.49364  0.01232  2.639224  0.006
S  S105  1  0.80402030  0.12276477  0.93998825  1  -0.591812  0.007994  2.213459  0.003  -0.524009  0.007695  2.626327  0.002  -0.558287  0.006845  2.612912  0.001  -0.827105  0.017754  -0.23472  -0.493664  0.012316  2.639175  0.006
S  S106  1  0.69598125  0.62276348  0.93998913  1  -0.591842  0.008001  2.213562  0.003  -0.524011  0.00769  2.626372  0.002  -0.558318  0.006851  2.612986  0.001  -0.827096  0.017769  -0.234712  -0.49367  0.012325  2.639217  0.006
S  S107  1  0.19598440  0.87723065  0.06001503  1  -0.591797  0.007986  2.213474  0.003  -0.523984  0.007685  2.626331  0.002  -0.558257  0.00684  2.612892  0.001  -0.827146  0.017761  -0.234698  -0.493644  0.012325  2.639186  0.006
S  S108  1  0.64107192  0.17211617  0.19759502  1  -0.592701  0.002285  2.062159  0.003  -0.529958  0.001831  2.465965  0.002  -0.569836  0.001188  2.45419  0.001  -0.840568  -0.001446  -0.260476  -0.491307  -0.000834  2.471619  0.0
S  S109  1  0.14108184  0.32788811  0.80240389  1  -0.592669  0.002284  2.062214  0.003  -0.529936  0.001831  2.466024  0.002  -0.56982  0.001182  2.454246  0.001  -0.840631  -0.00145  -0.260434  -0.49128  -0.000833  2.471687  0.0
S  S110  1  0.35891585  0.82788325  0.80240389  1  -0.592685  0.002291  2.062196  0.003  -0.529949  0.001829  2.466002  0.002  -0.569837  0.001178  2.454226  0.001  -0.840605  -0.001448  -0.260435  -0.491296  -0.000826  2.471664  0.0
S  S111  1  0.85892286  0.67211570  0.19759590  1  -0.592695  0.002341  2.062185  0.003  -0.529973  0.001825  2.465994  0.002  -0.569862  0.00118  2.454215  0.001  -0.840669  -0.00144  -0.260486  -0.491324  -0.000831  2.471651  0.0
S  S112  1  0.49462165  0.11776407  0.94119395  1  -0.592955  -0.062656  2.110502  -0.03  -0.529691  -0.063681  2.511562  -0.022  -0.566229  -0.056619  2.498921  -0.018  -0.824301  -0.081136  -0.217504  -0.495224  -0.065285  2.521692  -0.021
S  S113  1  0.99462611  0.38223469  0.05880322  1  -0.592928  -0.062652  2.1106  -0.03  -0.529651  -0.063683  2.511626  -0.022  -0.566195  -0.056628  2.498992  -0.018  -0.824402  -0.081136  -0.21748  -0.495174  -0.065282  2.521747  -0.021
S  S114  1  0.50537374  0.88223307  0.05880322  1  -0.592982  -0.062731  2.11061  -0.03  -0.529722  -0.063673  2.511673  -0.022  -0.566266  -0.056623  2.499037  -0.018  -0.824393  -0.081139  -0.217484  -0.495248  -0.065286  2.521795  -0.021
S  S115  1  0.00537774  0.61776911  0.94119657  1  -0.592987  -0.062669  2.110541  -0.03  -0.529729  -0.063673  2.511603  -0.022  -0.566268  -0.056623  2.498963  -0.018  -0.824402  -0.081129  -0.217503  -0.495258  -0.065278  2.521733  -0.021
N  N116  1  0.92374527  0.22992759  0.23981986  1  -0.317802  0.027249  3.259779  0.014  -0.254243  0.030602  3.538876  0.014  -0.274453  0.026916  3.554639  0.01  -1.260043  0.049804  -0.319395  -0.23877  0.032753  3.52705  0.015
N  N117  1  0.42374165  0.27006717  0.76018167  1  -0.317795  0.027253  3.259732  0.014  -0.254319  0.030603  3.53891  0.014  -0.274519  0.026917  3.554657  0.01  -1.260402  0.049807  -0.319471  -0.238862  0.032764  3.527099  0.015
N  N118  1  0.07625604  0.77006897  0.76018429  1  -0.317746  0.027237  3.259551  0.014  -0.254268  0.030603  3.538728  0.014  -0.274479  0.026908  3.554481  0.01  -1.260145  0.049809  -0.319451  -0.238802  0.032765  3.52692  0.015
N  N119  1  0.57625373  0.72993532  0.23981462  1  -0.317704  0.027293  3.259581  0.014  -0.254257  0.030601  3.538789  0.014  -0.274467  0.026913  3.55454  0.01  -1.260253  0.049803  -0.319497  -0.238811  0.032755  3.526949  0.015
N  N120  1  0.78991220  0.42258283  0.31375462  1  -0.310185  0.025413  3.248792  0.014  -0.243289  0.028589  3.517236  0.014  -0.263243  0.025629  3.533106  0.012  -1.260629  0.046165  -0.314283  -0.230069  0.030606  3.508536  0.016
N  N121  1  0.28990604  0.07741788  0.68624343  1  -0.310096  0.025275  3.248551  0.014  -0.243258  0.028591  3.516981  0.014  -0.263206  0.025625  3.532851  0.012  -1.260511  0.046174  -0.314221  -0.230049  0.030615  3.508309  0.016
N  N122  1  0.21008911  0.57741663  0.68624867  1  -0.310086  0.025338  3.248658  0.014  -0.243291  0.028593  3.517181  0.014  -0.263226  0.025626  3.53304  0.012  -1.260668  0.046171  -0.314254  -0.230098  0.030617  3.508544  0.016
N  N123  1  0.71008850  0.92259041  0.31375112  1  -0.31017  0.025343  3.248803  0.014  -0.243322  0.028596  3.517237  0.014  -0.263274  0.025622  3.533107  0.012  -1.260085  0.046175  -0.314278  -0.230113  0.030616  3.508555  0.016
