# generated using pymatgen
data_Cd3H12C28(NO6)2
_symmetry_space_group_name_H-M   'P 1'
_cell_length_a   9.41411975
_cell_length_b   9.39300071
_cell_length_c   16.48320000
_cell_angle_alpha   78.09324908
_cell_angle_beta   78.12034985
_cell_angle_gamma   71.18387302
_symmetry_Int_Tables_number   1
_chemical_formula_structural   Cd3H12C28(NO6)2
_chemical_formula_sum   'Cd6 H24 C56 N4 O24'
_cell_volume   1334.62078198
_cell_formula_units_Z   2
loop_
 _symmetry_equiv_pos_site_id
 _symmetry_equiv_pos_as_xyz
  1  'x, y, z'
loop_
 _atom_site_type_symbol
 _atom_site_label
 _atom_site_symmetry_multiplicity
 _atom_site_fract_x
 _atom_site_fract_y
 _atom_site_fract_z
 _atom_site_occupancy
 _atom_site_pbe_bader_charge
 _atom_site_pbe_bader_spin_density
 _atom_site_pbe_cm5_charge
 _atom_site_pbe_ddec_charge
 _atom_site_pbe_ddec_spin_density
 _atom_site_pbe_ddec_sum_bond_order
 _atom_site_pbe_magmom
Cd  Cd0  1  0.92159380  0.05386052  0.90881258  1  1.342114  0  0.792206  1.055914  0  2.074888  0
Cd  Cd1  1  0.94619844  0.07827855  0.59120168  1  1.341736  0  0.79212  1.056121  0  2.075916  0
Cd  Cd2  1  0.07840814  0.94613748  0.09118815  1  1.342079  0  0.792231  1.055981  0  2.074816  0
Cd  Cd3  1  0.05380217  0.92172401  0.40879624  1  1.341717  0  0.792128  1.056189  0  2.07582  0
Cd  Cd4  1  0.19020939  0.80955877  0.75003399  1  1.310055  0  0.796303  0.938269  0  2.263855  0
Cd  Cd5  1  0.80979155  0.19044265  0.24996403  1  1.310131  0  0.796304  0.938277  0  2.263854  0
H  H6  1  0.85818795  0.59528518  0.77505209  1  0.103316  0  0.107155  0.112559  0  1.015034  0
H  H7  1  0.40405465  0.14112190  0.72525482  1  0.0986  0  0.107129  0.112626  0  1.015684  0
H  H8  1  0.14181249  0.40471055  0.22494909  1  0.103555  0  0.107157  0.112594  0  1.014955  0
H  H9  1  0.59594196  0.85887952  0.27474554  1  0.098666  0  0.107122  0.112605  0  1.015706  0
H  H10  1  0.67798959  0.44280477  0.80219475  1  0.08778  0  0.109629  0.117244  0  0.984778  0
H  H11  1  0.55652076  0.32145873  0.69792830  1  0.091582  0  0.109734  0.117507  0  0.984393  0
H  H12  1  0.32201018  0.55719324  0.19780563  1  0.087791  0  0.109621  0.117219  0  0.984791  0
H  H13  1  0.44347659  0.67854383  0.30207183  1  0.091551  0  0.109713  0.117454  0  0.984419  0
H  H14  1  0.50935327  0.96195954  0.87946431  1  0.112915  0  0.108528  0.116762  0  1.002724  0
H  H15  1  0.03844324  0.49086486  0.62053197  1  0.114775  0  0.10884  0.116891  0  1.001761  0
H  H16  1  0.49064943  0.03803961  0.12053681  1  0.113283  0  0.108526  0.116748  0  1.002752  0
H  H17  1  0.96155520  0.50913770  0.37946682  1  0.114813  0  0.10885  0.11692  0  1.001763  0
H  H18  1  0.53191594  0.33613845  0.94595747  1  0.160484  0  0.106961  0.129018  0  1.041839  0
H  H19  1  0.66320658  0.46751976  0.55406103  1  0.151383  0  0.107097  0.129175  0  1.041937  0
H  H20  1  0.46808033  0.66386411  0.05404339  1  0.16056  0  0.106973  0.129093  0  1.041769  0
H  H21  1  0.33679394  0.53247939  0.44593974  1  0.151377  0  0.107091  0.129177  0  1.041963  0
H  H22  1  0.35096104  0.17943571  0.97799838  1  0.108772  0  0.114312  0.117132  0  0.989618  0
H  H23  1  0.81981773  0.64861322  0.52213229  1  0.109748  0  0.114075  0.117387  0  0.989037  0
H  H24  1  0.64903490  0.82056799  0.02200421  1  0.108751  0  0.114323  0.117163  0  0.989627  0
H  H25  1  0.18018204  0.35138478  0.47786930  1  0.109747  0  0.114073  0.117379  0  0.989039  0
H  H26  1  0.05491722  0.53584837  0.82744434  1  0.133873  0  0.117193  0.090726  0  1.036874  0
H  H27  1  0.46433923  0.94561069  0.67239097  1  0.129258  0  0.117399  0.090386  0  1.038086  0
H  H28  1  0.94508397  0.46414850  0.17255480  1  0.133876  0  0.117221  0.090727  0  1.036871  0
H  H29  1  0.53566314  0.05438959  0.32760884  1  0.129265  0  0.117373  0.090358  0  1.03807  0
C  C30  1  0.81008530  0.87115055  0.82055207  1  1.590435  0  0.211799  0.598686  0  4.206308  0
C  C31  1  0.12883932  0.18963369  0.67949806  1  1.593674  0  0.211989  0.59971  0  4.206155  0
C  C32  1  0.18991806  0.12884632  0.17944742  1  1.590009  0  0.211843  0.598873  0  4.206035  0
C  C33  1  0.87115695  0.81036887  0.32050220  1  1.594139  0  0.212041  0.599845  0  4.206211  0
C  C34  1  0.69480447  0.78871680  0.82573933  1  0.004004  0  -0.010975  -0.020862  0  3.957266  0
C  C35  1  0.21119426  0.30496311  0.67438108  1  -0.001512  0  -0.010757  -0.020715  0  3.958223  0
C  C36  1  0.30519814  0.21127893  0.17426159  1  0.004077  0  -0.01103  -0.021065  0  3.957444  0
C  C37  1  0.78880451  0.69503831  0.32561720  1  -0.001708  0  -0.010758  -0.020758  0  3.958334  0
C  C38  1  0.74128752  0.64277979  0.80317258  1  -0.074555  0  -0.078336  -0.081283  0  3.954105  0
C  C39  1  0.35678932  0.25826495  0.69702667  1  -0.074665  0  -0.078055  -0.081389  0  3.953507  0
C  C40  1  0.25871367  0.35721708  0.19682898  1  -0.074768  0  -0.078351  -0.08133  0  3.954179  0
C  C41  1  0.64320729  0.74173647  0.30297368  1  -0.074668  0  -0.078049  -0.081365  0  3.953595  0
C  C42  1  0.63973391  0.55764835  0.81816045  1  -0.001539  0  -0.080688  -0.106303  0  3.963606  0
C  C43  1  0.44191386  0.35988063  0.68194557  1  -0.000262  0  -0.081321  -0.106941  0  3.963805  0
C  C44  1  0.36026552  0.44235079  0.18184045  1  -0.001537  0  -0.080638  -0.106184  0  3.963607  0
C  C45  1  0.55808491  0.64012079  0.31805453  1  -0.000343  0  -0.081308  -0.10685  0  3.96392  0
C  C46  1  0.48794610  0.61780197  0.85352029  1  -0.050113  0  -0.007424  -0.001653  0  3.998085  0
C  C47  1  0.38205142  0.51198444  0.64642758  1  -0.052348  0  -0.007271  -0.001664  0  3.9988  0
C  C48  1  0.51205300  0.38219831  0.14647991  1  -0.050106  0  -0.007429  -0.001677  0  3.998151  0
C  C49  1  0.61794593  0.48801811  0.35357194  1  -0.052337  0  -0.007249  -0.001666  0  3.998864  0
C  C50  1  0.43975735  0.76631834  0.87402050  1  -0.062427  0  -0.01355  -0.077264  0  3.94964  0
C  C51  1  0.23384104  0.56036539  0.62596829  1  -0.066895  0  -0.013772  -0.077811  0  3.952651  0
C  C52  1  0.56024393  0.23368194  0.12598004  1  -0.062559  0  -0.013491  -0.077199  0  3.949668  0
C  C53  1  0.76615773  0.43963603  0.37403060  1  -0.066978  0  -0.013794  -0.077819  0  3.952694  0
C  C54  1  0.54381611  0.84974651  0.86046658  1  -0.010643  0  -0.077504  -0.111783  0  3.939004  0
C  C55  1  0.15039580  0.45625340  0.63958629  1  -0.005474  0  -0.077541  -0.111446  0  3.940093  0
C  C56  1  0.45618659  0.15025263  0.13953393  1  -0.011108  0  -0.077537  -0.111735  0  3.939095  0
C  C57  1  0.84960189  0.54374802  0.36041333  1  -0.005376  0  -0.077555  -0.111511  0  3.940241  0
C  C58  1  0.38497471  0.52113907  0.87176208  1  0.461456  0  0.124401  0.213529  0  3.984516  0
C  C59  1  0.47864857  0.61501326  0.62813035  1  0.462204  0  0.124371  0.213951  0  3.984536  0
C  C60  1  0.61502440  0.47886121  0.12823812  1  0.461442  0  0.124431  0.213543  0  3.984558  0
C  C61  1  0.52135096  0.38498930  0.37186952  1  0.46222  0  0.124351  0.213932  0  3.98457  0
C  C62  1  0.42499138  0.37763920  0.92081421  1  0.012861  0  -0.078484  -0.158116  0  3.908967  0
C  C63  1  0.62183735  0.57470149  0.57915798  1  0.018698  0  -0.079231  -0.1594  0  3.910195  0
C  C64  1  0.57500523  0.62236222  0.07918675  1  0.012735  0  -0.078503  -0.158179  0  3.9088  0
C  C65  1  0.37816392  0.42529879  0.42084196  1  0.018694  0  -0.07926  -0.15948  0  3.910254  0
C  C66  1  0.32532177  0.29003535  0.93830707  1  -0.069798  0  -0.055064  -0.023948  0  3.908996  0
C  C67  1  0.70941346  0.67443300  0.56172298  1  -0.01584  0  -0.054625  -0.023386  0  3.908633  0
C  C68  1  0.67467559  0.70996720  0.06169488  1  -0.069751  0  -0.055097  -0.024017  0  3.909061  0
C  C69  1  0.29058706  0.32556614  0.43827718  1  -0.01581  0  -0.054582  -0.023304  0  3.908596  0
C  C70  1  0.19013284  0.34471053  0.90409480  1  0.044913  0  -0.007542  -0.065208  0  3.946004  0
C  C71  1  0.65501207  0.80993082  0.59588616  1  0.039068  0  -0.007628  -0.065275  0  3.944863  0
C  C72  1  0.80986485  0.65529089  0.09590603  1  0.044903  0  -0.00751  -0.065204  0  3.946136  0
C  C73  1  0.34498954  0.19006832  0.40411387  1  0.039034  0  -0.007607  -0.065262  0  3.9449  0
C  C74  1  0.15894301  0.48789523  0.85499139  1  0.516818  0  0.057254  0.096587  0  3.909332  0
C  C75  1  0.51206206  0.84135193  0.64487959  1  0.472585  0  0.056501  0.096063  0  3.911001  0
C  C76  1  0.84105609  0.51210505  0.14500820  1  0.516865  0  0.057206  0.096578  0  3.909287  0
C  C77  1  0.48793922  0.15864836  0.35511975  1  0.472614  0  0.05654  0.096116  0  3.910864  0
C  C78  1  0.08533208  0.24862904  0.91829602  1  1.559564  0  0.206884  0.598093  0  4.201075  0
C  C79  1  0.75136091  0.91454344  0.58179575  1  1.56191  0  0.207093  0.598826  0  4.200438  0
C  C80  1  0.91466627  0.75137011  0.08170560  1  1.559791  0  0.206883  0.598088  0  4.201078  0
C  C81  1  0.24864287  0.08545571  0.41820403  1  1.56209  0  0.20708  0.598785  0  4.200592  0
C  C82  1  0.28317572  0.83463102  0.91992613  1  1.580578  0  0.22345  0.618982  0  4.148694  0
C  C83  1  0.16559642  0.71718646  0.58004228  1  1.581388  0  0.22378  0.619361  0  4.150212  0
C  C84  1  0.71682405  0.16536698  0.08007425  1  1.580685  0  0.223433  0.618926  0  4.14876  0
C  C85  1  0.83440453  0.28281496  0.41995453  1  1.581361  0  0.223802  0.61942  0  4.149924  0
N  N86  1  0.25264673  0.57493019  0.83997767  1  -1.229823  0  -0.323981  -0.296413  0  3.488729  0
N  N87  1  0.42502009  0.74762793  0.65987043  1  -1.227584  0  -0.32331  -0.296869  0  3.486118  0
N  N88  1  0.74735096  0.42507123  0.16002195  1  -1.229844  0  -0.323986  -0.296385  0  3.48869  0
N  N89  1  0.57497977  0.25237349  0.34012894  1  -1.227639  0  -0.323316  -0.296857  0  3.486011  0
O  O90  1  0.76307335  0.00123677  0.84560694  1  -1.144276  0  -0.335351  -0.566951  0  2.236298  0
O  O91  1  0.99894551  0.23677558  0.65453633  1  -1.145827  0  -0.335635  -0.567614  0  2.236508  0
O  O92  1  0.23693110  0.99876010  0.15439242  1  -1.143892  0  -0.335368  -0.567046  0  2.236293  0
O  O93  1  0.00105043  0.76322811  0.34546323  1  -1.146099  0  -0.335662  -0.567674  0  2.236634  0
O  O94  1  0.94671093  0.80166026  0.79587145  1  -1.191728  0  -0.328101  -0.572632  0  2.366274  0
O  O95  1  0.19837634  0.05270112  0.70405274  1  -1.190918  0  -0.327942  -0.571952  0  2.370281  0
O  O96  1  0.05329134  0.19833661  0.20412695  1  -1.191654  0  -0.328136  -0.572706  0  2.36614  0
O  O97  1  0.80162134  0.94730030  0.29594566  1  -1.19097  0  -0.327948  -0.571995  0  2.370303  0
O  O98  1  0.27444446  0.82582456  0.99806978  1  -1.151047  0  -0.303742  -0.525116  0  2.266555  0
O  O99  1  0.17435231  0.72599406  0.50191199  1  -1.150282  0  -0.304055  -0.524907  0  2.267956  0
O  O100  1  0.72555607  0.17417459  0.00193038  1  -1.15102  0  -0.303734  -0.525101  0  2.266586  0
O  O101  1  0.82564963  0.27400395  0.49808511  1  -1.150178  0  -0.304041  -0.524901  0  2.267811  0
O  O102  1  0.17499268  0.89955424  0.87650226  1  -1.155103  0  -0.320862  -0.578558  0  2.411093  0
O  O103  1  0.10057978  0.82546616  0.62350763  1  -1.156362  0  -0.320184  -0.577678  0  2.41505  0
O  O104  1  0.82500860  0.10044604  0.12349707  1  -1.15516  0  -0.320876  -0.578554  0  2.411084  0
O  O105  1  0.89942409  0.17453640  0.37648870  1  -1.156463  0  -0.320202  -0.577728  0  2.414956  0
O  O106  1  0.08493938  0.15495510  0.98580096  1  -1.205089  0  -0.335982  -0.604168  0  2.347389  0
O  O107  1  0.84536048  0.91430905  0.51449249  1  -1.20378  0  -0.336646  -0.60559  0  2.344121  0
O  O108  1  0.91506115  0.84504404  0.01419981  1  -1.205051  0  -0.336002  -0.604185  0  2.347365  0
O  O109  1  0.15464396  0.08568782  0.48550748  1  -1.203954  0  -0.336639  -0.605548  0  2.344219  0
O  O110  1  0.00668416  0.26197755  0.86108005  1  -1.129053  0  -0.320321  -0.544109  0  2.187996  0
O  O111  1  0.73792983  0.99357976  0.63890297  1  -1.12964  0  -0.320338  -0.544543  0  2.187966  0
O  O112  1  0.99331561  0.73802046  0.13892094  1  -1.129157  0  -0.320311  -0.54411  0  2.188006  0
O  O113  1  0.26207319  0.00641825  0.36109764  1  -1.129654  0  -0.320333  -0.544558  0  2.187969  0
