# generated using pymatgen
data_GdH10C6O11
_symmetry_space_group_name_H-M   'P 1'
_cell_length_a   8.57086606
_cell_length_b   8.21235832
_cell_length_c   16.90042523
_cell_angle_alpha   90.00057805
_cell_angle_beta   101.05488013
_cell_angle_gamma   89.99996449
_symmetry_Int_Tables_number   1
_chemical_formula_structural   GdH10C6O11
_chemical_formula_sum   'Gd4 H40 C24 O44'
_cell_volume   1167.49691240
_cell_formula_units_Z   4
loop_
 _symmetry_equiv_pos_site_id
 _symmetry_equiv_pos_as_xyz
  1  'x, y, z'
loop_
 _atom_site_type_symbol
 _atom_site_label
 _atom_site_symmetry_multiplicity
 _atom_site_fract_x
 _atom_site_fract_y
 _atom_site_fract_z
 _atom_site_occupancy
 _atom_site_hle17_bader_spin_density
 _atom_site_hle17_ddec_charge
 _atom_site_hle17_ddec_spin_density
 _atom_site_hle17_ddec_sum_bond_order
 _atom_site_hle17_magmom
 _atom_site_hse06_10hf_bader_spin_density
 _atom_site_hse06_10hf_ddec_charge
 _atom_site_hse06_10hf_ddec_spin_density
 _atom_site_hse06_10hf_ddec_sum_bond_order
 _atom_site_hse06_10hf_magmom
 _atom_site_hse06_bader_spin_density
 _atom_site_hse06_ddec_charge
 _atom_site_hse06_ddec_spin_density
 _atom_site_hse06_ddec_sum_bond_order
 _atom_site_hse06_magmom
 _atom_site_pbe_bader_spin_density
 _atom_site_pbe_cm5_charge
 _atom_site_pbe_ddec_charge
 _atom_site_pbe_ddec_spin_density
 _atom_site_pbe_ddec_sum_bond_order
 _atom_site_pbe_magmom
Gd  Gd0  1  0.95618865  0.59092021  0.66116943  1  0  2.249228  0  1.712381  0  0  2.175274  0  2.043882  0  0  2.215439  0  2.004005  0  0  1.447627  2.140621  0  2.081292  0
Gd  Gd1  1  0.54381148  0.09092411  0.83883257  1  0  2.249282  0  1.712298  0  0  2.175256  0  2.043911  0  0  2.215449  0  2.003993  0  0  1.44769  2.140576  0  2.081365  0
Gd  Gd2  1  0.04381010  0.40907918  0.33883251  1  0  2.249351  0  1.712308  0  0  2.175362  0  2.043848  0  0  2.215525  0  2.003973  0  0  1.447669  2.140714  0  2.081253  0
Gd  Gd3  1  0.45619317  0.90907283  0.16116520  1  0  2.249353  0  1.712284  0  0  2.175245  0  2.043981  0  0  2.215413  0  2.004099  0  0  1.447652  2.140596  0  2.081388  0
H  H4  1  0.98358204  0.54260675  0.83378625  1  0  0.434638  0  0.867932  0  0  0.403991  0  0.930822  0  0  0.416085  0  0.913142  0  0  0.291817  0.395449  0  0.943287  0
H  H5  1  0.51640259  0.04261246  0.66621400  1  0  0.434584  0  0.868036  0  0  0.403943  0  0.930913  0  0  0.416035  0  0.913235  0  0  0.291822  0.395403  0  0.943375  0
H  H6  1  0.01642502  0.45739141  0.16621470  1  0  0.434599  0  0.867973  0  0  0.403938  0  0.930879  0  0  0.416031  0  0.913198  0  0  0.291846  0.395394  0  0.943346  0
H  H7  1  0.48357237  0.95738327  0.33378450  1  0  0.434658  0  0.867892  0  0  0.40399  0  0.930806  0  0  0.416084  0  0.913126  0  0  0.291876  0.395449  0  0.94327  0
H  H8  1  0.09325394  0.69526205  0.83522810  1  0  0.438745  0  0.862005  0  0  0.407205  0  0.926081  0  0  0.418181  0  0.910136  0  0  0.295308  0.399432  0  0.937327  0
H  H9  1  0.40672460  0.19526165  0.66477043  1  0  0.438768  0  0.861959  0  0  0.407199  0  0.926095  0  0  0.418177  0  0.910152  0  0  0.295258  0.399417  0  0.937358  0
H  H10  1  0.90674955  0.30473246  0.16477252  1  0  0.438658  0  0.862058  0  0  0.407095  0  0.926185  0  0  0.418069  0  0.910248  0  0  0.29528  0.399319  0  0.937439  0
H  H11  1  0.59324322  0.80473408  0.33522621  1  0  0.438769  0  0.861987  0  0  0.407218  0  0.926079  0  0  0.41819  0  0.910145  0  0  0.29537  0.399445  0  0.937329  0
H  H12  1  0.14588686  0.30005380  0.67388863  1  0  0.426341  0  0.881342  0  0  0.394445  0  0.947998  0  0  0.405241  0  0.931949  0  0  0.299596  0.386833  0  0.959298  0
H  H13  1  0.35410722  0.80004917  0.82611137  1  0  0.426288  0  0.881401  0  0  0.394372  0  0.948092  0  0  0.405172  0  0.932039  0  0  0.299538  0.386761  0  0.959392  0
H  H14  1  0.85409999  0.69994680  0.32611100  1  0  0.4263  0  0.881389  0  0  0.39439  0  0.948069  0  0  0.405187  0  0.93202  0  0  0.299555  0.38678  0  0.959367  0
H  H15  1  0.64590928  0.19994900  0.17388397  1  0  0.426316  0  0.881358  0  0  0.394333  0  0.948132  0  0  0.40513  0  0.932083  0  0  0.299511  0.386725  0  0.959423  0
H  H16  1  0.06527907  0.25219973  0.74653394  1  0  0.438017  0  0.859484  0  0  0.408302  0  0.919784  0  0  0.41865  0  0.904682  0  0  0.302176  0.400958  0  0.930475  0
H  H17  1  0.43471973  0.75218407  0.75346683  1  0  0.437956  0  0.859557  0  0  0.408238  0  0.919866  0  0  0.418587  0  0.904763  0  0  0.302121  0.400887  0  0.930568  0
H  H18  1  0.93472208  0.74781669  0.25347001  1  0  0.438034  0  0.859442  0  0  0.408307  0  0.919774  0  0  0.418657  0  0.904669  0  0  0.302131  0.400956  0  0.930473  0
H  H19  1  0.56528132  0.24780191  0.24652764  1  0  0.438062  0  0.859401  0  0  0.408287  0  0.919809  0  0  0.418639  0  0.9047  0  0  0.302129  0.40093  0  0.930522  0
H  H20  1  0.06287743  0.94270514  0.71640886  1  0  0.442728  0  0.851594  0  0  0.412262  0  0.912341  0  0  0.422714  0  0.897034  0  0  0.304508  0.404823  0  0.923223  0
H  H21  1  0.43711440  0.44271051  0.78359054  1  0  0.442651  0  0.851675  0  0  0.412273  0  0.9123  0  0  0.422728  0  0.896987  0  0  0.304532  0.404831  0  0.923187  0
H  H22  1  0.93712010  0.05728694  0.28359001  1  0  0.442728  0  0.85157  0  0  0.412289  0  0.912281  0  0  0.422743  0  0.89697  0  0  0.304527  0.404845  0  0.923172  0
H  H23  1  0.56287721  0.55728765  0.21641013  1  0  0.442688  0  0.851626  0  0  0.412209  0  0.912399  0  0  0.422663  0  0.897088  0  0  0.304502  0.404769  0  0.923282  0
H  H24  1  0.17766226  0.87130375  0.66391529  1  0  0.451313  0  0.804568  0  0  0.429761  0  0.863055  0  0  0.438565  0  0.849935  0  0  0.327265  0.423404  0  0.872527  0
H  H25  1  0.32237617  0.37132953  0.83612128  1  0  0.451098  0  0.804649  0  0  0.429671  0  0.863123  0  0  0.438481  0  0.849992  0  0  0.327259  0.423314  0  0.872594  0
H  H26  1  0.82234246  0.12868955  0.33609018  1  0  0.451362  0  0.804499  0  0  0.429796  0  0.863006  0  0  0.438598  0  0.84989  0  0  0.327296  0.423437  0  0.872483  0
H  H27  1  0.67767641  0.62869542  0.16392247  1  0  0.451228  0  0.804561  0  0  0.429654  0  0.86316  0  0  0.43847  0  0.850025  0  0  0.327236  0.423296  0  0.872633  0
H  H28  1  0.64761072  0.49248479  0.70361792  1  0  0.426158  0  0.877253  0  0  0.39278  0  0.945573  0  0  0.403393  0  0.930155  0  0  0.297065  0.385273  0  0.956428  0
H  H29  1  0.85238498  0.99249789  0.79638058  1  0  0.426159  0  0.877257  0  0  0.392771  0  0.945576  0  0  0.40339  0  0.930156  0  0  0.297068  0.385263  0  0.956433  0
H  H30  1  0.35238089  0.50750973  0.29638335  1  0  0.426093  0  0.877353  0  0  0.392669  0  0.945735  0  0  0.403289  0  0.930315  0  0  0.29703  0.385163  0  0.956589  0
H  H31  1  0.14762439  0.00751123  0.20361349  1  0  0.426217  0  0.8772  0  0  0.392852  0  0.945489  0  0  0.403462  0  0.930076  0  0  0.297106  0.385342  0  0.956349  0
H  H32  1  0.76375151  0.37239188  0.75819815  1  0  0.44312  0  0.852965  0  0  0.415213  0  0.910362  0  0  0.426773  0  0.893474  0  0  0.303451  0.406997  0  0.92232  0
H  H33  1  0.73624411  0.87239670  0.74180322  1  0  0.44313  0  0.852965  0  0  0.415212  0  0.910379  0  0  0.426772  0  0.893489  0  0  0.303462  0.406993  0  0.922339  0
H  H34  1  0.23624727  0.62760994  0.24180794  1  0  0.443187  0  0.852881  0  0  0.415286  0  0.910259  0  0  0.426845  0  0.893372  0  0  0.303522  0.40707  0  0.922216  0
H  H35  1  0.26375569  0.12760268  0.25818403  1  0  0.443232  0  0.852835  0  0  0.415337  0  0.910211  0  0  0.426883  0  0.893338  0  0  0.303558  0.407125  0  0.922162  0
H  H36  1  0.83646761  0.26928481  0.59100917  1  0  0.452163  0  0.790371  0  0  0.440479  0  0.832128  0  0  0.448658  0  0.821189  0  0  0.341079  0.434451  0  0.838858  0
H  H37  1  0.66353742  0.76928287  0.90899192  1  0  0.452294  0  0.790184  0  0  0.44055  0  0.832042  0  0  0.448729  0  0.821094  0  0  0.341088  0.434519  0  0.83878  0
H  H38  1  0.16352881  0.73071336  0.40899787  1  0  0.452245  0  0.790349  0  0  0.440537  0  0.832142  0  0  0.448714  0  0.821139  0  0  0.341116  0.434512  0  0.83887  0
H  H39  1  0.33646721  0.23070556  0.09100407  1  0  0.452276  0  0.790244  0  0  0.440576  0  0.832025  0  0  0.44875  0  0.821072  0  0  0.341122  0.434547  0  0.838758  0
H  H40  1  0.94719604  0.32389830  0.52999659  1  0  0.450707  0  0.837531  0  0  0.418345  0  0.902146  0  0  0.430398  0  0.884341  0  0  0.308628  0.409753  0  0.9148  0
H  H41  1  0.55280306  0.82389866  0.97000070  1  0  0.45062  0  0.837667  0  0  0.418342  0  0.902155  0  0  0.430395  0  0.88435  0  0  0.30861  0.409749  0  0.91481  0
H  H42  1  0.05278844  0.67609621  0.47000400  1  0  0.450642  0  0.837618  0  0  0.418321  0  0.902168  0  0  0.430376  0  0.884361  0  0  0.308591  0.409729  0  0.914823  0
H  H43  1  0.44721347  0.17609585  0.02999761  1  0  0.450662  0  0.837585  0  0  0.418339  0  0.902145  0  0  0.430394  0  0.884337  0  0  0.308624  0.409744  0  0.914802  0
C  C44  1  0.42849615  0.53191437  0.56523658  1  0  -0.062356  0  3.690969  0  0  -0.063617  0  3.940328  0  0  -0.065957  0  3.956229  0  0  0.002706  -0.06237  0  3.930106  0
C  C45  1  0.07150130  0.03191633  0.93476756  1  0  -0.062467  0  3.690981  0  0  -0.063698  0  3.940365  0  0  -0.06604  0  3.956272  0  0  0.002638  -0.062452  0  3.930138  0
C  C46  1  0.57147417  0.46809597  0.43477391  1  0  -0.062434  0  3.690559  0  0  -0.063465  0  3.93969  0  0  -0.065802  0  3.955595  0  0  0.002681  -0.062222  0  3.929455  0
C  C47  1  0.92851756  0.96808670  0.06522564  1  0  -0.062252  0  3.69048  0  0  -0.063386  0  3.939821  0  0  -0.065724  0  3.955728  0  0  0.002709  -0.062145  0  3.929591  0
C  C48  1  0.35680584  0.56599049  0.63773658  1  0  0.715619  0  3.848679  0  0  0.656895  0  4.154421  0  0  0.691348  0  4.144412  0  0  0.240626  0.633397  0  4.16054  0
C  C49  1  0.14319753  0.06599603  0.86226300  1  0  0.715573  0  3.848536  0  0  0.656749  0  4.154426  0  0  0.691201  0  4.144424  0  0  0.240641  0.633248  0  4.16054  0
C  C50  1  0.64318332  0.43400646  0.36225677  1  0  0.715612  0  3.848154  0  0  0.656861  0  4.153814  0  0  0.691316  0  4.143807  0  0  0.240718  0.633359  0  4.159926  0
C  C51  1  0.85680827  0.93400457  0.13773192  1  0  0.715428  0  3.848234  0  0  0.656623  0  4.154115  0  0  0.691075  0  4.144113  0  0  0.240534  0.633117  0  4.160234  0
C  C52  1  0.55465048  0.63063011  0.55174085  1  0  -0.080761  0  3.707039  0  0  -0.080158  0  3.958407  0  0  -0.081786  0  3.974023  0  0  0.001353  -0.079143  0  3.947954  0
C  C53  1  0.94534850  0.13063232  0.94826185  1  0  -0.080938  0  3.707175  0  0  -0.08036  0  3.958562  0  0  -0.081991  0  3.97418  0  0  0.001309  -0.079341  0  3.9481  0
C  C54  1  0.44532916  0.36936440  0.44824981  1  0  -0.08077  0  3.707384  0  0  -0.080322  0  3.958627  0  0  -0.081952  0  3.974245  0  0  0.001394  -0.0793  0  3.948179  0
C  C55  1  0.05466930  0.86935975  0.05174486  1  0  -0.081102  0  3.707297  0  0  -0.080538  0  3.958555  0  0  -0.082172  0  3.974178  0  0  0.001346  -0.079514  0  3.948099  0
C  C56  1  0.60042024  0.77413993  0.60740602  1  0  0.687009  0  3.89584  0  0  0.631699  0  4.205904  0  0  0.664957  0  4.197097  0  0  0.225027  0.609109  0  4.21099  0
C  C57  1  0.89958714  0.27414237  0.89259237  1  0  0.687102  0  3.895875  0  0  0.631833  0  4.205858  0  0  0.66509  0  4.197049  0  0  0.22509  0.609247  0  4.210935  0
C  C58  1  0.39956423  0.22586432  0.39259398  1  0  0.687141  0  3.896371  0  0  0.631888  0  4.20628  0  0  0.66514  0  4.197478  0  0  0.225059  0.6093  0  4.211369  0
C  C59  1  0.10042581  0.72584727  0.10740382  1  0  0.687306  0  3.896564  0  0  0.631913  0  4.206694  0  0  0.665162  0  4.197893  0  0  0.225022  0.609327  0  4.21178  0
C  C60  1  0.37195187  0.40206570  0.51376427  1  0  -0.064185  0  3.694561  0  0  -0.064686  0  3.94485  0  0  -0.066179  0  3.960103  0  0  0.004378  -0.063946  0  3.934864  0
C  C61  1  0.12805777  0.90206879  0.98623778  1  0  -0.064  0  3.694593  0  0  -0.064509  0  3.944835  0  0  -0.066  0  3.960093  0  0  0.004428  -0.063765  0  3.934838  0
C  C62  1  0.62805637  0.59796169  0.48623680  1  0  -0.06418  0  3.694545  0  0  -0.064943  0  3.944982  0  0  -0.06644  0  3.960233  0  0  0.004344  -0.06418  0  3.934964  0
C  C63  1  0.87194455  0.09795251  0.01376451  1  0  -0.063902  0  3.694432  0  0  -0.064616  0  3.944888  0  0  -0.066109  0  3.960141  0  0  0.004423  -0.063858  0  3.934873  0
C  C64  1  0.23065123  0.30766788  0.53084424  1  0  0.703992  0  3.841828  0  0  0.647364  0  4.148022  0  0  0.681543  0  4.137749  0  0  0.236354  0.624196  0  4.154098  0
C  C65  1  0.26934880  0.80766092  0.96915578  1  0  0.703892  0  3.842134  0  0  0.647259  0  4.148324  0  0  0.681432  0  4.138058  0  0  0.236313  0.624092  0  4.154394  0
C  C66  1  0.76933919  0.69232785  0.46915573  1  0  0.703994  0  3.842296  0  0  0.647506  0  4.14834  0  0  0.681678  0  4.138069  0  0  0.236459  0.624338  0  4.154414  0
C  C67  1  0.73066651  0.19233602  0.03083945  1  0  0.703757  0  3.842384  0  0  0.64727  0  4.148453  0  0  0.681437  0  4.13819  0  0  0.236363  0.624106  0  4.154525  0
O  O68  1  0.20909689  0.58941120  0.62853301  1  0  -0.702795  0  2.063429  0  0  -0.658116  0  2.321445  0  0  -0.682815  0  2.309741  0  0  -0.384913  -0.64004  0  2.328732  0
O  O69  1  0.29090768  0.08942057  0.87146562  1  0  -0.702785  0  2.063492  0  0  -0.658047  0  2.321547  0  0  -0.68275  0  2.309842  0  0  -0.384899  -0.639962  0  2.328831  0
O  O70  1  0.79089699  0.41058087  0.37145663  1  0  -0.702698  0  2.063271  0  0  -0.658072  0  2.321389  0  0  -0.682771  0  2.309686  0  0  -0.384836  -0.639991  0  2.328669  0
O  O71  1  0.70909458  0.91057638  0.12853074  1  0  -0.702794  0  2.063302  0  0  -0.658034  0  2.321353  0  0  -0.682731  0  2.309648  0  0  -0.384913  -0.63996  0  2.328642  0
O  O72  1  0.45485025  0.57081187  0.70544301  1  0  -0.656461  0  2.020621  0  0  -0.577547  0  2.219301  0  0  -0.604267  0  2.208564  0  0  -0.288314  -0.55901  0  2.226459  0
O  O73  1  0.04514364  0.07082230  0.79455806  1  0  -0.656437  0  2.02061  0  0  -0.577426  0  2.219296  0  0  -0.604145  0  2.208568  0  0  -0.288347  -0.558903  0  2.226473  0
O  O74  1  0.54511759  0.42917898  0.29455600  1  0  -0.656593  0  2.020641  0  0  -0.577535  0  2.219246  0  0  -0.604254  0  2.208512  0  0  -0.288405  -0.559001  0  2.226418  0
O  O75  1  0.95486100  0.92917952  0.20543853  1  0  -0.65638  0  2.020473  0  0  -0.577472  0  2.219242  0  0  -0.604189  0  2.20851  0  0  -0.288261  -0.558932  0  2.226406  0
O  O76  1  0.50002447  0.88518231  0.60570467  1  0  -0.568057  0  1.915205  0  0  -0.517884  0  2.119898  0  0  -0.54097  0  2.109889  0  0  -0.294928  -0.501897  0  2.126453  0
O  O77  1  0.99997708  0.38517992  0.89429438  1  0  -0.568146  0  1.915352  0  0  -0.517981  0  2.120038  0  0  -0.541063  0  2.110018  0  0  -0.294982  -0.501997  0  2.126593  0
O  O78  1  0.49996125  0.11482803  0.39430196  1  0  -0.568251  0  1.915409  0  0  -0.517996  0  2.119965  0  0  -0.541083  0  2.109962  0  0  -0.294978  -0.502006  0  2.12652  0
O  O79  1  0.00005008  0.61483286  0.10569665  1  0  -0.568068  0  1.91603  0  0  -0.517796  0  2.120695  0  0  -0.540877  0  2.110691  0  0  -0.294853  -0.501813  0  2.127252  0
O  O80  1  0.73705695  0.76898593  0.65518138  1  0  -0.737985  0  2.075038  0  0  -0.683131  0  2.312154  0  0  -0.70993  0  2.301137  0  0  -0.388881  -0.663566  0  2.318887  0
O  O81  1  0.76295407  0.26898143  0.84482620  1  0  -0.737929  0  2.075134  0  0  -0.683115  0  2.312277  0  0  -0.709914  0  2.301254  0  0  -0.388873  -0.663546  0  2.319006  0
O  O82  1  0.26294894  0.23102198  0.34482302  1  0  -0.737955  0  2.075286  0  0  -0.683174  0  2.312408  0  0  -0.709961  0  2.30139  0  0  -0.388915  -0.663612  0  2.31914  0
O  O83  1  0.23704943  0.73101308  0.15517560  1  0  -0.73812  0  2.075124  0  0  -0.683271  0  2.312329  0  0  -0.71006  0  2.301301  0  0  -0.388927  -0.663708  0  2.319062  0
O  O84  1  0.24170809  0.24127465  0.59927343  1  0  -0.620163  0  2.002422  0  0  -0.556119  0  2.213669  0  0  -0.580856  0  2.201213  0  0  -0.295294  -0.539012  0  2.221933  0
O  O85  1  0.25828953  0.74127013  0.90072894  1  0  -0.62013  0  2.002549  0  0  -0.556084  0  2.213793  0  0  -0.580815  0  2.201329  0  0  -0.295261  -0.53898  0  2.22205  0
O  O86  1  0.75828357  0.75872474  0.40073317  1  0  -0.620148  0  2.002491  0  0  -0.556119  0  2.213664  0  0  -0.580843  0  2.201196  0  0  -0.295297  -0.539016  0  2.221924  0
O  O87  1  0.74171153  0.25872438  0.09926612  1  0  -0.620118  0  2.002587  0  0  -0.556061  0  2.213775  0  0  -0.580783  0  2.201308  0  0  -0.295277  -0.538964  0  2.222041  0
O  O88  1  0.10376838  0.30747500  0.47690578  1  0  -0.697675  0  2.024795  0  0  -0.64926  0  2.263696  0  0  -0.674212  0  2.25133  0  0  -0.35605  -0.630984  0  2.271321  0
O  O89  1  0.39623241  0.80746620  0.02309054  1  0  -0.697687  0  2.024986  0  0  -0.649253  0  2.263847  0  0  -0.674209  0  2.251484  0  0  -0.356077  -0.630977  0  2.271467  0
O  O90  1  0.89621485  0.69252316  0.52308818  1  0  -0.697669  0  2.024974  0  0  -0.649315  0  2.263798  0  0  -0.67427  0  2.251438  0  0  -0.356167  -0.631036  0  2.27142  0
O  O91  1  0.60378533  0.19253197  0.97691025  1  0  -0.697586  0  2.024845  0  0  -0.649227  0  2.263686  0  0  -0.674186  0  2.251329  0  0  -0.356148  -0.630958  0  2.271315  0
O  O92  1  0.00101205  0.64025561  0.80035605  1  0  -0.943053  0  1.853205  0  0  -0.905101  0  2.045396  0  0  -0.924095  0  2.010458  0  0  -0.673697  -0.890754  0  2.069699  0
O  O93  1  0.49897239  0.14023757  0.69964332  1  0  -0.943055  0  1.853263  0  0  -0.905051  0  2.04542  0  0  -0.924052  0  2.010474  0  0  -0.673656  -0.890701  0  2.069734  0
O  O94  1  0.99899148  0.35975594  0.19964872  1  0  -0.942961  0  1.853348  0  0  -0.904973  0  2.045538  0  0  -0.923967  0  2.0106  0  0  -0.673699  -0.890633  0  2.069842  0
O  O95  1  0.50101921  0.85974963  0.30035617  1  0  -0.943094  0  1.853247  0  0  -0.905111  0  2.045498  0  0  -0.924104  0  2.010554  0  0  -0.673814  -0.890772  0  2.069801  0
O  O96  1  0.09802391  0.34796369  0.71783443  1  0  -0.929123  0  1.89359  0  0  -0.891187  0  2.086991  0  0  -0.909687  0  2.054497  0  0  -0.64504  -0.8773  0  2.109524  0
O  O97  1  0.40197258  0.84795584  0.78216370  1  0  -0.929033  0  1.893632  0  0  -0.891061  0  2.087002  0  0  -0.909566  0  2.054506  0  0  -0.644947  -0.877184  0  2.109548  0
O  O98  1  0.90196411  0.65204056  0.28216353  1  0  -0.929124  0  1.893575  0  0  -0.891157  0  2.086927  0  0  -0.909658  0  2.054434  0  0  -0.644932  -0.877268  0  2.109471  0
O  O99  1  0.59804039  0.15202649  0.21783427  1  0  -0.929171  0  1.893432  0  0  -0.891107  0  2.086964  0  0  -0.909609  0  2.054473  0  0  -0.644936  -0.877235  0  2.109509  0
O  O100  1  0.06838532  0.86460172  0.67220802  1  0  -0.883026  0  1.827969  0  0  -0.848211  0  2.010783  0  0  -0.864189  0  1.979111  0  0  -0.631309  -0.836148  0  2.033128  0
O  O101  1  0.43163623  0.36460910  0.82780086  1  0  -0.882753  0  1.828066  0  0  -0.848132  0  2.010716  0  0  -0.864121  0  1.979037  0  0  -0.631339  -0.836055  0  2.033065  0
O  O102  1  0.93161338  0.13540253  0.32778800  1  0  -0.883112  0  1.827973  0  0  -0.84827  0  2.010748  0  0  -0.864261  0  1.979101  0  0  -0.631363  -0.836205  0  2.033089  0
O  O103  1  0.56839112  0.63539881  0.17221149  1  0  -0.882887  0  1.827976  0  0  -0.848028  0  2.010936  0  0  -0.864024  0  1.979235  0  0  -0.631275  -0.835954  0  2.033272  0
O  O104  1  0.75339537  0.43977037  0.70815298  1  0  -0.915793  0  1.869432  0  0  -0.876632  0  2.059149  0  0  -0.895939  0  2.026622  0  0  -0.652561  -0.862084  0  2.081836  0
O  O105  1  0.74659909  0.93977974  0.79184510  1  0  -0.915831  0  1.869465  0  0  -0.876646  0  2.059246  0  0  -0.895968  0  2.026698  0  0  -0.652612  -0.862088  0  2.081934  0
O  O106  1  0.24660217  0.56023266  0.29184707  1  0  -0.915773  0  1.869387  0  0  -0.876609  0  2.059219  0  0  -0.895928  0  2.026663  0  0  -0.652614  -0.862061  0  2.081903  0
O  O107  1  0.25339132  0.06023182  0.20815427  1  0  -0.91589  0  1.869382  0  0  -0.876747  0  2.059133  0  0  -0.896041  0  2.026625  0  0  -0.652656  -0.862199  0  2.081822  0
O  O108  1  0.87823523  0.36365091  0.56726635  1  0  -0.898293  0  1.88406  0  0  -0.862287  0  2.071548  0  0  -0.880978  0  2.041732  0  0  -0.617957  -0.84835  0  2.090958  0
O  O109  1  0.62177108  0.86365183  0.93273599  1  0  -0.898365  0  1.884041  0  0  -0.862359  0  2.071487  0  0  -0.881053  0  2.041659  0  0  -0.617947  -0.848424  0  2.090911  0
O  O110  1  0.12175403  0.63634725  0.43273647  1  0  -0.898357  0  1.884152  0  0  -0.862356  0  2.071636  0  0  -0.881046  0  2.04174  0  0  -0.617977  -0.848421  0  2.091043  0
O  O111  1  0.37823950  0.13633781  0.06726116  1  0  -0.898404  0  1.884042  0  0  -0.862416  0  2.07155  0  0  -0.881108  0  2.041704  0  0  -0.618008  -0.848486  0  2.090966  0
