# generated using pymatgen
data_PrH7C7NO6
_symmetry_space_group_name_H-M   'P 1'
_cell_length_a   5.96266643
_cell_length_b   8.72094891
_cell_length_c   18.41701939
_cell_angle_alpha   90.00082762
_cell_angle_beta   89.98985446
_cell_angle_gamma   83.60327901
_symmetry_Int_Tables_number   1
_chemical_formula_structural   PrH7C7NO6
_chemical_formula_sum   'Pr4 H28 C28 N4 O24'
_cell_volume   951.72472984
_cell_formula_units_Z   4
loop_
 _symmetry_equiv_pos_site_id
 _symmetry_equiv_pos_as_xyz
  1  'x, y, z'
loop_
 _atom_site_type_symbol
 _atom_site_label
 _atom_site_symmetry_multiplicity
 _atom_site_fract_x
 _atom_site_fract_y
 _atom_site_fract_z
 _atom_site_occupancy
 _atom_site_hle17_bader_spin_density
 _atom_site_hle17_ddec_charge
 _atom_site_hle17_ddec_spin_density
 _atom_site_hle17_ddec_sum_bond_order
 _atom_site_hle17_magmom
 _atom_site_hse06_10hf_bader_charge
 _atom_site_hse06_10hf_bader_spin_density
 _atom_site_hse06_10hf_ddec_charge
 _atom_site_hse06_10hf_ddec_spin_density
 _atom_site_hse06_10hf_ddec_sum_bond_order
 _atom_site_hse06_10hf_magmom
 _atom_site_hse06_bader_spin_density
 _atom_site_hse06_ddec_charge
 _atom_site_hse06_ddec_spin_density
 _atom_site_hse06_ddec_sum_bond_order
 _atom_site_hse06_magmom
 _atom_site_pbe_bader_spin_density
 _atom_site_pbe_cm5_charge
 _atom_site_pbe_ddec_charge
 _atom_site_pbe_ddec_spin_density
 _atom_site_pbe_ddec_sum_bond_order
 _atom_site_pbe_magmom
Pr  Pr0  1  0.52281241  0.61259244  0.39660614  1  0  2.233381  0  1.638871  0  2.237504  0  2.057022  0  2.111847  0  0  2.097992  0  2.062413  0  0  1.481612  2.025084  0  2.150553  0
Pr  Pr1  1  0.97719889  0.38737402  0.89658994  1  0  2.233229  0  1.639251  0  2.237353  0  2.056879  0  2.112193  0  0  2.09772  0  2.062902  0  0  1.481639  2.024942  0  2.150931  0
Pr  Pr2  1  0.47717684  0.38737726  0.60340824  1  0  2.233426  0  1.639009  0  2.237314  0  2.057043  0  2.111991  0  0  2.098152  0  2.062336  0  0  1.481625  2.025081  0  2.150718  0
Pr  Pr3  1  0.02282185  0.61261434  0.10338480  1  0  2.233381  0  1.638755  0  2.237268  0  2.057135  0  2.11149  0  0  2.097891  0  2.062369  0  0  1.481485  2.025221  0  2.150208  0
H  H4  1  0.31021601  0.04138365  0.28662203  1  0  0.113817  0  0.937395  0  0.092419  0  0.125506  0  0.992896  0  0  0.128598  0  0.992227  0  0  0.11132  0.123274  0  0.99344  0
H  H5  1  0.18981338  0.95858615  0.78661630  1  0  0.113672  0  0.937596  0  0.092165  0  0.125424  0  0.993012  0  0  0.128472  0  0.992382  0  0  0.111241  0.123205  0  0.993557  0
H  H6  1  0.68977909  0.95861780  0.71338475  1  0  0.11391  0  0.937121  0  0.092672  0  0.125634  0  0.992561  0  0  0.128774  0  0.991832  0  0  0.111417  0.123387  0  0.993139  0
H  H7  1  0.81020018  0.04141757  0.21338830  1  0  0.11389  0  0.937712  0  0.092178  0  0.125703  0  0.993006  0  0  0.128801  0  0.992321  0  0  0.111379  0.123466  0  0.99359  0
H  H8  1  0.33502227  0.26000931  0.19841134  1  0  0.084964  0  0.990412  0  0.05786  0  0.093793  0  1.059203  0  0  0.09726  0  1.05609  0  0  0.10327  0.091182  0  1.061643  0
H  H9  1  0.16502235  0.73995296  0.69842711  1  0  0.084729  0  0.990654  0  0.057966  0  0.093571  0  1.059495  0  0  0.097034  0  1.056402  0  0  0.103203  0.090989  0  1.061869  0
H  H10  1  0.66499419  0.74001144  0.80158349  1  0  0.084923  0  0.990562  0  0.057777  0  0.093774  0  1.059301  0  0  0.097215  0  1.056217  0  0  0.103268  0.091161  0  1.061747  0
H  H11  1  0.83501493  0.26004583  0.30157804  1  0  0.084727  0  0.990765  0  0.057843  0  0.093539  0  1.059608  0  0  0.097013  0  1.056498  0  0  0.10326  0.090936  0  1.062025  0
H  H12  1  0.18802717  0.95115041  0.02578311  1  0  0.07854  0  0.929696  0  0.11281  0  0.084884  0  0.998402  0  0  0.088026  0  0.994417  0  0  0.123155  0.082534  0  1.001297  0
H  H13  1  0.31191622  0.04879031  0.52580512  1  0  0.078394  0  0.930407  0  0.113144  0  0.084819  0  0.999015  0  0  0.087945  0  0.995042  0  0  0.123219  0.082485  0  1.0019  0
H  H14  1  0.81209133  0.04883521  0.97420466  1  0  0.078644  0  0.930019  0  0.113208  0  0.08501  0  0.998631  0  0  0.088167  0  0.994642  0  0  0.123277  0.082663  0  1.00154  0
H  H15  1  0.68793782  0.95119596  0.47420546  1  0  0.078511  0  0.930492  0  0.112953  0  0.084968  0  0.998982  0  0  0.088129  0  0.994985  0  0  0.123223  0.082599  0  1.001897  0
H  H16  1  0.31556102  0.47994721  0.27272765  1  0  0.434094  0  0.873938  0  0.660262  0  0.400071  0  0.94259  0  0  0.41284  0  0.923963  0  0  0.294171  0.391089  0  0.955659  0
H  H17  1  0.18444022  0.52004795  0.77273908  1  0  0.434072  0  0.87399  0  0.660177  0  0.400055  0  0.942657  0  0  0.412839  0  0.924007  0  0  0.294172  0.391063  0  0.955742  0
H  H18  1  0.68445657  0.52003332  0.72727098  1  0  0.434141  0  0.873802  0  0.66002  0  0.400025  0  0.942607  0  0  0.41279  0  0.923983  0  0  0.294127  0.391038  0  0.955682  0
H  H19  1  0.81553651  0.48000741  0.22726824  1  0  0.433969  0  0.874068  0  0.659802  0  0.399834  0  0.94292  0  0  0.412614  0  0.924276  0  0  0.294002  0.390842  0  0.956005  0
H  H20  1  0.47743414  0.32900144  0.29964333  1  0  0.412043  0  0.865783  0  0.609451  0  0.387986  0  0.935093  0  0  0.39559  0  0.924153  0  0  0.305115  0.382599  0  0.942844  0
H  H21  1  0.02259242  0.67098391  0.79964970  1  0  0.412167  0  0.865729  0  0.609203  0  0.388067  0  0.935021  0  0  0.395672  0  0.92408  0  0  0.305167  0.382675  0  0.942779  0
H  H22  1  0.52254797  0.67098247  0.70036508  1  0  0.411991  0  0.865791  0  0.609407  0  0.387873  0  0.935267  0  0  0.395477  0  0.924333  0  0  0.305013  0.382477  0  0.943024  0
H  H23  1  0.97740932  0.32902056  0.20035762  1  0  0.412119  0  0.865638  0  0.609482  0  0.388  0  0.935094  0  0  0.395599  0  0.924167  0  0  0.3051  0.382615  0  0.94284  0
H  H24  1  0.85060199  0.60583572  0.56009629  1  0  0.46886  0  0.799882  0  0.657332  0  0.444681  0  0.848889  0  0  0.454799  0  0.834135  0  0  0.324248  0.437467  0  0.859406  0
H  H25  1  0.64936780  0.39417645  0.06008481  1  0  0.468833  0  0.799971  0  0.657019  0  0.444704  0  0.848893  0  0  0.454803  0  0.834158  0  0  0.324317  0.437512  0  0.859387  0
H  H26  1  0.14935553  0.39418416  0.43990995  1  0  0.468942  0  0.799853  0  0.657125  0  0.444829  0  0.848724  0  0  0.454915  0  0.834009  0  0  0.324448  0.437645  0  0.859203  0
H  H27  1  0.35063064  0.60582593  0.93990839  1  0  0.468766  0  0.800056  0  0.657247  0  0.444649  0  0.848951  0  0  0.454739  0  0.834228  0  0  0.324336  0.437456  0  0.859442  0
H  H28  1  0.80839356  0.48157216  0.49689677  1  0  0.394967  0  0.941338  0  0.642222  0  0.360287  0  1.013008  0  0  0.373294  0  0.993801  0  0  0.289272  0.351206  0  1.026372  0
H  H29  1  0.69158049  0.51845986  0.99690887  1  0  0.394993  0  0.94134  0  0.645457  0  0.360236  0  1.013096  0  0  0.373247  0  0.993882  0  0  0.289254  0.351158  0  1.026458  0
H  H30  1  0.19160059  0.51840297  0.50309807  1  0  0.395134  0  0.941205  0  0.642523  0  0.360429  0  1.012871  0  0  0.373436  0  0.993667  0  0  0.289373  0.351351  0  1.026231  0
H  H31  1  0.30843528  0.48158501  0.00308325  1  0  0.395017  0  0.941341  0  0.642377  0  0.360328  0  1.012989  0  0  0.373335  0  0.993778  0  0  0.289353  0.351247  0  1.026352  0
C  C32  1  0.25627755  0.74409654  0.24755249  1  0  0.597782  0  3.920981  0  1.443111  0  0.549484  0  4.215572  0  0  0.579107  0  4.215616  0  0  0.192342  0.529346  0  4.214774  0
C  C33  1  0.24373208  0.25587197  0.74755268  1  0  0.597104  0  3.922749  0  1.443387  0  0.548805  0  4.217416  0  0  0.578409  0  4.217532  0  0  0.191837  0.528762  0  4.216561  0
C  C34  1  0.74376892  0.25593493  0.75244289  1  0  0.5981  0  3.920813  0  1.444652  0  0.549668  0  4.215605  0  0  0.579418  0  4.215433  0  0  0.19241  0.529507  0  4.214971  0
C  C35  1  0.75625039  0.74409930  0.25244161  1  0  0.597624  0  3.921293  0  1.443921  0  0.549188  0  4.21598  0  0  0.57898  0  4.215778  0  0  0.192151  0.529074  0  4.215245  0
C  C36  1  0.25422888  0.87904028  0.20196260  1  0  0.052348  0  3.774105  0  0.436011  0  0.056013  0  4.024466  0  0  0.052996  0  4.047392  0  0  0.078046  0.057775  0  4.009179  0
C  C37  1  0.24578125  0.12093805  0.70199535  1  0  0.052436  0  3.774094  0  0.461828  0  0.055728  0  4.024779  0  0  0.052742  0  4.047775  0  0  0.077929  0.0576  0  4.009435  0
C  C38  1  0.74583060  0.12094793  0.79803766  1  0  0.052786  0  3.773613  0  0.43594  0  0.056212  0  4.024238  0  0  0.053352  0  4.046958  0  0  0.078362  0.057954  0  4.009072  0
C  C39  1  0.75419619  0.87909203  0.29803315  1  0  0.05262  0  3.773447  0  0.434703  0  0.056136  0  4.023786  0  0  0.053398  0  4.046496  0  0  0.07822  0.057943  0  4.008519  0
C  C40  1  0.28848167  0.02656882  0.22845139  1  0  -0.094939  0  3.765224  0  0.05244  0  -0.117726  0  4.020944  0  0  -0.120209  0  4.044664  0  0  -0.079908  -0.11614  0  4.005136  0
C  C41  1  0.21154586  0.97339100  0.72846139  1  0  -0.095065  0  3.766171  0  0.025377  0  -0.117876  0  4.022079  0  0  -0.120402  0  4.045978  0  0  -0.080088  -0.116261  0  4.006205  0
C  C42  1  0.71155214  0.97343362  0.77155431  1  0  -0.09493  0  3.765049  0  0.052893  0  -0.117709  0  4.020894  0  0  -0.120135  0  4.044428  0  0  -0.079946  -0.116148  0  4.005204  0
C  C43  1  0.78843104  0.02659898  0.27152747  1  0  -0.095014  0  3.765698  0  0.053102  0  -0.117952  0  4.021473  0  0  -0.120417  0  4.045122  0  0  -0.080068  -0.116361  0  4.005683  0
C  C44  1  0.29801705  0.14668269  0.18032868  1  0  -0.094476  0  3.768451  0  -0.125559  0  -0.116215  0  4.02328  0  0  -0.114829  0  4.044534  0  0  -0.095464  -0.11695  0  4.009088  0
C  C45  1  0.20196826  0.85329988  0.68034539  1  0  -0.094411  0  3.768836  0  -0.126169  0  -0.116336  0  4.023917  0  0  -0.114972  0  4.045253  0  0  -0.095489  -0.116907  0  4.009581  0
C  C46  1  0.70200180  0.85331267  0.81967158  1  0  -0.094431  0  3.768789  0  -0.126043  0  -0.116224  0  4.023768  0  0  -0.114763  0  4.04491  0  0  -0.095449  -0.116938  0  4.009633  0
C  C47  1  0.79800134  0.14671006  0.31965324  1  0  -0.094165  0  3.76844  0  -0.125332  0  -0.116118  0  4.023594  0  0  -0.11464  0  4.044743  0  0  -0.095487  -0.116736  0  4.009329  0
C  C48  1  0.26201555  0.12264934  0.10464037  1  0  -0.159763  0  3.782507  0  0.068279  0  -0.140347  0  4.025043  0  0  -0.157106  0  4.052396  0  0  -0.040393  -0.129736  0  4.006853  0
C  C49  1  0.23802233  0.87730083  0.60464547  1  0  -0.159593  0  3.782539  0  0.06789  0  -0.140429  0  4.025423  0  0  -0.157146  0  4.052771  0  0  -0.040189  -0.129689  0  4.007108  0
C  C50  1  0.73804003  0.87735746  0.89534686  1  0  -0.158894  0  3.782395  0  0.067891  0  -0.139824  0  4.025275  0  0  -0.156486  0  4.052494  0  0  -0.040209  -0.129204  0  4.007139  0
C  C51  1  0.76194483  0.12267600  0.39534990  1  0  -0.159329  0  3.781607  0  0.067173  0  -0.140294  0  4.024485  0  0  -0.156852  0  4.051614  0  0  -0.040211  -0.129609  0  4.006255  0
C  C52  1  0.22073267  0.97327437  0.08298589  1  0  0.174815  0  3.711207  0  0.504011  0  0.135397  0  3.971705  0  0  0.14819  0  3.985326  0  0  0.068438  0.127112  0  3.962225  0
C  C53  1  0.27924945  0.02670264  0.58300087  1  0  0.174982  0  3.712268  0  0.503913  0  0.135508  0  3.97289  0  0  0.14835  0  3.986524  0  0  0.068257  0.127204  0  3.963385  0
C  C54  1  0.77936233  0.02670815  0.91700785  1  0  0.174264  0  3.711744  0  0.504363  0  0.13495  0  3.972256  0  0  0.147746  0  3.985802  0  0  0.068107  0.12666  0  3.96283  0
C  C55  1  0.72063938  0.97330437  0.41701677  1  0  0.174563  0  3.712055  0  0.504187  0  0.135121  0  3.972615  0  0  0.14797  0  3.986111  0  0  0.068185  0.126815  0  3.963174  0
C  C56  1  0.25551385  0.24636403  0.05221341  1  0  0.64643  0  3.910437  0  1.423644  0  0.604064  0  4.196402  0  0  0.637302  0  4.193145  0  0  0.19945  0.581601  0  4.197652  0
C  C57  1  0.24449412  0.75361828  0.55222810  1  0  0.646315  0  3.9108  0  1.422561  0  0.603715  0  4.197059  0  0  0.637006  0  4.193814  0  0  0.199108  0.581351  0  4.198222  0
C  C58  1  0.74450971  0.75364365  0.94778413  1  0  0.646368  0  3.910131  0  1.423936  0  0.604001  0  4.196181  0  0  0.6373  0  4.192811  0  0  0.199621  0.581534  0  4.197524  0
C  C59  1  0.75548800  0.24642527  0.44778194  1  0  0.646504  0  3.911424  0  1.42488  0  0.604051  0  4.197444  0  0  0.637461  0  4.193976  0  0  0.199402  0.581636  0  4.198713  0
N  N60  1  0.21827863  0.85561502  0.12855913  1  0  -0.475558  0  3.254155  0  -1.306759  0  -0.424706  0  3.532969  0  0  -0.438839  0  3.548305  0  0  -0.421403  -0.414936  0  3.522418  0
N  N61  1  0.28168207  0.14437758  0.62855313  1  0  -0.476006  0  3.253944  0  -1.30608  0  -0.425187  0  3.532971  0  0  -0.43938  0  3.548327  0  0  -0.421585  -0.415306  0  3.522349  0
N  N62  1  0.78179255  0.14437589  0.87143624  1  0  -0.475439  0  3.254697  0  -1.307192  0  -0.424611  0  3.533572  0  0  -0.438693  0  3.548773  0  0  -0.421461  -0.414827  0  3.523081  0
N  N63  1  0.71824410  0.85561904  0.37145257  1  0  -0.475279  0  3.253939  0  -1.30641  0  -0.424574  0  3.532804  0  0  -0.438649  0  3.547964  0  0  -0.421344  -0.414739  0  3.522264  0
O  O64  1  0.36757930  0.41288065  0.31651914  1  0  -0.881892  0  1.822215  0  -1.284755  0  -0.830001  0  2.012745  0  0  -0.847851  0  1.981917  0  0  -0.633905  -0.81711  0  2.034356  0
O  O65  1  0.13242552  0.58711585  0.81652962  1  0  -0.881925  0  1.82236  0  -1.284468  0  -0.830014  0  2.012711  0  0  -0.847876  0  1.981888  0  0  -0.633926  -0.817131  0  2.034332  0
O  O66  1  0.63241596  0.58711505  0.68346049  1  0  -0.881924  0  1.822132  0  -1.284405  0  -0.829892  0  2.012721  0  0  -0.847746  0  1.981877  0  0  -0.633717  -0.817017  0  2.034338  0
O  O67  1  0.86756258  0.41289521  0.18346629  1  0  -0.881914  0  1.821931  0  -1.284332  0  -0.829904  0  2.012484  0  0  -0.84775  0  1.981675  0  0  -0.633761  -0.817012  0  2.034097  0
O  O68  1  0.19176938  0.22856023  0.98664809  1  0  -0.742346  0  2.009708  0  -1.23561  0  -0.685955  0  2.259669  0  0  -0.709825  0  2.249357  0  0  -0.4104  -0.66894  0  2.26614  0
O  O69  1  0.30819963  0.77141017  0.48664629  1  0  -0.742508  0  2.009511  0  -1.235079  0  -0.686172  0  2.259614  0  0  -0.710057  0  2.249301  0  0  -0.410569  -0.669069  0  2.266029  0
O  O70  1  0.80826079  0.77145162  0.01335651  1  0  -0.742494  0  2.009536  0  -1.235305  0  -0.686163  0  2.259504  0  0  -0.709959  0  2.249161  0  0  -0.410661  -0.669144  0  2.266018  0
O  O71  1  0.69180127  0.22856453  0.51334312  1  0  -0.742098  0  2.009995  0  -1.235415  0  -0.685845  0  2.259987  0  0  -0.70964  0  2.249567  0  0  -0.410287  -0.668803  0  2.26647  0
O  O72  1  0.31328078  0.38123156  0.07460789  1  0  -0.786165  0  2.014373  0  -1.252778  0  -0.710695  0  2.243271  0  0  -0.734983  0  2.228765  0  0  -0.396695  -0.693275  0  2.252626  0
O  O73  1  0.18674852  0.61873530  0.57461992  1  0  -0.786291  0  2.014411  0  -1.252891  0  -0.710757  0  2.243379  0  0  -0.735098  0  2.228889  0  0  -0.396677  -0.693306  0  2.252702  0
O  O74  1  0.68673781  0.61877299  0.92539400  1  0  -0.786114  0  2.014556  0  -1.253072  0  -0.710599  0  2.243436  0  0  -0.73487  0  2.228876  0  0  -0.396584  -0.693166  0  2.252794  0
O  O75  1  0.81322366  0.38124236  0.42538198  1  0  -0.785867  0  2.015781  0  -1.253315  0  -0.710462  0  2.244693  0  0  -0.734738  0  2.23012  0  0  -0.396541  -0.693033  0  2.254062  0
O  O76  1  0.28060725  0.75187334  0.31696155  1  0  -0.735152  0  2.058841  0  -1.245394  0  -0.679003  0  2.319727  0  0  -0.704657  0  2.314118  0  0  -0.453336  -0.660624  0  2.323014  0
O  O77  1  0.21944180  0.24809859  0.81696956  1  0  -0.73521  0  2.059324  0  -1.245435  0  -0.679035  0  2.320067  0  0  -0.704749  0  2.314568  0  0  -0.453443  -0.660605  0  2.323322  0
O  O78  1  0.71936043  0.24814474  0.68304849  1  0  -0.735024  0  2.059227  0  -1.246278  0  -0.678867  0  2.320136  0  0  -0.704423  0  2.314385  0  0  -0.453312  -0.660501  0  2.323484  0
O  O79  1  0.78057805  0.75192079  0.18303342  1  0  -0.734911  0  2.05915  0  -1.245428  0  -0.67881  0  2.3199  0  0  -0.70442  0  2.314342  0  0  -0.453086  -0.66039  0  2.323145  0
O  O80  1  0.23950724  0.61144617  0.21541643  1  0  -0.757073  0  2.083699  0  -1.223708  0  -0.689527  0  2.328182  0  0  -0.714318  0  2.317846  0  0  -0.408007  -0.671769  0  2.334728  0
O  O81  1  0.26043547  0.38850019  0.71542101  1  0  -0.7568  0  2.084674  0  -1.224013  0  -0.689299  0  2.329105  0  0  -0.714142  0  2.318847  0  0  -0.407983  -0.671453  0  2.33552  0
O  O82  1  0.76054587  0.38852867  0.78459198  1  0  -0.756946  0  2.084483  0  -1.223867  0  -0.689354  0  2.329028  0  0  -0.714074  0  2.31859  0  0  -0.408067  -0.671555  0  2.335528  0
O  O83  1  0.73953169  0.61147664  0.28457708  1  0  -0.756652  0  2.084618  0  -1.223618  0  -0.689104  0  2.329139  0  0  -0.713812  0  2.318682  0  0  -0.407833  -0.671333  0  2.335719  0
O  O84  1  0.73277752  0.56394622  0.53102468  1  0  -0.965167  0  1.876942  0  -1.322511  0  -0.904791  0  2.066701  0  0  -0.92363  0  2.031782  0  0  -0.630717  -0.890928  0  2.09104  0
O  O85  1  0.76717831  0.43607497  0.03101563  1  0  -0.965178  0  1.876956  0  -1.325309  0  -0.904792  0  2.066816  0  0  -0.923559  0  2.031922  0  0  -0.630812  -0.890936  0  2.091141  0
O  O86  1  0.26713302  0.43606744  0.46896690  1  0  -0.965304  0  1.876797  0  -1.322578  0  -0.904929  0  2.066664  0  0  -0.923737  0  2.031758  0  0  -0.631016  -0.891087  0  2.09099  0
O  O87  1  0.23284029  0.56392958  0.96898029  1  0  -0.965044  0  1.877246  0  -1.322524  0  -0.904704  0  2.067041  0  0  -0.923476  0  2.032168  0  0  -0.630895  -0.890851  0  2.091378  0
