# generated using pymatgen
data_Zn4H29C43NO13
_symmetry_space_group_name_H-M   'P 1'
_cell_length_a   15.06384764
_cell_length_b   15.24607529
_cell_length_c   19.51480708
_cell_angle_alpha   91.19699307
_cell_angle_beta   91.08410011
_cell_angle_gamma   90.98113307
_symmetry_Int_Tables_number   1
_chemical_formula_structural   Zn4H29C43NO13
_chemical_formula_sum   'Zn4 H29 C43 N1 O13'
_cell_volume   4479.39133450
_cell_formula_units_Z   1
loop_
 _symmetry_equiv_pos_site_id
 _symmetry_equiv_pos_as_xyz
  1  'x, y, z'
loop_
 _atom_site_type_symbol
 _atom_site_label
 _atom_site_symmetry_multiplicity
 _atom_site_fract_x
 _atom_site_fract_y
 _atom_site_fract_z
 _atom_site_occupancy
 _atom_site_pbe_bader_charge
 _atom_site_pbe_bader_spin_density
 _atom_site_pbe_cm5_charge
 _atom_site_pbe_ddec_charge
 _atom_site_pbe_ddec_spin_density
 _atom_site_pbe_ddec_sum_bond_order
 _atom_site_pbe_magmom
Zn  Zn0  1  0.56784389  0.57257451  0.56316182  1  1.313935  0  0.668754  0.958131  0  2.40057  0
Zn  Zn1  1  0.57786623  0.42805585  0.44017308  1  1.316428  0  0.671007  0.968352  0  2.36001  0
Zn  Zn2  1  0.42612874  0.57770179  0.44269915  1  1.313434  0  0.67012  0.968125  0  2.35136  0
Zn  Zn3  1  0.42647529  0.41701054  0.54936678  1  1.310307  0  0.671319  0.960764  0  2.390676  0
H  H4  1  0.59289200  0.58055079  0.77233919  1  0.093311  0  0.107745  0.113521  0  0.99278  0
H  H5  1  0.00015026  0.32741298  0.45863055  1  0.07276  0  0.106233  0.107097  0  0.988943  0
H  H6  1  0.43978518  0.63669379  0.23623268  1  0.079227  0  0.105467  0.121042  0  0.999407  0
H  H7  1  0.99868889  0.68185054  0.53556675  1  0.08354  0  0.104961  0.105924  0  0.990552  0
H  H8  1  0.16517188  0.34191808  0.46344736  1  0.0813  0  0.107819  0.113724  0  0.990348  0
H  H9  1  0.14717368  0.61781580  0.51102327  1  0.101167  0  0.108628  0.114906  0  0.991595  0
H  H10  1  0.58261794  0.39531255  0.22716772  1  0.101726  0  0.103279  0.113645  0  1.003273  0
H  H11  1  0.52310157  0.59177641  0.99751984  1  0.040856  0  0.097561  0.083597  0  1.019112  0
H  H12  1  0.41949234  0.34720469  0.88670950  1  0.065589  0  0.102351  0.102552  0  0.994259  0
H  H13  1  0.41432782  0.35804296  0.75934275  1  0.108792  0  0.108332  0.113196  0  0.990756  0
H  H14  1  0.48619824  0.39327177  0.99847021  1  0.076168  0  0.102646  0.103423  0  0.99558  0
H  H15  1  0.58363795  0.40286503  0.09940445  1  0.032847  0  0.100372  0.100572  0  1.000433  0
H  H16  1  0.59677565  0.57234056  0.89947012  1  0.058241  0  0.100237  0.099714  0  1.004295  0
H  H17  1  0.65361932  0.25036922  0.71002220  1  0.044296  0  0.085694  0.112716  0  1.0018  0
H  H18  1  0.63169321  0.14595532  0.74501792  1  0.016048  0  0.081475  0.10324  0  1.009289  0
H  H19  1  0.74039567  0.17359039  0.71814347  1  -0.005914  0  0.08624  0.111409  0  1.003694  0
H  H20  1  0.66502449  0.07381647  0.63020094  1  0.02581  0  0.084871  0.070493  0  0.996096  0
H  H21  1  0.68532665  0.17754665  0.59535952  1  0.032338  0  0.088449  0.078905  0  0.972104  0
H  H22  1  0.52964006  0.22146519  0.61763798  1  0.080591  0  0.095208  0.10707  0  1.011095  0
H  H23  1  0.50731763  0.12087554  0.65610099  1  0.038055  0  0.092324  0.089334  0  0.990848  0
H  H24  1  0.44143183  0.67087243  0.05197335  1  0.426356  0  0.302501  0.293709  0  0.972486  0
H  H25  1  0.42156314  0.71614313  0.13077080  1  0.43535  0  0.31191  0.306654  0  0.938291  0
H  H26  1  0.49635187  0.16273754  0.37777649  1  0.080696  0  0.10587  0.110957  0  0.990058  0
H  H27  1  0.53432817  0.99046538  0.64793732  1  0.082076  0  0.103176  0.102184  0  1.017977  0
H  H28  1  0.47708353  0.00057909  0.36499299  1  0.076142  0  0.103054  0.104556  0  0.994285  0
H  H29  1  0.51952194  0.82987871  0.63369064  1  0.085758  0  0.105221  0.111959  0  0.996057  0
H  H30  1  0.46908467  0.85483629  0.41782137  1  0.095779  0  0.107024  0.112726  0  0.998334  0
H  H31  1  0.85195146  0.39512900  0.47133210  1  0.091996  0  0.109036  0.116435  0  0.996136  0
H  H32  1  0.83415155  0.66401208  0.53930176  1  0.076317  0  0.107214  0.113869  0  0.994757  0
C  C33  1  0.51339409  0.25951857  0.49033104  1  1.502257  0  0.231839  0.61987  0  4.147952  0
C  C34  1  0.50315418  0.45702852  0.97700724  1  -0.087055  0  -0.092149  -0.143115  0  3.998977  0
C  C35  1  0.51421163  0.52710242  0.02026870  1  -0.09297  0  -0.09007  -0.112162  0  4.016812  0
C  C36  1  0.48839752  0.73576655  0.51666631  1  1.563974  0  0.224843  0.603951  0  4.165127  0
C  C37  1  0.51053121  0.51581461  0.23870848  1  -0.061376  0  -0.022385  -0.021972  0  4.025021  0
C  C38  1  0.51360970  0.16116719  0.48800762  1  0.024912  0  -0.014315  -0.081646  0  3.937155  0
C  C39  1  0.49341929  0.83310619  0.52439359  1  -0.01633  0  -0.02129  -0.036983  0  4.005725  0
C  C40  1  0.52104117  0.96187455  0.59709601  1  -0.123586  0  -0.091738  -0.133673  0  4.01066  0
C  C41  1  0.51233585  0.87222587  0.58973045  1  -0.007306  0  -0.088978  -0.100796  0  4.007051  0
C  C42  1  0.48381891  0.88553086  0.46782108  1  -0.023327  0  -0.075072  -0.130721  0  3.925633  0
C  C43  1  0.49490555  0.97778347  0.47369837  1  -0.057705  0  -0.005867  0.078773  0  4.018786  0
C  C44  1  0.50596347  0.46082610  0.90248939  1  -0.011816  0  -0.00721  0.121513  0  4.04211  0
C  C45  1  0.51337924  0.01790740  0.53986830  1  0.000718  0  -0.001074  0.031155  0  3.933346  0
C  C46  1  0.52233397  0.11140600  0.54690743  1  0.015517  0  0.007315  0.070502  0  3.873132  0
C  C47  1  0.49980835  0.12084046  0.42229657  1  -0.095938  0  -0.090453  -0.103956  0  4.030825  0
C  C48  1  0.73541300  0.51888049  0.50432341  1  1.525713  0  0.22715  0.606923  0  4.159544  0
C  C49  1  0.48946448  0.03143445  0.41529430  1  0.0469  0  -0.092801  -0.139576  0  4.02507  0
C  C50  1  0.83410904  0.52833437  0.50427722  1  0.004243  0  -0.019627  -0.035584  0  3.993958  0
C  C51  1  0.16488852  0.48152052  0.48665554  1  0.004982  0  -0.014599  -0.023286  0  3.988654  0
C  C52  1  0.03245787  0.39052150  0.47105546  1  -0.038536  0  -0.08601  -0.128858  0  3.9987  0
C  C53  1  0.12351645  0.39840916  0.47300831  1  -0.029899  0  -0.086881  -0.103822  0  4.004032  0
C  C54  1  0.11435635  0.55448384  0.50051388  1  -0.010403  0  -0.077214  -0.142946  0  3.926922  0
C  C55  1  0.45703487  0.39894405  0.86168797  1  -0.0745  0  -0.090576  -0.13899  0  3.97323  0
C  C56  1  0.02062770  0.54709330  0.50301353  1  -0.031515  0  -0.002093  0.081921  0  3.995532  0
C  C57  1  0.97865908  0.46385323  0.48623022  1  -0.045436  0  -0.003679  0.077685  0  4.000047  0
C  C58  1  0.88495075  0.45717607  0.48574452  1  -0.010009  0  -0.074445  -0.132762  0  3.926227  0
C  C59  1  0.87571931  0.60963334  0.52373882  1  -0.026044  0  -0.086579  -0.099704  0  4.00063  0
C  C60  1  0.26383426  0.48842720  0.48874093  1  1.534785  0  0.22924  0.611136  0  4.156737  0
C  C61  1  0.96665758  0.61896633  0.52192745  1  -0.041993  0  -0.08835  -0.13329  0  3.997603  0
C  C62  1  0.50693727  0.51086174  0.31489051  1  1.550761  0  0.226939  0.609728  0  4.153853  0
C  C63  1  0.49956342  0.47830022  0.68239090  1  1.529407  0  0.224679  0.601971  0  4.172524  0
C  C64  1  0.50220459  0.47083079  0.75828751  1  -0.057642  0  -0.022712  -0.049531  0  3.991549  0
C  C65  1  0.55395435  0.53078101  0.79821015  1  -0.055087  0  -0.083138  -0.085903  0  3.993067  0
C  C66  1  0.45392631  0.40457879  0.79068578  1  0.002251  0  -0.082178  -0.085466  0  3.99129  0
C  C67  1  0.55538616  0.52614971  0.86911236  1  0.014248  0  -0.092778  -0.138815  0  3.977671  0
C  C68  1  0.54685662  0.15194314  0.61604964  1  -0.055786  0  -0.165804  -0.210811  0  3.966417  0
C  C69  1  0.64631203  0.14322472  0.63408387  1  -0.042485  0  -0.16459  -0.088555  0  3.9619  0
C  C70  1  0.66944844  0.18031703  0.70564257  1  -0.042778  0  -0.244501  -0.351521  0  3.988684  0
C  C71  1  0.47349632  0.59239420  0.13385867  1  0.391087  0  0.096871  0.2588  0  4.079662  0
C  C72  1  0.47220269  0.58640751  0.20552173  1  0.005566  0  -0.100004  -0.217952  0  3.947328  0
C  C73  1  0.55131279  0.44902260  0.20057840  1  -0.020714  0  -0.104493  -0.135249  0  4.035976  0
C  C74  1  0.55110073  0.45349439  0.12968105  1  -0.025051  0  -0.092646  -0.118181  0  4.02403  0
C  C75  1  0.51293506  0.52391855  0.09475993  1  0.054469  0  -0.022041  0.003498  0  4.00174  0
N  N76  1  0.43117046  0.66099003  0.10231757  1  -1.219871  0  -0.597634  -0.622467  0  3.338303  0
O  O77  1  0.49919786  0.49860538  0.49736589  1  -1.234855  0  -0.574634  -1.03186  0  2.546637  0
O  O78  1  0.55928533  0.45699214  0.34361345  1  -1.178608  0  -0.317376  -0.550209  0  2.335101  0
O  O79  1  0.43933849  0.43399486  0.64911440  1  -1.162697  0  -0.318287  -0.54953  0  2.323894  0
O  O80  1  0.45144079  0.56032736  0.34509417  1  -1.179585  0  -0.318738  -0.552031  0  2.330555  0
O  O81  1  0.55785977  0.52897119  0.65643395  1  -1.167415  0  -0.319232  -0.551594  0  2.344491  0
O  O82  1  0.69312422  0.57773986  0.53735444  1  -1.168113  0  -0.316784  -0.54573  0  2.319087  0
O  O83  1  0.30382717  0.42310029  0.51431805  1  -1.168833  0  -0.316718  -0.547178  0  2.319883  0
O  O84  1  0.56032892  0.29958438  0.44661674  1  -1.160558  0  -0.313839  -0.54497  0  2.29577  0
O  O85  1  0.45320694  0.70307683  0.46156085  1  -1.169986  0  -0.316491  -0.546743  0  2.315649  0
O  O86  1  0.46307245  0.29516015  0.53430405  1  -1.173814  0  -0.312077  -0.54658  0  2.359062  0
O  O87  1  0.52119958  0.69213133  0.56610602  1  -1.181569  0  -0.320087  -0.553667  0  2.330113  0
O  O88  1  0.70110273  0.45278472  0.47164887  1  -1.181534  0  -0.318904  -0.554762  0  2.333617  0
O  O89  1  0.29993916  0.55782072  0.46552279  1  -1.170381  0  -0.315831  -0.548784  0  2.304148  0
