# generated using pymatgen
data_AgH6C7S4N2O3
_symmetry_space_group_name_H-M   'P 1'
_cell_length_a   5.41478986
_cell_length_b   14.00922874
_cell_length_c   15.73371882
_cell_angle_alpha   90.00036849
_cell_angle_beta   89.99944602
_cell_angle_gamma   89.99969214
_symmetry_Int_Tables_number   1
_chemical_formula_structural   AgH6C7S4N2O3
_chemical_formula_sum   'Ag4 H24 C28 S16 N8 O12'
_cell_volume   1193.51317638
_cell_formula_units_Z   4
loop_
 _symmetry_equiv_pos_site_id
 _symmetry_equiv_pos_as_xyz
  1  'x, y, z'
loop_
 _atom_site_type_symbol
 _atom_site_label
 _atom_site_symmetry_multiplicity
 _atom_site_fract_x
 _atom_site_fract_y
 _atom_site_fract_z
 _atom_site_occupancy
 _atom_site_hle17_bader_spin_density
 _atom_site_hle17_ddec_charge
 _atom_site_hle17_ddec_spin_density
 _atom_site_hle17_ddec_sum_bond_order
 _atom_site_hle17_magmom
 _atom_site_hse06_10hf_bader_spin_density
 _atom_site_hse06_10hf_ddec_charge
 _atom_site_hse06_10hf_ddec_spin_density
 _atom_site_hse06_10hf_ddec_sum_bond_order
 _atom_site_hse06_10hf_magmom
 _atom_site_hse06_bader_spin_density
 _atom_site_hse06_ddec_charge
 _atom_site_hse06_ddec_spin_density
 _atom_site_hse06_ddec_sum_bond_order
 _atom_site_hse06_magmom
 _atom_site_pbe_bader_spin_density
 _atom_site_pbe_cm5_charge
 _atom_site_pbe_ddec_charge
 _atom_site_pbe_ddec_spin_density
 _atom_site_pbe_ddec_sum_bond_order
 _atom_site_pbe_magmom
Ag  Ag0  1  0.97082422  0.39350464  0.20899397  1  0  0.487314  0  1.546848  0  0  0.383141  0  1.998897  0  0  0.407326  0  1.952647  0  0  0.414199  0.366584  0  2.030753  0
Ag  Ag1  1  0.97082192  0.60649635  0.79100956  1  0  0.487376  0  1.546797  0  0  0.383176  0  1.998833  0  0  0.407361  0  1.952582  0  0  0.414215  0.366618  0  2.030689  0
Ag  Ag2  1  0.02918008  0.89350203  0.29100936  1  0  0.487362  0  1.546866  0  0  0.383174  0  1.998912  0  0  0.407353  0  1.952664  0  0  0.414225  0.366619  0  2.030769  0
Ag  Ag3  1  0.02917229  0.10649662  0.70899094  1  0  0.487365  0  1.546859  0  0  0.383215  0  1.998893  0  0  0.407399  0  1.952644  0  0  0.414229  0.36666  0  2.030752  0
H  H4  1  0.52495725  0.67704154  0.14679408  1  0  0.13806  0  0.969449  0  0  0.150017  0  1.038726  0  0  0.152622  0  1.037281  0  0  0.09254  0.148084  0  1.039802  0
H  H5  1  0.52494607  0.32296037  0.85320839  1  0  0.138135  0  0.969467  0  0  0.150126  0  1.038682  0  0  0.152732  0  1.037233  0  0  0.092593  0.148193  0  1.039761  0
H  H6  1  0.47504638  0.17704123  0.35320611  1  0  0.138141  0  0.969459  0  0  0.150098  0  1.038722  0  0  0.152701  0  1.037279  0  0  0.092584  0.148165  0  1.0398  0
H  H7  1  0.47504512  0.82295865  0.64679144  1  0  0.138138  0  0.969422  0  0  0.150106  0  1.038675  0  0  0.152699  0  1.037239  0  0  0.092596  0.148171  0  1.039754  0
H  H8  1  0.69231175  0.77612376  0.10503854  1  0  0.122686  0  0.96864  0  0  0.139815  0  1.034261  0  0  0.140482  0  1.036017  0  0  0.088858  0.139281  0  1.033112  0
H  H9  1  0.69230816  0.22387780  0.89496146  1  0  0.122698  0  0.968639  0  0  0.13981  0  1.034271  0  0  0.140473  0  1.036031  0  0  0.088828  0.139289  0  1.03311  0
H  H10  1  0.30768496  0.27612338  0.39496031  1  0  0.122686  0  0.968621  0  0  0.139813  0  1.034252  0  0  0.140476  0  1.03601  0  0  0.088825  0.139279  0  1.033102  0
H  H11  1  0.30768811  0.72387613  0.60503779  1  0  0.122708  0  0.968594  0  0  0.139839  0  1.03421  0  0  0.140504  0  1.035965  0  0  0.088849  0.139317  0  1.033048  0
H  H12  1  0.49243187  0.79557147  0.19425115  1  0  0.14374  0  0.958867  0  0  0.159745  0  1.0236  0  0  0.161981  0  1.022122  0  0  0.093701  0.158077  0  1.024706  0
H  H13  1  0.49242553  0.20442908  0.80574952  1  0  0.143772  0  0.958886  0  0  0.159777  0  1.023616  0  0  0.162014  0  1.02214  0  0  0.093709  0.158111  0  1.024723  0
H  H14  1  0.50756642  0.29557146  0.30574844  1  0  0.143785  0  0.958861  0  0  0.159794  0  1.023584  0  0  0.16203  0  1.022108  0  0  0.093706  0.158127  0  1.024689  0
H  H15  1  0.50756916  0.70442692  0.69424899  1  0  0.143764  0  0.958853  0  0  0.159761  0  1.023587  0  0  0.161985  0  1.02214  0  0  0.093697  0.158095  0  1.024691  0
H  H16  1  0.87994299  0.80710338  0.56476879  1  0  0.119381  0  0.966597  0  0  0.13845  0  1.028979  0  0  0.139315  0  1.029586  0  0  0.087215  0.137817  0  1.028615  0
H  H17  1  0.87994541  0.19289851  0.43523186  1  0  0.119392  0  0.966599  0  0  0.138456  0  1.028994  0  0  0.13932  0  1.029604  0  0  0.087232  0.137823  0  1.028631  0
H  H18  1  0.12005581  0.30710296  0.93523094  1  0  0.119392  0  0.96658  0  0  0.138414  0  1.029037  0  0  0.139278  0  1.029643  0  0  0.087198  0.137781  0  1.028674  0
H  H19  1  0.12004692  0.69289978  0.06477032  1  0  0.11942  0  0.966515  0  0  0.13847  0  1.028936  0  0  0.139335  0  1.029543  0  0  0.08723  0.137837  0  1.028574  0
H  H20  1  0.78501648  0.89154752  0.48478111  1  0  0.145246  0  0.94315  0  0  0.160262  0  1.0036  0  0  0.162381  0  1.002766  0  0  0.098304  0.158633  0  1.004349  0
H  H21  1  0.78501598  0.10845385  0.51522050  1  0  0.145238  0  0.943144  0  0  0.160256  0  1.003603  0  0  0.162375  0  1.002769  0  0  0.098298  0.158627  0  1.004352  0
H  H22  1  0.21498046  0.39154673  0.01521903  1  0  0.14522  0  0.943164  0  0  0.160234  0  1.003618  0  0  0.162337  0  1.002802  0  0  0.098299  0.158604  0  1.004367  0
H  H23  1  0.21497820  0.60845297  0.98478382  1  0  0.145211  0  0.943126  0  0  0.160208  0  1.003608  0  0  0.162325  0  1.002777  0  0  0.098284  0.158579  0  1.004357  0
H  H24  1  0.08741901  0.89777859  0.52998138  1  0  0.162791  0  0.926263  0  0  0.185594  0  0.975018  0  0  0.187719  0  0.974354  0  0  0.108396  0.183939  0  0.975714  0
H  H25  1  0.08742357  0.10221994  0.47001808  1  0  0.162794  0  0.926263  0  0  0.185591  0  0.975028  0  0  0.187716  0  0.974362  0  0  0.108392  0.183937  0  0.975724  0
H  H26  1  0.91257482  0.39777821  0.97001950  1  0  0.162771  0  0.926274  0  0  0.185567  0  0.975039  0  0  0.187692  0  0.974372  0  0  0.108366  0.183913  0  0.975735  0
H  H27  1  0.91256818  0.60222432  0.02998295  1  0  0.162765  0  0.926261  0  0  0.185579  0  0.975016  0  0  0.187705  0  0.974348  0  0  0.108374  0.183924  0  0.975713  0
C  C28  1  0.47224289  0.57634968  0.42187633  1  0  -0.040139  0  3.77511  0  0  -0.040365  0  4.072694  0  0  -0.028865  0  4.089427  0  0  0.009328  -0.047589  0  4.06086  0
C  C29  1  0.47224914  0.42365091  0.57812376  1  0  -0.04012  0  3.77499  0  0  -0.04035  0  4.07263  0  0  -0.028852  0  4.089362  0  0  0.009308  -0.047578  0  4.060801  0
C  C30  1  0.52775661  0.07634727  0.07812328  1  0  -0.040172  0  3.77514  0  0  -0.040347  0  4.072687  0  0  -0.028852  0  4.089417  0  0  0.009317  -0.047573  0  4.060863  0
C  C31  1  0.52777204  0.92365250  0.92187536  1  0  -0.040285  0  3.775148  0  0  -0.040522  0  4.072751  0  0  -0.029024  0  4.089486  0  0  0.009244  -0.047752  0  4.060916  0
C  C32  1  0.74544716  0.67919839  0.32253857  1  0  -0.075823  0  3.795792  0  0  -0.064774  0  4.080474  0  0  -0.061879  0  4.100759  0  0  -0.019729  -0.067443  0  4.067974  0
C  C33  1  0.74544096  0.32080378  0.67746190  1  0  -0.075795  0  3.795738  0  0  -0.064733  0  4.080324  0  0  -0.061845  0  4.100621  0  0  -0.019752  -0.067374  0  4.067775  0
C  C34  1  0.25455645  0.17919583  0.17746100  1  0  -0.075748  0  3.795652  0  0  -0.064682  0  4.080213  0  0  -0.061796  0  4.100514  0  0  -0.019725  -0.067325  0  4.067668  0
C  C35  1  0.25455395  0.82079951  0.82254046  1  0  -0.075922  0  3.796033  0  0  -0.064846  0  4.080697  0  0  -0.061948  0  4.100979  0  0  -0.019754  -0.067517  0  4.068203  0
C  C36  1  0.82799941  0.69831528  0.40298736  1  0  -0.107943  0  3.800295  0  0  -0.097411  0  4.09109  0  0  -0.096626  0  4.111432  0  0  -0.03317  -0.097972  0  4.07735  0
C  C37  1  0.82799206  0.30169029  0.59701092  1  0  -0.108119  0  3.800493  0  0  -0.097537  0  4.091226  0  0  -0.09675  0  4.111565  0  0  -0.033268  -0.098105  0  4.077496  0
C  C38  1  0.17200392  0.19830873  0.09700977  1  0  -0.108114  0  3.800475  0  0  -0.097567  0  4.091305  0  0  -0.096779  0  4.111648  0  0  -0.033276  -0.098135  0  4.077576  0
C  C39  1  0.17200127  0.80168605  0.90298560  1  0  -0.107925  0  3.800447  0  0  -0.097408  0  4.091201  0  0  -0.096621  0  4.111539  0  0  -0.033176  -0.097969  0  4.077465  0
C  C40  1  0.29561182  0.51374482  0.45441675  1  0  -0.118212  0  3.920214  0  0  -0.113403  0  4.182381  0  0  -0.121957  0  4.201848  0  0  -0.053091  -0.107775  0  4.169511  0
C  C41  1  0.29562181  0.48625470  0.54557885  1  0  -0.118146  0  3.919953  0  0  -0.113381  0  4.18212  0  0  -0.121928  0  4.201582  0  0  -0.053087  -0.107741  0  4.169239  0
C  C42  1  0.70438671  0.01374252  0.04558059  1  0  -0.118203  0  3.920126  0  0  -0.113428  0  4.182245  0  0  -0.121967  0  4.201693  0  0  -0.053081  -0.107803  0  4.169378  0
C  C43  1  0.70439665  0.98625259  0.95441873  1  0  -0.118059  0  3.920152  0  0  -0.113278  0  4.182366  0  0  -0.121832  0  4.201828  0  0  -0.053057  -0.107629  0  4.169476  0
C  C44  1  0.12379090  0.47672634  0.39647195  1  0  0.282284  0  3.821554  0  0  0.260678  0  4.107918  0  0  0.276565  0  4.123884  0  0  0.163356  0.24972  0  4.097576  0
C  C45  1  0.12378211  0.52327926  0.60352549  1  0  0.282335  0  3.821416  0  0  0.260755  0  4.107796  0  0  0.276639  0  4.123757  0  0  0.163406  0.249794  0  4.097454  0
C  C46  1  0.87621594  0.97672133  0.10352613  1  0  0.282364  0  3.82108  0  0  0.260783  0  4.107467  0  0  0.276664  0  4.123429  0  0  0.163391  0.249825  0  4.097134  0
C  C47  1  0.87621326  0.02327200  0.89646754  1  0  0.282361  0  3.821379  0  0  0.260773  0  4.107741  0  0  0.276658  0  4.123701  0  0  0.163421  0.24981  0  4.097402  0
C  C48  1  0.61622509  0.74451703  0.16320728  1  0  -0.341292  0  3.591662  0  0  -0.410332  0  3.834894  0  0  -0.412302  0  3.842528  0  0  -0.235507  -0.408713  0  3.829664  0
C  C49  1  0.61621347  0.25548469  0.83679488  1  0  -0.341408  0  3.591672  0  0  -0.410481  0  3.834946  0  0  -0.412449  0  3.842577  0  0  -0.235538  -0.408876  0  3.829711  0
C  C50  1  0.38377575  0.24451607  0.33679202  1  0  -0.341473  0  3.59181  0  0  -0.410504  0  3.835  0  0  -0.41247  0  3.842635  0  0  -0.235543  -0.408886  0  3.829772  0
C  C51  1  0.38378420  0.75548257  0.66320392  1  0  -0.341404  0  3.591472  0  0  -0.41046  0  3.834764  0  0  -0.412418  0  3.842401  0  0  -0.235551  -0.408856  0  3.829522  0
C  C52  1  0.93853115  0.84964222  0.50999410  1  0  -0.322437  0  3.579645  0  0  -0.393473  0  3.830441  0  0  -0.393752  0  3.835407  0  0  -0.230201  -0.393205  0  3.827258  0
C  C53  1  0.93853446  0.15035669  0.49000572  1  0  -0.322446  0  3.57962  0  0  -0.393501  0  3.830461  0  0  -0.393779  0  3.835424  0  0  -0.23023  -0.393233  0  3.827276  0
C  C54  1  0.06146521  0.34964161  0.99000588  1  0  -0.322364  0  3.579621  0  0  -0.39337  0  3.830453  0  0  -0.393635  0  3.835428  0  0  -0.230141  -0.393101  0  3.827268  0
C  C55  1  0.06145846  0.65035912  0.00999558  1  0  -0.322425  0  3.579495  0  0  -0.393462  0  3.8303  0  0  -0.393738  0  3.835266  0  0  -0.23019  -0.393194  0  3.827117  0
S  S56  1  0.49973931  0.59917565  0.31439064  1  0  0.204836  0  2.611837  0  0  0.19944  0  2.963841  0  0  0.196809  0  2.968326  0  0  0.123814  0.200751  0  2.961174  0
S  S57  1  0.49973915  0.40082774  0.68561191  1  0  0.204823  0  2.611781  0  0  0.19939  0  2.963854  0  0  0.196761  0  2.968343  0  0  0.12382  0.200694  0  2.961188  0
S  S58  1  0.50025987  0.09916907  0.18561037  1  0  0.204829  0  2.611798  0  0  0.199381  0  2.963841  0  0  0.196753  0  2.968332  0  0  0.123811  0.200686  0  2.961176  0
S  S59  1  0.50027311  0.90082361  0.81439027  1  0  0.204871  0  2.611796  0  0  0.19946  0  2.963799  0  0  0.196831  0  2.96828  0  0  0.123803  0.200774  0  2.961139  0
S  S60  1  0.68529141  0.63400454  0.48494833  1  0  0.163664  0  2.639513  0  0  0.165326  0  2.98034  0  0  0.161023  0  2.987756  0  0  0.109569  0.167955  0  2.975363  0
S  S61  1  0.68529286  0.36599489  0.51505170  1  0  0.163741  0  2.639835  0  0  0.165385  0  2.980672  0  0  0.161083  0  2.988089  0  0  0.109625  0.168013  0  2.975698  0
S  S62  1  0.31471097  0.13400211  0.01505034  1  0  0.163807  0  2.639752  0  0  0.165461  0  2.980525  0  0  0.161158  0  2.987943  0  0  0.109669  0.168088  0  2.975557  0
S  S63  1  0.31471435  0.86599524  0.98494774  1  0  0.163644  0  2.639373  0  0  0.165319  0  2.980205  0  0  0.161012  0  2.987623  0  0  0.109554  0.16795  0  2.975233  0
S  S64  1  0.88178586  0.72149717  0.23016678  1  0  0.11686  0  2.675402  0  0  0.131906  0  3.064989  0  0  0.126393  0  3.062131  0  0  0.035338  0.135934  0  3.067026  0
S  S65  1  0.88178504  0.27850543  0.76983259  1  0  0.116861  0  2.675268  0  0  0.131892  0  3.064875  0  0  0.126382  0  3.062017  0  0  0.035351  0.135911  0  3.066917  0
S  S66  1  0.11821346  0.22149627  0.26983239  1  0  0.11688  0  2.675425  0  0  0.131902  0  3.065036  0  0  0.126394  0  3.062178  0  0  0.035343  0.135923  0  3.067071  0
S  S67  1  0.11821416  0.77850434  0.73016825  1  0  0.116882  0  2.675256  0  0  0.13191  0  3.064849  0  0  0.126399  0  3.061982  0  0  0.035344  0.135938  0  3.066892  0
S  S68  1  0.07159060  0.77501844  0.42755391  1  0  0.086857  0  2.670954  0  0  0.09803  0  3.06424  0  0  0.092878  0  3.061853  0  0  0.015734  0.101635  0  3.066028  0
S  S69  1  0.07158686  0.22498155  0.57244561  1  0  0.086904  0  2.670868  0  0  0.098064  0  3.064133  0  0  0.092914  0  3.061742  0  0  0.015767  0.101668  0  3.065926  0
S  S70  1  0.92841536  0.27501658  0.07244493  1  0  0.086878  0  2.670897  0  0  0.098037  0  3.064147  0  0  0.092886  0  3.061751  0  0  0.015745  0.101641  0  3.06594  0
S  S71  1  0.92840939  0.72498235  0.92755429  1  0  0.086891  0  2.670885  0  0  0.098069  0  3.064179  0  0  0.092918  0  3.061788  0  0  0.015763  0.101676  0  3.065967  0
N  N72  1  0.98459531  0.44972377  0.34427745  1  0  -0.43501  0  2.871872  0  0  -0.403416  0  3.178783  0  0  -0.415969  0  3.181285  0  0  -0.35872  -0.395306  0  3.17761  0
N  N73  1  0.98459945  0.55028004  0.65572159  1  0  -0.43504  0  2.872007  0  0  -0.40344  0  3.178892  0  0  -0.415992  0  3.181391  0  0  -0.358727  -0.395333  0  3.177725  0
N  N74  1  0.01540821  0.94971878  0.15572366  1  0  -0.435085  0  2.871556  0  0  -0.403501  0  3.178478  0  0  -0.416053  0  3.180982  0  0  -0.358741  -0.395393  0  3.177313  0
N  N75  1  0.01540847  0.05027847  0.84427541  1  0  -0.43512  0  2.87186  0  0  -0.40354  0  3.178772  0  0  -0.41609  0  3.181269  0  0  -0.358772  -0.395431  0  3.177609  0
N  N76  1  0.47594289  0.47089535  0.15003819  1  0  0.665991  0  4.180202  0  0  0.695408  0  4.470803  0  0  0.723708  0  4.478663  0  0  0.079292  0.676227  0  4.465039  0
N  N77  1  0.47594554  0.52910594  0.84996253  1  0  0.666003  0  4.180224  0  0  0.69532  0  4.470959  0  0  0.723636  0  4.478799  0  0  0.079251  0.676139  0  4.465195  0
N  N78  1  0.52404925  0.97089429  0.34996240  1  0  0.665943  0  4.18014  0  0  0.695307  0  4.470823  0  0  0.723597  0  4.4787  0  0  0.079261  0.676141  0  4.465046  0
N  N79  1  0.52405344  0.02910477  0.65003880  1  0  0.666012  0  4.180187  0  0  0.695429  0  4.470797  0  0  0.723723  0  4.478664  0  0  0.079228  0.676248  0  4.465037  0
O  O80  1  0.48843278  0.39066194  0.18783702  1  0  -0.492248  0  1.866259  0  0  -0.476917  0  2.122526  0  0  -0.496049  0  2.116448  0  0  -0.206047  -0.463219  0  2.12623  0
O  O81  1  0.48842984  0.60933791  0.81216366  1  0  -0.492203  0  1.866315  0  0  -0.476875  0  2.122628  0  0  -0.496007  0  2.116541  0  0  -0.20604  -0.463175  0  2.126328  0
O  O82  1  0.51156787  0.89066205  0.31216248  1  0  -0.4922  0  1.866218  0  0  -0.476903  0  2.122557  0  0  -0.496021  0  2.116459  0  0  -0.206052  -0.463206  0  2.126256  0
O  O83  1  0.51156618  0.10933846  0.68783748  1  0  -0.492309  0  1.866242  0  0  -0.476968  0  2.122494  0  0  -0.496103  0  2.116429  0  0  -0.206062  -0.463272  0  2.126201  0
O  O84  1  0.26661245  0.50837653  0.13580171  1  0  -0.450504  0  1.817196  0  0  -0.428306  0  2.05578  0  0  -0.446126  0  2.049253  0  0  -0.188857  -0.415548  0  2.059831  0
O  O85  1  0.26660969  0.49162449  0.86419907  1  0  -0.450663  0  1.817161  0  0  -0.42832  0  2.055664  0  0  -0.446145  0  2.049134  0  0  -0.188865  -0.415562  0  2.059718  0
O  O86  1  0.73338615  0.00837575  0.36419878  1  0  -0.45062  0  1.81706  0  0  -0.428324  0  2.055586  0  0  -0.446141  0  2.049067  0  0  -0.188882  -0.415572  0  2.059642  0
O  O87  1  0.73338838  0.99162430  0.63580108  1  0  -0.450538  0  1.817171  0  0  -0.428331  0  2.055746  0  0  -0.446153  0  2.049231  0  0  -0.188851  -0.415574  0  2.059805  0
O  O88  1  0.67259319  0.51345487  0.12832984  1  0  -0.456129  0  1.792768  0  0  -0.439414  0  2.019851  0  0  -0.455677  0  2.012993  0  0  -0.19432  -0.42787  0  2.024344  0
O  O89  1  0.67259398  0.48654602  0.87167150  1  0  -0.456089  0  1.792844  0  0  -0.439343  0  2.019955  0  0  -0.455614  0  2.0131  0  0  -0.194272  -0.4278  0  2.02445  0
O  O90  1  0.32740534  0.01345428  0.37167196  1  0  -0.456064  0  1.792937  0  0  -0.439318  0  2.020019  0  0  -0.455579  0  2.013171  0  0  -0.194266  -0.42778  0  2.024511  0
O  O91  1  0.32740601  0.98654447  0.62833180  1  0  -0.456078  0  1.792806  0  0  -0.439381  0  2.019903  0  0  -0.455638  0  2.013045  0  0  -0.194255  -0.427836  0  2.024397  0
