# generated using pymatgen
data_KH25C13(NO4)2
_symmetry_space_group_name_H-M   'P 1'
_cell_length_a   7.90392260
_cell_length_b   8.12447941
_cell_length_c   13.99693240
_cell_angle_alpha   90.00004243
_cell_angle_beta   89.99984971
_cell_angle_gamma   98.46902155
_symmetry_Int_Tables_number   1
_chemical_formula_structural   KH25C13(NO4)2
_chemical_formula_sum   'K2 H50 C26 N4 O16'
_cell_volume   889.01558035
_cell_formula_units_Z   2
loop_
 _symmetry_equiv_pos_site_id
 _symmetry_equiv_pos_as_xyz
  1  'x, y, z'
loop_
 _atom_site_type_symbol
 _atom_site_label
 _atom_site_symmetry_multiplicity
 _atom_site_fract_x
 _atom_site_fract_y
 _atom_site_fract_z
 _atom_site_occupancy
 _atom_site_hle17_bader_spin_density
 _atom_site_hle17_ddec_charge
 _atom_site_hle17_ddec_spin_density
 _atom_site_hle17_ddec_sum_bond_order
 _atom_site_hle17_magmom
 _atom_site_hse06_10hf_bader_spin_density
 _atom_site_hse06_10hf_ddec_charge
 _atom_site_hse06_10hf_ddec_spin_density
 _atom_site_hse06_10hf_ddec_sum_bond_order
 _atom_site_hse06_10hf_magmom
 _atom_site_hse06_bader_spin_density
 _atom_site_hse06_ddec_charge
 _atom_site_hse06_ddec_spin_density
 _atom_site_hse06_ddec_sum_bond_order
 _atom_site_hse06_magmom
 _atom_site_pbe_bader_spin_density
 _atom_site_pbe_cm5_charge
 _atom_site_pbe_ddec_charge
 _atom_site_pbe_ddec_spin_density
 _atom_site_pbe_ddec_sum_bond_order
 _atom_site_pbe_magmom
K  K0  1  0.23830457  0.82083155  0.24786502  1  0  0.869594  0  0.576279  0  0  0.776653  0  0.811028  0  0  0.798038  0  0.783345  0  0  0.866424  0.760856  0  0.830753  0
K  K1  1  0.73828436  0.82082206  0.75213515  1  0  0.869554  0  0.57635  0  0  0.776616  0  0.811083  0  0  0.797998  0  0.783403  0  0  0.866405  0.760859  0  0.830728  0
H  H2  1  0.17004872  0.82326668  0.53031982  1  0  0.063253  0  0.934113  0  0  0.075795  0  0.999363  0  0  0.076465  0  0.999565  0  0  0.103554  0.075141  0  0.999493  0
H  H3  1  0.67004910  0.82326677  0.46967831  1  0  0.063264  0  0.934103  0  0  0.075816  0  0.999338  0  0  0.07648  0  0.999536  0  0  0.103552  0.075161  0  0.999474  0
H  H4  1  0.37871002  0.78850803  0.56795362  1  0  0.056928  0  0.946096  0  0  0.064539  0  1.022976  0  0  0.065455  0  1.022116  0  0  0.102813  0.063782  0  1.023766  0
H  H5  1  0.87871163  0.78850684  0.43204490  1  0  0.05696  0  0.946088  0  0  0.064569  0  1.022967  0  0  0.06548  0  1.0221  0  0  0.102828  0.063814  0  1.023756  0
H  H6  1  0.37737275  0.57191677  0.43935611  1  0  0.057565  0  0.919707  0  0  0.071238  0  0.985559  0  0  0.072064  0  0.984937  0  0  0.103384  0.07054  0  0.986136  0
H  H7  1  0.87737272  0.57191691  0.56064375  1  0  0.057576  0  0.919708  0  0  0.071253  0  0.985555  0  0  0.072077  0  0.984936  0  0  0.103383  0.070554  0  0.986133  0
H  H8  1  0.22109439  0.52256811  0.53171788  1  0  0.040491  0  0.93229  0  0  0.055062  0  1.002568  0  0  0.055595  0  1.000948  0  0  0.094968  0.054483  0  1.004007  0
H  H9  1  0.72109311  0.52256572  0.46828076  1  0  0.04053  0  0.932255  0  0  0.055094  0  1.002543  0  0  0.055626  0  1.000924  0  0  0.094989  0.054516  0  1.003982  0
H  H10  1  0.03769638  0.33684315  0.42260979  1  0  0.038629  0  0.944303  0  0  0.054752  0  1.011039  0  0  0.054384  0  1.011212  0  0  0.09514  0.054881  0  1.011059  0
H  H11  1  0.53769501  0.33684332  0.57739047  1  0  0.038609  0  0.944327  0  0  0.054728  0  1.01107  0  0  0.054359  0  1.011244  0  0  0.095128  0.054859  0  1.011089  0
H  H12  1  0.20979030  0.37894612  0.33951432  1  0  0.070432  0  0.931094  0  0  0.081615  0  0.996825  0  0  0.083246  0  0.995231  0  0  0.107926  0.080275  0  0.998192  0
H  H13  1  0.70978789  0.37895009  0.66048713  1  0  0.070442  0  0.931052  0  0  0.081632  0  0.996776  0  0  0.083261  0  0.995182  0  0  0.107944  0.080292  0  0.998143  0
H  H14  1  0.92812404  0.27940491  0.26484526  1  0  0.069713  0  0.971197  0  0  0.076257  0  1.047413  0  0  0.077259  0  1.046503  0  0  0.103297  0.075386  0  1.048201  0
H  H15  1  0.42812354  0.27940993  0.73515654  1  0  0.069759  0  0.971199  0  0  0.076275  0  1.047434  0  0  0.077277  0  1.046524  0  0  0.103316  0.075407  0  1.048214  0
H  H16  1  0.84643448  0.46132017  0.30716963  1  0  0.043966  0  0.936781  0  0  0.055055  0  1.011003  0  0  0.056789  0  1.007974  0  0  0.093342  0.05356  0  1.013559  0
H  H17  1  0.34642916  0.46131774  0.69282879  1  0  0.043989  0  0.936827  0  0  0.055112  0  1.011  0  0  0.056844  0  1.007977  0  0  0.093352  0.053617  0  1.013557  0
H  H18  1  0.81398291  0.53343160  0.13525343  1  0  0.052985  0  0.932178  0  0  0.064575  0  1.002733  0  0  0.065482  0  1.002109  0  0  0.098627  0.063794  0  1.003377  0
H  H19  1  0.31397848  0.53343175  0.86474936  1  0  0.053027  0  0.932273  0  0  0.064619  0  1.002788  0  0  0.065525  0  1.002166  0  0  0.098654  0.063834  0  1.003429  0
H  H20  1  0.90946505  0.35641064  0.09991201  1  0  0.044535  0  0.931083  0  0  0.057914  0  1.001639  0  0  0.058404  0  1.000558  0  0  0.095789  0.057376  0  1.002671  0
H  H21  1  0.40946466  0.35641326  0.90008557  1  0  0.044583  0  0.931066  0  0  0.057949  0  1.001613  0  0  0.058437  0  1.000534  0  0  0.095798  0.057408  0  1.00264  0
H  H22  1  0.15808277  0.54311646  0.03043667  1  0  0.046491  0  0.926774  0  0  0.062353  0  0.99295  0  0  0.062974  0  0.992019  0  0  0.099836  0.061783  0  0.993783  0
H  H23  1  0.65808173  0.54311436  0.96956207  1  0  0.046484  0  0.926711  0  0  0.062356  0  0.992878  0  0  0.062979  0  0.991947  0  0  0.099831  0.061786  0  0.993712  0
H  H24  1  0.96035835  0.57120756  0.97541242  1  0  0.049186  0  0.935536  0  0  0.063026  0  1.003998  0  0  0.063536  0  1.003281  0  0  0.100906  0.062558  0  1.004641  0
H  H25  1  0.46035688  0.57120968  0.02458874  1  0  0.049173  0  0.935563  0  0  0.062996  0  1.004046  0  0  0.063508  0  1.003328  0  0  0.100893  0.062528  0  1.004687  0
H  H26  1  0.05639496  0.85886848  0.93201722  1  0  0.059151  0  0.95951  0  0  0.064701  0  1.038387  0  0  0.065421  0  1.037765  0  0  0.103636  0.064048  0  1.038957  0
H  H27  1  0.55639530  0.85886459  0.06798252  1  0  0.059174  0  0.959489  0  0  0.06473  0  1.038355  0  0  0.065452  0  1.037732  0  0  0.103656  0.06408  0  1.038924  0
H  H28  1  0.26220445  0.82138395  0.97180292  1  0  0.060624  0  0.935922  0  0  0.073325  0  1.002509  0  0  0.073935  0  1.002927  0  0  0.102542  0.07273  0  1.002442  0
H  H29  1  0.76220138  0.82138133  0.02819793  1  0  0.060569  0  0.935896  0  0  0.073271  0  1.002496  0  0  0.073881  0  1.002914  0  0  0.102513  0.072678  0  1.002428  0
H  H30  1  0.21612645  0.12206555  0.96767547  1  0  0.043106  0  0.930068  0  0  0.058133  0  0.998819  0  0  0.058346  0  0.99763  0  0  0.096639  0.057816  0  0.999865  0
H  H31  1  0.71612862  0.12206411  0.03232301  1  0  0.043167  0  0.930101  0  0  0.058171  0  0.998834  0  0  0.058386  0  0.997652  0  0  0.096645  0.057851  0  0.99988  0
H  H32  1  0.05828159  0.07800075  0.05987666  1  0  0.05817  0  0.919013  0  0  0.070882  0  0.985654  0  0  0.071581  0  0.984992  0  0  0.102917  0.070184  0  0.98638  0
H  H33  1  0.55828281  0.07799611  0.94012417  1  0  0.058237  0  0.919053  0  0  0.070927  0  0.985673  0  0  0.071632  0  0.985015  0  0  0.102944  0.070226  0  0.9864  0
H  H34  1  0.23357606  0.27208760  0.15803023  1  0  0.067346  0  0.927692  0  0  0.078462  0  0.995559  0  0  0.080019  0  0.993873  0  0  0.106644  0.077236  0  0.996913  0
H  H35  1  0.73357186  0.27207799  0.84197043  1  0  0.067297  0  0.927719  0  0  0.078425  0  0.995577  0  0  0.079981  0  0.993887  0  0  0.10663  0.077198  0  0.996937  0
H  H36  1  0.40902305  0.30445377  0.07607857  1  0  0.032638  0  0.945666  0  0  0.048732  0  1.013816  0  0  0.048413  0  1.013905  0  0  0.092197  0.048781  0  1.013979  0
H  H37  1  0.90901847  0.30444420  0.92392184  1  0  0.032679  0  0.945628  0  0  0.048781  0  1.013771  0  0  0.048458  0  1.013862  0  0  0.09224  0.048838  0  1.013928  0
H  H38  1  0.58217265  0.16052405  0.19719424  1  0  0.047902  0  0.964607  0  0  0.04675  0  1.058073  0  0  0.048265  0  1.055726  0  0  0.095059  0.04543  0  1.059979  0
H  H39  1  0.08216769  0.16051919  0.80280517  1  0  0.047891  0  0.964671  0  0  0.046754  0  1.058121  0  0  0.04827  0  1.055775  0  0  0.095048  0.045433  0  1.060026  0
H  H40  1  0.52680095  0.35982990  0.23119677  1  0  0.064347  0  0.962378  0  0  0.075286  0  1.032521  0  0  0.077045  0  1.030399  0  0  0.096325  0.073896  0  1.034185  0
H  H41  1  0.02679948  0.35982996  0.76880494  1  0  0.06436  0  0.962382  0  0  0.075321  0  1.032504  0  0  0.077072  0  1.030391  0  0  0.09632  0.07393  0  1.034168  0
H  H42  1  0.53290697  0.28819195  0.40355452  1  0  0.036394  0  0.935315  0  0  0.04961  0  1.007474  0  0  0.050603  0  1.005613  0  0  0.090914  0.048745  0  1.00902  0
H  H43  1  0.03290568  0.28818818  0.59644430  1  0  0.036402  0  0.935325  0  0  0.04962  0  1.007479  0  0  0.050611  0  1.005621  0  0  0.090929  0.048753  0  1.009027  0
H  H44  1  0.61227020  0.10504823  0.36192816  1  0  0.05481  0  0.949559  0  0  0.061223  0  1.028546  0  0  0.061618  0  1.028312  0  0  0.100514  0.060741  0  1.028911  0
H  H45  1  0.11227039  0.10504696  0.63807118  1  0  0.054836  0  0.949539  0  0  0.061226  0  1.028553  0  0  0.061622  0  1.02832  0  0  0.100526  0.060749  0  1.028904  0
H  H46  1  0.47288672  0.07420418  0.52571986  1  0  0.050627  0  0.940624  0  0  0.063883  0  1.009743  0  0  0.064288  0  1.009302  0  0  0.099909  0.063478  0  1.010221  0
H  H47  1  0.97288920  0.07420175  0.47427965  1  0  0.050618  0  0.940628  0  0  0.063875  0  1.00975  0  0  0.064279  0  1.009309  0  0  0.099906  0.06347  0  1.010228  0
H  H48  1  0.27495421  0.10523936  0.47175747  1  0  0.048603  0  0.924972  0  0  0.066236  0  0.987886  0  0  0.066737  0  0.987284  0  0  0.099757  0.065739  0  0.98849  0
H  H49  1  0.77495391  0.10523700  0.52824234  1  0  0.048628  0  0.924944  0  0  0.066267  0  0.987859  0  0  0.066768  0  0.987258  0  0  0.099788  0.06577  0  0.988463  0
H  H50  1  0.82916414  0.72021007  0.26889560  1  0  0.067364  0  0.957703  0  0  0.07454  0  1.033624  0  0  0.080477  0  1.02994  0  0  0.120211  0.070177  0  1.036808  0
H  H51  1  0.32914517  0.72021031  0.73110296  1  0  0.067525  0  0.957527  0  0  0.074662  0  1.033482  0  0  0.080636  0  1.029763  0  0  0.12029  0.070298  0  1.036666  0
C  C52  1  0.29073914  0.78282364  0.50641520  1  0  0.050024  0  3.655289  0  0  -0.006621  0  3.926138  0  0  -0.000988  0  3.932427  0  0  -0.075044  -0.010402  0  3.921884  0
C  C53  1  0.79073962  0.78282499  0.49358345  1  0  0.049965  0  3.655361  0  0  -0.006671  0  3.926186  0  0  -0.00101  0  3.932438  0  0  -0.075078  -0.010457  0  3.921938  0
C  C54  1  0.25868724  0.60612061  0.47042516  1  0  0.066292  0  3.675879  0  0  0.005186  0  3.951474  0  0  0.011773  0  3.957195  0  0  -0.073574  0.000788  0  3.947518  0
C  C55  1  0.75868735  0.60612074  0.52957275  1  0  0.066247  0  3.67586  0  0  0.005116  0  3.951484  0  0  0.011695  0  3.9572  0  0  -0.07359  0.000719  0  3.947534  0
C  C56  1  0.09130090  0.42171742  0.36482925  1  0  0.059551  0  3.668092  0  0  0.002845  0  3.937796  0  0  0.009184  0  3.943576  0  0  -0.07499  -0.001355  0  3.933768  0
C  C57  1  0.59129821  0.42171888  0.63517097  1  0  0.059629  0  3.668137  0  0  0.002918  0  3.937832  0  0  0.00926  0  3.943613  0  0  -0.074967  -0.001284  0  3.933806  0
C  C58  1  0.96318600  0.41141053  0.28461531  1  0  0.045092  0  3.657402  0  0  -0.014161  0  3.928355  0  0  -0.008376  0  3.934043  0  0  -0.079117  -0.017929  0  3.924353  0
C  C59  1  0.46318266  0.41141308  0.71538435  1  0  0.044928  0  3.657593  0  0  -0.014331  0  3.928571  0  0  -0.008543  0  3.934249  0  0  -0.07919  -0.018102  0  3.924575  0
C  C60  1  0.93739766  0.48873697  0.12170536  1  0  0.052081  0  3.69614  0  0  -0.007447  0  3.972517  0  0  -0.001503  0  3.978759  0  0  -0.074048  -0.011472  0  3.968344  0
C  C61  1  0.43739231  0.48873963  0.87829723  1  0  0.051907  0  3.696185  0  0  -0.007584  0  3.9725  0  0  -0.001641  0  3.978745  0  0  -0.074098  -0.011588  0  3.968303  0
C  C62  1  0.03432959  0.58842714  0.04271517  1  0  0.056997  0  3.690572  0  0  -0.004937  0  3.968491  0  0  0.0015  0  3.974036  0  0  -0.07409  -0.00924  0  3.964698  0
C  C63  1  0.53432755  0.58842629  0.95728591  1  0  0.056998  0  3.690547  0  0  -0.004918  0  3.96845  0  0  0.00151  0  3.974001  0  0  -0.074122  -0.009228  0  3.964654  0
C  C64  1  0.14178462  0.86376246  0.99453300  1  0  0.045616  0  3.655019  0  0  -0.0141  0  3.928306  0  0  -0.008793  0  3.934966  0  0  -0.077655  -0.017567  0  3.923709  0
C  C65  1  0.64178499  0.86376477  0.00546805  1  0  0.045694  0  3.655043  0  0  -0.014047  0  3.92831  0  0  -0.008733  0  3.934972  0  0  -0.077667  -0.017524  0  3.923727  0
C  C66  1  0.17626218  0.04079806  0.02961137  1  0  0.066018  0  3.675652  0  0  0.007604  0  3.947959  0  0  0.014575  0  3.953641  0  0  -0.072966  0.002948  0  3.944056  0
C  C67  1  0.67626220  0.04079471  0.97038856  1  0  0.065734  0  3.676008  0  0  0.007445  0  3.948195  0  0  0.014387  0  3.953905  0  0  -0.073005  0.002799  0  3.944284  0
C  C68  1  0.35000417  0.22343588  0.13431065  1  0  0.068408  0  3.662151  0  0  0.011577  0  3.930803  0  0  0.017917  0  3.936972  0  0  -0.073039  0.007321  0  3.92659  0
C  C69  1  0.85000132  0.22342751  0.86568839  1  0  0.068519  0  3.66206  0  0  0.011704  0  3.930715  0  0  0.018049  0  3.936879  0  0  -0.072984  0.007436  0  3.926512  0
C  C70  1  0.47548615  0.22859724  0.21571768  1  0  0.036919  0  3.659352  0  0  -0.020064  0  3.9244  0  0  -0.014763  0  3.930858  0  0  -0.083786  -0.023461  0  3.919944  0
C  C71  1  0.97548657  0.22859876  0.78428475  1  0  0.036808  0  3.65942  0  0  -0.020207  0  3.924492  0  0  -0.014909  0  3.930954  0  0  -0.083827  -0.023601  0  3.920039  0
C  C72  1  0.49506824  0.15783171  0.37954069  1  0  0.05088  0  3.696792  0  0  -0.011071  0  3.976601  0  0  -0.004891  0  3.982755  0  0  -0.078624  -0.015163  0  3.972361  0
C  C73  1  0.99506899  0.15783063  0.62045953  1  0  0.050851  0  3.696759  0  0  -0.011079  0  3.976572  0  0  -0.004903  0  3.982723  0  0  -0.078649  -0.015169  0  3.972336  0
C  C74  1  0.39790165  0.05903168  0.45872952  1  0  0.057434  0  3.681257  0  0  -0.003396  0  3.957044  0  0  0.002943  0  3.962774  0  0  -0.073665  -0.00762  0  3.953024  0
C  C75  1  0.89790424  0.05903178  0.54126938  1  0  0.057438  0  3.681308  0  0  -0.003417  0  3.957129  0  0  0.002925  0  3.962857  0  0  -0.073686  -0.007641  0  3.953111  0
C  C76  1  0.75192065  0.81886499  0.25275429  1  0  0.043082  0  3.772496  0  0  -0.009254  0  4.079909  0  0  -0.024095  0  4.102297  0  0  0.101782  3.7e-05  0  4.065119  0
C  C77  1  0.25189247  0.81887906  0.74724658  1  0  0.042954  0  3.772579  0  0  -0.009333  0  4.079987  0  0  -0.024209  0  4.102381  0  0  0.101805  -4.6e-05  0  4.065204  0
N  N78  1  0.58268070  0.78647926  0.23737818  1  0  -0.058753  0  3.1739  0  0  -0.032368  0  3.481453  0  0  -0.018428  0  3.488484  0  0  -0.263856  -0.040691  0  3.475995  0
N  N79  1  0.08266537  0.78647948  0.76261935  1  0  -0.058687  0  3.173527  0  0  -0.032272  0  3.481035  0  0  -0.018331  0  3.488075  0  0  -0.263858  -0.040603  0  3.475589  0
N  N80  1  0.81993375  0.98093048  0.25023229  1  0  -0.031461  0  3.105641  0  0  -0.004612  0  3.406624  0  0  0.010198  0  3.412043  0  0  -0.174268  -0.01356  0  3.402318  0
N  N81  1  0.31990882  0.98092582  0.74977140  1  0  -0.031467  0  3.105414  0  0  -0.004673  0  3.40648  0  0  0.010138  0  3.411899  0  0  -0.174302  -0.013619  0  3.402168  0
O  O82  1  0.36770132  0.88809738  0.43162664  1  0  -0.326929  0  2.290432  0  0  -0.254791  0  2.545187  0  0  -0.271268  0  2.547395  0  0  -0.282597  -0.243124  0  2.543336  0
O  O83  1  0.86770019  0.88809879  0.56837194  1  0  -0.326942  0  2.290514  0  0  -0.254792  0  2.54526  0  0  -0.271279  0  2.547462  0  0  -0.282594  -0.243128  0  2.543411  0
O  O84  1  0.12630352  0.58874564  0.40008984  1  0  -0.336372  0  2.266657  0  0  -0.26302  0  2.518189  0  0  -0.279323  0  2.520363  0  0  -0.271048  -0.251463  0  2.516308  0
O  O85  1  0.62630331  0.58874581  0.59990968  1  0  -0.336384  0  2.266662  0  0  -0.263003  0  2.518175  0  0  -0.279305  0  2.520351  0  0  -0.271044  -0.25145  0  2.516295  0
O  O86  1  0.04108949  0.50530712  0.20523076  1  0  -0.329206  0  2.289773  0  0  -0.256883  0  2.544555  0  0  -0.272397  0  2.545455  0  0  -0.273621  -0.245823  0  2.543581  0
O  O87  1  0.54107971  0.50531624  0.79476814  1  0  -0.32911  0  2.28968  0  0  -0.256782  0  2.544428  0  0  -0.272296  0  2.545333  0  0  -0.273605  -0.245732  0  2.54345  0
O  O88  1  0.06251794  0.75933170  0.06951606  1  0  -0.325344  0  2.274898  0  0  -0.251586  0  2.526606  0  0  -0.267586  0  2.529  0  0  -0.272495  -0.240233  0  2.524597  0
O  O89  1  0.56251475  0.75933085  0.93048577  1  0  -0.325305  0  2.274892  0  0  -0.251588  0  2.526623  0  0  -0.26758  0  2.529015  0  0  -0.272461  -0.24024  0  2.524618  0
O  O90  1  0.30781178  0.05636628  0.10020817  1  0  -0.336428  0  2.283429  0  0  -0.263306  0  2.536158  0  0  -0.280236  0  2.539418  0  0  -0.280698  -0.251259  0  2.53349  0
O  O91  1  0.80780858  0.05635669  0.89979014  1  0  -0.336378  0  2.283377  0  0  -0.263337  0  2.536104  0  0  -0.280258  0  2.539374  0  0  -0.280752  -0.251296  0  2.533439  0
O  O92  1  0.38713956  0.15291083  0.29787716  1  0  -0.319079  0  2.272929  0  0  -0.244975  0  2.522097  0  0  -0.260951  0  2.524341  0  0  -0.270457  -0.233563  0  2.520065  0
O  O93  1  0.88713636  0.15291110  0.70212394  1  0  -0.319036  0  2.272829  0  0  -0.244926  0  2.521976  0  0  -0.260903  0  2.524235  0  0  -0.270414  -0.233519  0  2.519944  0
O  O94  1  0.51571498  0.63295639  0.24255719  1  0  -0.42094  0  1.834014  0  0  -0.383889  0  2.072994  0  0  -0.402222  0  2.070745  0  0  -0.237774  -0.371229  0  2.074027  0
O  O95  1  0.01569784  0.63294541  0.75743966  1  0  -0.420907  0  1.833564  0  0  -0.383938  0  2.072605  0  0  -0.40225  0  2.070312  0  0  -0.237783  -0.371282  0  2.073651  0
O  O96  1  0.97950415  0.01195657  0.27016062  1  0  -0.408733  0  1.856019  0  0  -0.371333  0  2.103832  0  0  -0.38871  0  2.100573  0  0  -0.237634  -0.359356  0  2.105687  0
O  O97  1  0.47949947  0.01195914  0.72984600  1  0  -0.40879  0  1.85563  0  0  -0.37133  0  2.103411  0  0  -0.38871  0  2.100146  0  0  -0.237642  -0.359356  0  2.105259  0
