# generated using pymatgen
data_Zn4H5C24S4NO15F2
_symmetry_space_group_name_H-M   'P 1'
_cell_length_a   19.62589190
_cell_length_b   19.68700978
_cell_length_c   33.33807195
_cell_angle_alpha   79.17442331
_cell_angle_beta   79.35905284
_cell_angle_gamma   64.05188650
_symmetry_Int_Tables_number   1
_chemical_formula_structural   Zn4H5C24S4NO15F2
_chemical_formula_sum   'Zn16 H20 C96 S16 N4 O60 F8'
_cell_volume   11299.51651202
_cell_formula_units_Z   4
loop_
 _symmetry_equiv_pos_site_id
 _symmetry_equiv_pos_as_xyz
  1  'x, y, z'
loop_
 _atom_site_type_symbol
 _atom_site_label
 _atom_site_symmetry_multiplicity
 _atom_site_fract_x
 _atom_site_fract_y
 _atom_site_fract_z
 _atom_site_occupancy
 _atom_site_pbe_bader_charge
 _atom_site_pbe_bader_spin_density
 _atom_site_pbe_cm5_charge
 _atom_site_pbe_ddec_charge
 _atom_site_pbe_ddec_spin_density
 _atom_site_pbe_ddec_sum_bond_order
 _atom_site_pbe_magmom
Zn  Zn0  1  0.05655858  0.40127678  0.47799176  1  1.31588  0  0.67103  0.966121  0  2.357399  0
Zn  Zn1  1  0.98327559  0.48370337  0.56027485  1  1.317767  0  0.676026  0.966267  0  2.36781  0
Zn  Zn2  1  0.06083783  0.55967742  0.48209957  1  1.322808  0  0.68  0.974815  0  2.352008  0
Zn  Zn3  1  0.89939516  0.55506239  0.47981493  1  1.323526  0  0.679856  0.975306  0  2.350138  0
Zn  Zn4  1  0.69504300  0.34941639  0.27106332  1  1.318326  0  0.672251  0.966159  0  2.365841  0
Zn  Zn5  1  0.69100798  0.18881186  0.26703100  1  1.316861  0  0.672297  0.96578  0  2.362267  0
Zn  Zn6  1  0.76807823  0.26786585  0.18981512  1  1.324479  0  0.680408  0.976419  0  2.346586  0
Zn  Zn7  1  0.84887997  0.19406057  0.27285651  1  1.319094  0  0.674179  0.964953  0  2.368235  0
Zn  Zn8  1  0.26598285  0.76775768  0.68956246  1  1.312749  0  0.672148  0.960035  0  2.379969  0
Zn  Zn9  1  0.34792489  0.69559774  0.77200592  1  1.320021  0  0.674898  0.968798  0  2.364593  0
Zn  Zn10  1  0.19281616  0.84971248  0.77092939  1  1.324872  0  0.678649  0.976171  0  2.349189  0
Zn  Zn11  1  0.18999935  0.68877828  0.76660315  1  1.316906  0  0.67448  0.968147  0  2.3637  0
Zn  Zn12  1  0.56073320  0.06032480  0.98307542  1  1.315644  0  0.673446  0.966033  0  2.368996  0
Zn  Zn13  1  0.40064208  0.05556008  0.97842799  1  1.316167  0  0.672888  0.961633  0  2.374716  0
Zn  Zn14  1  0.55508438  0.90201915  0.97804363  1  1.321198  0  0.673261  0.968242  0  2.368139  0
Zn  Zn15  1  0.48311008  0.98393652  0.06036243  1  1.315567  0  0.673118  0.966188  0  2.36806  0
H  H16  1  0.95283497  0.24832786  0.35253651  1  0.110057  0  0.115716  0.122901  0  0.982889  0
H  H17  1  0.74759660  0.45566115  0.34988801  1  0.155321  0  0.124359  0.143135  0  0.970691  0
H  H18  1  0.99956504  0.29772905  0.40103592  1  0.127899  0  0.116865  0.124746  0  0.982078  0
H  H19  1  0.09938019  0.59554070  0.69938649  1  0.142909  0  0.116446  0.123779  0  0.982293  0
H  H20  1  0.20007400  0.70309676  0.59697279  1  0.145466  0  0.123436  0.144043  0  0.970203  0
H  H21  1  0.05188585  0.54838911  0.65014587  1  0.139495  0  0.11846  0.126578  0  0.978771  0
H  H22  1  0.46521161  0.23791344  0.34148318  1  0.111357  0  0.12233  0.148247  0  0.967109  0
H  H23  1  0.47865540  0.70443126  0.60183337  1  0.121583  0  0.124142  0.150467  0  0.965565  0
H  H24  1  0.20209932  0.97973900  0.60066157  1  0.121803  0  0.122835  0.148922  0  0.965634  0
H  H25  1  0.94909767  0.96948555  0.34982541  1  0.121548  0  0.123717  0.150004  0  0.965456  0
H  H26  1  0.54881271  0.05183552  0.15266592  1  0.132649  0  0.11551  0.122825  0  0.984506  0
H  H27  1  0.65494498  0.15117699  0.04885354  1  0.165012  0  0.124112  0.143075  0  0.970877  0
H  H28  1  0.59771260  0.10099477  0.20015767  1  0.116882  0  0.117208  0.124793  0  0.981877  0
H  H29  1  0.54563366  0.77163450  0.14846780  1  0.112963  0  0.123675  0.149701  0  0.966123  0
H  H30  1  0.16186843  0.13965983  0.04047052  1  0.141653  0  0.124088  0.150152  0  0.96499  0
H  H31  1  0.50132109  0.79748479  0.89808552  1  0.131209  0  0.116237  0.123208  0  0.982642  0
H  H32  1  0.29414146  0.00292720  0.89977392  1  0.149515  0  0.123793  0.142731  0  0.972228  0
H  H33  1  0.45145790  0.75125296  0.84961922  1  0.089576  0  0.118452  0.126764  0  0.979156  0
H  H34  1  0.30027158  0.27949587  0.90218727  1  0.135141  0  0.123779  0.149939  0  0.964904  0
H  H35  1  0.78799603  0.00974024  0.90960782  1  0.135515  0  0.124138  0.150454  0  0.963735  0
C  C36  1  0.06270918  0.31694703  0.56124745  1  1.550219  0  0.2163  0.631825  0  4.216094  0
C  C37  1  0.06995535  0.56882668  0.56842700  1  1.579463  0  0.231686  0.610181  0  4.172014  0
C  C38  1  0.18448929  0.43846520  0.43781092  1  1.581312  0  0.217281  0.630047  0  4.217453  0
C  C39  1  0.93721130  0.68257151  0.43908877  1  1.592226  0  0.218648  0.631358  0  4.209959  0
C  C40  1  0.93069149  0.42987235  0.43193543  1  1.596965  0  0.231354  0.611865  0  4.169975  0
C  C41  1  0.81610572  0.56079809  0.56282731  1  1.587085  0  0.21663  0.629498  0  4.21978  0
C  C42  1  0.56644750  0.31045503  0.31051654  1  1.573156  0  0.218193  0.611337  0  4.215611  0
C  C43  1  0.68050138  0.18184925  0.18122413  1  1.597913  0  0.231897  0.609903  0  4.170033  0
C  C44  1  0.69159789  0.43471954  0.18840044  1  1.605257  0  0.216806  0.630093  0  4.218916  0
C  C45  1  0.93440295  0.18573462  0.18970322  1  1.573499  0  0.217938  0.63089  0  4.214305  0
C  C46  1  0.81892269  0.32006015  0.31965009  1  1.579644  0  0.231938  0.602929  0  4.170168  0
C  C47  1  0.81190131  0.06558716  0.31271457  1  1.568202  0  0.217668  0.609843  0  4.217868  0
C  C48  1  0.43295786  0.69102561  0.68875774  1  1.550842  0  0.219123  0.61167  0  4.218825  0
C  C49  1  0.31874074  0.82014930  0.81850643  1  1.604773  0  0.231497  0.610207  0  4.170854  0
C  C50  1  0.18611470  0.93412134  0.68752721  1  1.566678  0  0.21913  0.610308  0  4.219624  0
C  C51  1  0.06707913  0.80969069  0.81202255  1  1.594479  0  0.217984  0.632822  0  4.211378  0
C  C52  1  0.18095416  0.68070072  0.68004130  1  1.559681  0  0.232292  0.604727  0  4.167764  0
C  C53  1  0.31224937  0.56523798  0.81056237  1  1.580019  0  0.216513  0.631043  0  4.214647  0
C  C54  1  0.43803079  0.18397069  0.93863769  1  1.545022  0  0.219194  0.611289  0  4.216334  0
C  C55  1  0.42982715  0.93137099  0.93053934  1  1.587675  0  0.232401  0.603962  0  4.166336  0
C  C56  1  0.68403826  0.93951823  0.93836651  1  1.556389  0  0.218936  0.611718  0  4.216898  0
C  C57  1  0.56041312  0.81720679  0.06155383  1  1.561902  0  0.218516  0.610262  0  4.217451  0
C  C58  1  0.57004657  0.06968037  0.06932334  1  1.560373  0  0.231954  0.605171  0  4.166645  0
C  C59  1  0.31541837  0.06246157  0.06131784  1  1.555367  0  0.218971  0.610719  0  4.220425  0
C  C60  1  0.90122904  0.40396605  0.40212135  1  0.005983  0  -0.001591  -0.070903  0  3.924117  0
C  C61  1  0.84763413  0.34898104  0.34835657  1  -0.047175  0  -0.004315  -0.007459  0  3.954511  0
C  C62  1  0.83041014  0.44778278  0.38716091  1  0.173352  0  0.091111  0.071705  0  3.917436  0
C  C63  1  0.91882432  0.30431422  0.36258107  1  0.03222  0  -0.072441  -0.087157  0  3.951231  0
C  C64  1  0.80297575  0.42108732  0.36089186  1  0.013164  0  -0.068869  -0.142402  0  3.922767  0
C  C65  1  0.94479497  0.33172244  0.38925844  1  -0.004247  0  -0.070224  -0.074141  0  3.955778  0
C  C66  1  0.09771880  0.60006991  0.59641850  1  0.011495  0  -0.001413  -0.07155  0  3.923689  0
C  C67  1  0.15229928  0.65214678  0.65113985  1  -0.015178  0  -0.004708  -0.009418  0  3.9592  0
C  C68  1  0.13933382  0.64415268  0.58205708  1  0.175312  0  0.090779  0.070324  0  3.91972  0
C  C69  1  0.11041737  0.60869346  0.66629643  1  -0.037807  0  -0.071354  -0.086743  0  3.950749  0
C  C70  1  0.16726902  0.66956396  0.60871373  1  0.047618  0  -0.069344  -0.143786  0  3.925289  0
C  C71  1  0.08391744  0.58286391  0.63909098  1  -0.037905  0  -0.068046  -0.069737  0  3.946718  0
C  C72  1  0.30474039  0.45298895  0.39945631  1  0.538133  0  0.105144  0.256709  0  4.075792  0
C  C73  1  0.44767113  0.29513248  0.34886993  1  0.091142  0  -0.086516  -0.130441  0  3.960192  0
C  C74  1  0.25925667  0.41361619  0.41316936  1  -0.056782  0  -0.036209  -0.244941  0  3.977835  0
C  C75  1  0.49184889  0.33566501  0.33561914  1  -0.19507  0  -0.023169  -0.121494  0  3.982147  0
C  C76  1  0.37956257  0.33813248  0.37238748  1  -0.184252  0  -0.019442  0.008251  0  4.084392  0
C  C77  1  0.37359611  0.41071919  0.37626343  1  -0.103165  0  -0.03091  -0.136922  0  4.103116  0
C  C78  1  0.72478784  0.57621745  0.63017962  1  0.534227  0  0.102462  0.252589  0  4.080415  0
C  C79  1  0.52337806  0.67519913  0.62194706  1  -0.016124  0  -0.084763  -0.12783  0  3.957372  0
C  C80  1  0.74162997  0.58589923  0.58775515  1  -0.054279  0  -0.035375  -0.246524  0  3.980387  0
C  C81  1  0.50815141  0.66525140  0.66432378  1  -0.146178  0  -0.023492  -0.120521  0  3.981639  0
C  C82  1  0.60267519  0.64281419  0.60967105  1  -0.108701  0  -0.018763  0.005475  0  4.084429  0
C  C83  1  0.64584980  0.60850515  0.64322551  1  -0.139812  0  -0.031613  -0.135742  0  4.105459  0
C  C84  1  0.07701884  0.22537746  0.62852533  1  0.557338  0  0.102466  0.253284  0  4.081026  0
C  C85  1  0.17280548  0.02441754  0.62059629  1  0.120242  0  -0.086452  -0.131185  0  3.958769  0
C  C86  1  0.08690028  0.24241011  0.58610424  1  -0.068681  0  -0.036895  -0.246204  0  3.982036  0
C  C87  1  0.16170629  0.00920060  0.66294066  1  -0.226281  0  -0.022261  -0.119875  0  3.98009  0
C  C88  1  0.14134710  0.10355579  0.60819881  1  -0.155732  0  -0.018669  0.009368  0  4.086055  0
C  C89  1  0.10743706  0.14653601  0.64165293  1  -0.149496  0  -0.030772  -0.137669  0  4.106893  0
C  C90  1  0.84429904  0.79966860  0.39722565  1  0.575418  0  0.104305  0.25447  0  4.079052  0
C  C91  1  0.90465965  0.94911375  0.35386235  1  0.036692  0  -0.084889  -0.128432  0  3.954781  0
C  C92  1  0.91224714  0.75727148  0.41435280  1  -0.152422  0  -0.0354  -0.246448  0  3.975401  0
C  C93  1  0.83628917  0.99048586  0.33731861  1  -0.182805  0  -0.024148  -0.120904  0  3.978845  0
C  C94  1  0.90721582  0.87949720  0.37578135  1  -0.121531  0  -0.018617  0.005108  0  4.08556  0
C  C95  1  0.84046296  0.86955358  0.37518761  1  -0.107542  0  -0.031338  -0.134695  0  4.105322  0
C  C96  1  0.65448746  0.15200378  0.15162577  1  0.010926  0  -0.002026  -0.070576  0  3.921786  0
C  C97  1  0.59906041  0.09836582  0.09801898  1  -0.008034  0  -0.004506  -0.008511  0  3.955423  0
C  C98  1  0.67033583  0.16511568  0.10878469  1  0.187723  0  0.091768  0.070692  0  3.91777  0
C  C99  1  0.58295662  0.08391849  0.14066013  1  -0.022806  0  -0.072532  -0.088319  0  3.953987  0
C  C100  1  0.64270253  0.13966075  0.08198967  1  0.012715  0  -0.068326  -0.141188  0  3.920233  0
C  C101  1  0.61019869  0.11087694  0.16693660  1  -0.054874  0  -0.069004  -0.070969  0  3.950884  0
C  C102  1  0.67522601  0.52598931  0.12095391  1  0.547505  0  0.104567  0.2556  0  4.07691  0
C  C103  1  0.57526278  0.72695051  0.12855804  1  0.005509  0  -0.085496  -0.129449  0  3.955929  0
C  C104  1  0.66580818  0.50914404  0.16341976  1  -0.104482  0  -0.035672  -0.245748  0  3.977448  0
C  C105  1  0.58564391  0.74212526  0.08617838  1  -0.108066  0  -0.023264  -0.120454  0  3.97967  0
C  C106  1  0.60790458  0.64785329  0.14106845  1  -0.130138  0  -0.018125  0.009142  0  4.08287  0
C  C107  1  0.64251499  0.60476310  0.10770072  1  -0.109988  0  -0.031037  -0.135822  0  4.103698  0
C  C108  1  0.08123240  0.12378947  0.17759357  1  0.519374  0  0.102127  0.252263  0  4.081268  0
C  C109  1  0.16963056  0.12388464  0.07289856  1  0.047181  0  -0.084501  -0.127164  0  3.95291  0
C  C110  1  0.00895550  0.16095542  0.16478252  1  -0.07373  0  -0.035678  -0.246617  0  3.977686  0
C  C111  1  0.24094940  0.08677014  0.08655682  1  -0.189969  0  -0.023474  -0.120397  0  3.979402  0
C  C112  1  0.11142659  0.13721303  0.10631663  1  -0.165501  0  -0.017881  0.005554  0  4.08181  0
C  C113  1  0.14027904  0.10978635  0.14470743  1  -0.171702  0  -0.031961  -0.135262  0  4.108169  0
C  C114  1  0.34506787  0.84953979  0.84817481  1  0.102592  0  -0.001006  -0.06995  0  3.921361  0
C  C115  1  0.40077680  0.90279396  0.90181576  1  -0.057554  0  -0.004915  -0.009466  0  3.95625  0
C  C116  1  0.30144450  0.92024831  0.86290971  1  0.132827  0  0.090443  0.070917  0  3.915954  0
C  C117  1  0.44522592  0.83167320  0.88787949  1  0.016326  0  -0.070137  -0.083746  0  3.946902  0
C  C118  1  0.32855486  0.94757285  0.88902172  1  0.019829  0  -0.06853  -0.142461  0  3.923241  0
C  C119  1  0.41754010  0.80593019  0.86121585  1  -0.014791  0  -0.068771  -0.072342  0  3.946842  0
C  C120  1  0.40557031  0.44819893  0.85215333  1  0.4865  0  0.103326  0.25357  0  4.079264  0
C  C121  1  0.34480839  0.29985110  0.89753230  1  0.108062  0  -0.084483  -0.128502  0  3.954356  0
C  C122  1  0.33718242  0.49074890  0.83551307  1  -0.072687  0  -0.03625  -0.24545  0  3.978125  0
C  C123  1  0.41357737  0.25870341  0.91367834  1  -0.191249  0  -0.022954  -0.120554  0  3.980492  0
C  C124  1  0.34218104  0.36912895  0.87509767  1  -0.144219  0  -0.018438  0.009137  0  4.079586  0
C  C125  1  0.40938730  0.37878365  0.87479908  1  -0.10024  0  -0.031346  -0.136714  0  4.106074  0
C  C126  1  0.94551119  0.79656265  0.84933956  1  0.568632  0  0.102843  0.253661  0  4.080171  0
C  C127  1  0.80450421  0.95321751  0.90147280  1  0.0394  0  -0.083957  -0.127115  0  3.951837  0
C  C128  1  0.99249409  0.83457736  0.83688649  1  -0.136063  0  -0.035988  -0.247492  0  3.977566  0
C  C129  1  0.75887743  0.91397738  0.91350675  1  -0.157985  0  -0.023454  -0.120663  0  3.979252  0
C  C130  1  0.87270914  0.90996737  0.87805513  1  -0.144424  0  -0.01776  0.007378  0  4.080739  0
C  C131  1  0.87704932  0.83864233  0.87284252  1  -0.111807  0  -0.031197  -0.13667  0  4.108512  0
S  S132  1  0.30135925  0.32309862  0.39751610  1  0.270527  0  0.084737  0.138016  0  2.741035  0
S  S133  1  0.45150581  0.42590592  0.35148421  1  0.292806  0  0.099657  0.166436  0  2.739211  0
S  S134  1  0.65951529  0.63534937  0.56317846  1  0.283983  0  0.097474  0.157309  0  2.735887  0
S  S135  1  0.58942599  0.61650916  0.68964489  1  0.30051  0  0.094591  0.158767  0  2.740304  0
S  S136  1  0.13440779  0.16046326  0.56165822  1  0.27455  0  0.085172  0.139162  0  2.742089  0
S  S137  1  0.11352584  0.09014985  0.68810922  1  0.3122  0  0.103791  0.172751  0  2.736988  0
S  S138  1  0.97267518  0.80360035  0.40346225  1  0.29922  0  0.096719  0.157156  0  2.734522  0
S  S139  1  0.77474124  0.94542272  0.34801932  1  0.296818  0  0.0928  0.156462  0  2.742742  0
S  S140  1  0.61576947  0.59111770  0.18769706  1  0.278828  0  0.088654  0.143778  0  2.736633  0
S  S141  1  0.63477167  0.66102893  0.06114992  1  0.289126  0  0.098126  0.16331  0  2.738711  0
S  S142  1  0.01304218  0.17904152  0.11141008  1  0.353361  0  0.099864  0.160991  0  2.731111  0
S  S143  1  0.23826115  0.06775743  0.13984331  1  0.316154  0  0.093077  0.156981  0  2.742705  0
S  S144  1  0.27612520  0.44510893  0.84777506  1  0.28017  0  0.090246  0.145387  0  2.734656  0
S  S145  1  0.47548252  0.30330320  0.90194568  1  0.291785  0  0.098137  0.164087  0  2.739555  0
S  S146  1  0.95239840  0.92359561  0.85430975  1  0.295908  0  0.098704  0.15896  0  2.731203  0
S  S147  1  0.79793626  0.82463494  0.89660316  1  0.299338  0  0.095287  0.160174  0  2.740374  0
N  N148  1  0.78134895  0.52625647  0.39719040  1  0.408031  0  0.059681  0.521065  0  4.242534  0
N  N149  1  0.15405102  0.66884337  0.53775758  1  0.413439  0  0.059246  0.521392  0  4.239868  0
N  N150  1  0.71936178  0.20481406  0.08918883  1  0.437323  0  0.05871  0.520372  0  4.241328  0
N  N151  1  0.22272933  0.96937493  0.85283966  1  0.409376  0  0.059173  0.521868  0  4.240353  0
O  O152  1  0.00020041  0.49952176  0.49991923  1  -1.232488  0  -0.570896  -1.035095  0  2.522729  0
O  O153  1  0.07396718  0.31596010  0.52218017  1  -1.135394  0  -0.321871  -0.5499  0  2.320911  0
O  O154  1  0.02317718  0.54006810  0.58524113  1  -1.158093  0  -0.307056  -0.533661  0  2.32668  0
O  O155  1  0.15397748  0.50661535  0.44657246  1  -1.158619  0  -0.312143  -0.531388  0  2.328848  0
O  O156  1  0.03312114  0.37537400  0.58048334  1  -1.16633  0  -0.314625  -0.536334  0  2.326887  0
O  O157  1  0.15670745  0.38873886  0.44812249  1  -1.162973  0  -0.322191  -0.549184  0  2.319024  0
O  O158  1  0.09626052  0.57263256  0.53063372  1  -1.155854  0  -0.305224  -0.533747  0  2.364433  0
O  O159  1  0.00193664  0.65844930  0.45259196  1  -1.16757  0  -0.317648  -0.542895  0  2.326086  0
O  O160  1  0.88333197  0.48777213  0.44920665  1  -1.170235  0  -0.305556  -0.535136  0  2.368655  0
O  O161  1  0.89308464  0.64871758  0.44481478  1  -1.146081  0  -0.311907  -0.532914  0  2.326661  0
O  O162  1  0.00044077  0.39066801  0.43778769  1  -1.166866  0  -0.308377  -0.536854  0  2.322346  0
O  O163  1  0.87488048  0.52092763  0.58157736  1  -1.158414  0  -0.314281  -0.535648  0  2.324952  0
O  O164  1  0.81472920  0.58161930  0.52408202  1  -1.149012  0  -0.317172  -0.541745  0  2.324484  0
O  O165  1  0.75053511  0.24989646  0.25024786  1  -1.234354  0  -0.570106  -1.032514  0  2.521432  0
O  O166  1  0.59811425  0.35686922  0.30328589  1  -1.156568  0  -0.318524  -0.545566  0  2.335883  0
O  O167  1  0.67103248  0.15741233  0.21911535  1  -1.163972  0  -0.308156  -0.535904  0  2.32412  0
O  O168  1  0.73081476  0.37641220  0.16953962  1  -1.159345  0  -0.312201  -0.532783  0  2.327967  0
O  O169  1  0.59265586  0.24498791  0.29823265  1  -1.170645  0  -0.316857  -0.540428  0  2.312022  0
O  O170  1  0.67214142  0.43553794  0.22727700  1  -1.178016  0  -0.320987  -0.548345  0  2.321939  0
O  O171  1  0.70858983  0.22963675  0.16607886  1  -1.158889  0  -0.304693  -0.533439  0  2.368515  0
O  O172  1  0.87633451  0.21801105  0.16954932  1  -1.161976  0  -0.316294  -0.540493  0  2.323707  0
O  O173  1  0.86192210  0.25365569  0.30972583  1  -1.175419  0  -0.309883  -0.540384  0  2.338103  0
O  O174  1  0.93403492  0.17333278  0.22868677  1  -1.146866  0  -0.315905  -0.53886  0  2.327193  0
O  O175  1  0.75408884  0.36436469  0.30764929  1  -1.16743  0  -0.310204  -0.537625  0  2.333824  0
O  O176  1  0.74523494  0.09325380  0.30113072  1  -1.174404  0  -0.319488  -0.548331  0  2.338114  0
O  O177  1  0.85888641  0.09650371  0.30512133  1  -1.153699  0  -0.315559  -0.537271  0  2.310011  0
O  O178  1  0.24920172  0.75040468  0.74984290  1  -1.224826  0  -0.5706  -1.032768  0  2.524901  0
O  O179  1  0.37481537  0.72367950  0.66890860  1  -1.179248  0  -0.31579  -0.536834  0  2.316306  0
O  O180  1  0.35917620  0.75117947  0.81199536  1  -1.172012  0  -0.306902  -0.534362  0  2.325113  0
O  O181  1  0.16705043  0.93404804  0.72636301  1  -1.159887  0  -0.316784  -0.542297  0  2.337471  0
O  O182  1  0.43290522  0.67822102  0.72789540  1  -1.141911  0  -0.320463  -0.549785  0  2.336005  0
O  O183  1  0.22386677  0.87617010  0.66807116  1  -1.165966  0  -0.315804  -0.538055  0  2.31388  0
O  O184  1  0.25922938  0.86666896  0.80201379  1  -1.16897  0  -0.305052  -0.534613  0  2.368753  0
O  O185  1  0.09880988  0.85609901  0.80571044  1  -1.149803  0  -0.317507  -0.542754  0  2.322748  0
O  O186  1  0.16596524  0.66271973  0.71833151  1  -1.159999  0  -0.30926  -0.539653  0  2.334627  0
O  O187  1  0.09330006  0.74502645  0.79895640  1  -1.163065  0  -0.315648  -0.539482  0  2.327761  0
O  O188  1  0.21769075  0.72069769  0.66377555  1  -1.16284  0  -0.311427  -0.540411  0  2.337649  0
O  O189  1  0.35887761  0.59644423  0.80218083  1  -1.146245  0  -0.314642  -0.536828  0  2.326859  0
O  O190  1  0.24521539  0.59200286  0.79951208  1  -1.168323  0  -0.320238  -0.547343  0  2.321055  0
O  O191  1  0.49987267  0.00046013  0.00001418  1  -1.22724  0  -0.570328  -1.030041  0  2.525403  0
O  O192  1  0.50452001  0.15685646  0.95035131  1  -1.173597  0  -0.31951  -0.547533  0  2.335725  0
O  O193  1  0.38598875  0.99663744  0.94180292  1  -1.172053  0  -0.310755  -0.539803  0  2.335051  0
O  O194  1  0.65215982  0.89321000  0.94563989  1  -1.171867  0  -0.319663  -0.547756  0  2.335132  0
O  O195  1  0.39109866  0.15302169  0.94631035  1  -1.15968  0  -0.315621  -0.537415  0  2.315798  0
O  O196  1  0.65765144  0.00510126  0.95048011  1  -1.171459  0  -0.315271  -0.538175  0  2.314689  0
O  O197  1  0.49582344  0.88788685  0.94126264  1  -1.173755  0  -0.309508  -0.538914  0  2.334933  0
O  O198  1  0.57558589  0.81726056  0.02249735  1  -1.168623  0  -0.319204  -0.54682  0  2.336624  0
O  O199  1  0.53126988  0.03180763  0.08579277  1  -1.144892  0  -0.310195  -0.541289  0  2.336842  0
O  O200  1  0.52599017  0.87523747  0.08118967  1  -1.164914  0  -0.315754  -0.537797  0  2.313249  0
O  O201  1  0.58673436  0.08552546  0.03094923  1  -1.170535  0  -0.309688  -0.53917  0  2.333628  0
O  O202  1  0.31495850  0.07722031  0.02236096  1  -1.142009  0  -0.315626  -0.537352  0  2.31574  0
O  O203  1  0.37413371  0.02843715  0.08090980  1  -1.170156  0  -0.320409  -0.548839  0  2.336723  0
O  O204  1  0.80156448  0.57661420  0.37959146  1  -0.422318  0  -0.129158  -0.317765  0  1.865354  0
O  O205  1  0.72213827  0.53533971  0.42058587  1  -0.420531  0  -0.131701  -0.321366  0  1.848539  0
O  O206  1  0.09966177  0.72015242  0.52129430  1  -0.426649  0  -0.132469  -0.32351  0  1.867392  0
O  O207  1  0.22050478  0.63905001  0.52155894  1  -0.429711  0  -0.130514  -0.318875  0  1.846833  0
O  O208  1  0.78878301  0.16832636  0.09023517  1  -0.435577  0  -0.131193  -0.321774  0  1.867042  0
O  O209  1  0.68703301  0.26958771  0.07145664  1  -0.430225  0  -0.129402  -0.317299  0  1.846663  0
O  O210  1  0.17215552  0.94958392  0.87072775  1  -0.427931  0  -0.131653  -0.32232  0  1.865409  0
O  O211  1  0.21363413  0.02824480  0.82914893  1  -0.424408  0  -0.131493  -0.321101  0  1.849221  0
F  F212  1  0.28661143  0.52378327  0.40710658  1  -0.613182  0  -0.082092  -0.09843  0  1.351573  0
F  F213  1  0.77714878  0.54043171  0.65676007  1  -0.621279  0  -0.087828  -0.104983  0  1.347199  0
F  F214  1  0.04184426  0.27747259  0.65502184  1  -0.619728  0  -0.085822  -0.10312  0  1.349782  0
F  F215  1  0.78717694  0.77798948  0.40099053  1  -0.615237  0  -0.082794  -0.098798  0  1.353522  0
F  F216  1  0.71127602  0.47388529  0.09456232  1  -0.615686  0  -0.082327  -0.098587  0  1.351644  0
F  F217  1  0.09518529  0.10258199  0.21706089  1  -0.61816  0  -0.088764  -0.106415  0  1.348488  0
F  F218  1  0.46311024  0.46957261  0.84768831  1  -0.613738  0  -0.086671  -0.103522  0  1.348501  0
F  F219  1  0.96220271  0.72681052  0.84038917  1  -0.619229  0  -0.088265  -0.105698  0  1.348308  0
