# generated using pymatgen
data_CdH18C23N4ClO4
_symmetry_space_group_name_H-M   'P 1'
_cell_length_a   10.06117213
_cell_length_b   10.38410734
_cell_length_c   11.63591487
_cell_angle_alpha   68.69630856
_cell_angle_beta   72.57225406
_cell_angle_gamma   75.24277108
_symmetry_Int_Tables_number   1
_chemical_formula_structural   CdH18C23N4ClO4
_chemical_formula_sum   'Cd2 H36 C46 N8 Cl2 O8'
_cell_volume   1065.95769926
_cell_formula_units_Z   2
loop_
 _symmetry_equiv_pos_site_id
 _symmetry_equiv_pos_as_xyz
  1  'x, y, z'
loop_
 _atom_site_type_symbol
 _atom_site_label
 _atom_site_symmetry_multiplicity
 _atom_site_fract_x
 _atom_site_fract_y
 _atom_site_fract_z
 _atom_site_occupancy
 _atom_site_pbe_bader_spin_density
 _atom_site_pbe_cm5_charge
 _atom_site_pbe_ddec_charge
 _atom_site_pbe_ddec_spin_density
 _atom_site_pbe_ddec_sum_bond_order
 _atom_site_pbe_magmom
Cd  Cd0  1  0.42600847  0.32542312  0.57144319  1  0  0.681436  0.797472  0  2.327168  0
Cd  Cd1  1  0.57398870  0.67457687  0.42855855  1  0  0.681446  0.797501  0  2.327105  0
H  H2  1  0.60467026  0.46157016  0.28083965  1  0  0.128885  0.107122  0  1.056105  0
H  H3  1  0.39532519  0.53843405  0.71915860  1  0  0.12888  0.107112  0  1.056135  0
H  H4  1  0.46439606  0.07180666  0.40707407  1  0  0.116744  0.109613  0  1.013066  0
H  H5  1  0.53560394  0.92819540  0.59292883  1  0  0.116754  0.109656  0  1.013099  0
H  H6  1  0.59495389  0.13004510  0.15300342  1  0  0.121632  0.127055  0  1.060843  0
H  H7  1  0.40504867  0.86995379  0.84699896  1  0  0.121667  0.127087  0  1.060767  0
H  H8  1  0.56878689  0.33565895  0.96099607  1  0  0.112244  0.125152  0  0.981919  0
H  H9  1  0.43121584  0.66433889  0.03900747  1  0  0.112245  0.12514  0  0.981883  0
H  H10  1  0.67816354  0.48203923  0.74611816  1  0  0.099358  0.124059  0  1.030741  0
H  H11  1  0.32183604  0.51795865  0.25388362  1  0  0.099352  0.124034  0  1.030785  0
H  H12  1  0.91957766  0.62475367  0.91279600  1  0  0.104874  0.117671  0  1.02382  0
H  H13  1  0.08042245  0.37524735  0.08720205  1  0  0.104877  0.117679  0  1.023816  0
H  H14  1  0.81590896  0.47432254  0.12559816  1  0  0.108351  0.118979  0  1.007997  0
H  H15  1  0.18409583  0.52567529  0.87440140  1  0  0.108337  0.118946  0  1.007941  0
H  H16  1  0.12331395  0.67904286  0.62303805  1  0  0.097628  0.120072  0  1.035458  0
H  H17  1  0.87668426  0.32095713  0.37696256  1  0  0.097636  0.120063  0  1.035449  0
H  H18  1  0.21202036  0.89231923  0.59248820  1  0  0.103732  0.109833  0  1.027055  0
H  H19  1  0.78797783  0.10768076  0.40751155  1  0  0.103747  0.109838  0  1.027053  0
H  H20  1  0.78540135  0.08899076  0.72099843  1  0  0.111664  0.126197  0  0.995792  0
H  H21  1  0.21459649  0.91101134  0.27899730  1  0  0.111686  0.126188  0  0.995733  0
H  H22  1  0.69759388  0.87644611  0.74599242  1  0  0.106744  0.120663  0  1.023868  0
H  H23  1  0.30240398  0.12355598  0.25400588  1  0  0.106734  0.120639  0  1.023879  0
H  H24  1  0.27627651  0.04184693  0.64491394  1  0  0.126175  0.084033  0  1.064014  0
H  H25  1  0.72372167  0.95815307  0.35508410  1  0  0.126161  0.084022  0  1.064037  0
H  H26  1  0.06004000  0.45651969  0.58982241  1  0  0.113429  0.108438  0  1.031392  0
H  H27  1  0.93995807  0.54348134  0.41018134  1  0  0.113422  0.108458  0  1.031424  0
H  H28  1  0.87056976  0.28627956  0.62530812  1  0  0.106689  0.12132  0  1.074043  0
H  H29  1  0.12942724  0.71372149  0.37469246  1  0  0.106671  0.1213  0  1.074068  0
H  H30  1  0.41946623  0.08903349  0.01720145  1  0  0.113943  0.109315  0  0.978944  0
H  H31  1  0.58053512  0.91096646  0.98280006  1  0  0.113943  0.10931  0  0.978966  0
H  H32  1  0.24886154  0.19171031  0.01322655  1  0  0.100898  0.082522  0  1.039441  0
H  H33  1  0.75113962  0.80829070  0.98677209  1  0  0.100911  0.082518  0  1.03939  0
H  H34  1  0.10023477  0.22156700  0.89369355  1  0  0.102591  0.120075  0  1.017484  0
H  H35  1  0.89976710  0.77843610  0.10630250  1  0  0.102619  0.120132  0  1.017402  0
H  H36  1  0.14437210  0.78078062  0.10375450  1  0  0.095127  0.105401  0  1.05587  0
H  H37  1  0.85562858  0.21922353  0.89624324  1  0  0.095208  0.105541  0  1.055654  0
C  C38  1  0.58627515  0.36132338  0.28469633  1  0  0.140698  0.093937  0  3.90598  0
C  C39  1  0.41372152  0.63867977  0.71530280  1  0  0.140701  0.09393  0  3.906026  0
C  C40  1  0.51401579  0.16147921  0.34430288  1  0  -0.006171  -0.036072  0  4.015528  0
C  C41  1  0.48598539  0.83852179  0.65569747  1  0  -0.006194  -0.036158  0  4.015701  0
C  C42  1  0.57540791  0.19073521  0.21682731  1  0  0.003211  -0.096542  0  3.887789  0
C  C43  1  0.42459449  0.80926473  0.78317478  1  0  0.00318  -0.096552  0  3.887712  0
C  C44  1  0.68563856  0.39642691  0.05650965  1  0  0.084312  0.139152  0  4.02318  0
C  C45  1  0.31436416  0.60357093  0.94349218  1  0  0.084288  0.139099  0  4.023312  0
C  C46  1  0.64671656  0.39786534  0.95019371  1  0  -0.082922  -0.134835  0  3.9899  0
C  C47  1  0.35328616  0.60213250  0.04980811  1  0  -0.082878  -0.134763  0  3.989907  0
C  C48  1  0.70629035  0.48067304  0.83011849  1  0  -0.099466  -0.18072  0  3.964859  0
C  C49  1  0.29371115  0.51932587  0.16988245  1  0  -0.099523  -0.180767  0  3.964945  0
C  C50  1  0.80183557  0.56474426  0.81754912  1  0  0.08461  0.257628  0  4.042837  0
C  C51  1  0.19816489  0.43525466  0.18245123  1  0  0.084644  0.257721  0  4.042728  0
C  C52  1  0.84273524  0.56149317  0.92351394  1  0  -0.10434  -0.200679  0  4.008469  0
C  C53  1  0.15726746  0.43850467  0.07648703  1  0  -0.10433  -0.200689  0  4.008451  0
C  C54  1  0.78507087  0.47639535  0.04289060  1  0  -0.085588  -0.130637  0  3.996328  0
C  C55  1  0.21493272  0.52360353  0.95711066  1  0  -0.085593  -0.130599  0  3.99631  0
C  C56  1  0.90553857  0.76501638  0.68762191  1  0  0.076083  0.237435  0  4.054175  0
C  C57  1  0.09445948  0.23498466  0.31237926  1  0  0.076101  0.237479  0  4.054145  0
C  C58  1  0.04994249  0.76822913  0.64607836  1  0  -0.09903  -0.180432  0  3.999591  0
C  C59  1  0.95005692  0.23176980  0.35392313  1  0  -0.099087  -0.18047  0  3.999634  0
C  C60  1  0.09960105  0.88877473  0.62945435  1  0  -0.092118  -0.146361  0  3.979968  0
C  C61  1  0.90039716  0.11122525  0.37054712  1  0  -0.092103  -0.146341  0  3.979932  0
C  C62  1  0.00521293  0.00421893  0.65699605  1  0  0.097281  0.164121  0  4.000449  0
C  C63  1  0.99478527  0.99578106  0.34300456  1  0  0.097312  0.164188  0  4.000354  0
C  C64  1  0.86021979  0.00006626  0.69919810  1  0  -0.084351  -0.13386  0  3.956648  0
C  C65  1  0.13977928  0.99993477  0.30080108  1  0  -0.084382  -0.133866  0  3.956565  0
C  C66  1  0.81035242  0.88029016  0.71389905  1  0  -0.095627  -0.180839  0  3.98471  0
C  C67  1  0.18964594  0.11970878  0.28610099  1  0  -0.095626  -0.18081  0  3.984807  0
C  C68  1  0.19428862  0.13282552  0.63017757  1  0  0.136847  0.097748  0  3.91219  0
C  C69  1  0.80570851  0.86717449  0.36982073  1  0  0.136881  0.097775  0  3.91216  0
C  C70  1  0.07741148  0.34460689  0.60596142  1  0  -0.000453  -0.019271  0  3.980756  0
C  C71  1  0.92258585  0.65539206  0.39404061  1  0  -0.000498  -0.019439  0  3.980847  0
C  C72  1  0.98189780  0.26104164  0.62517494  1  0  0.000834  -0.095797  0  3.898766  0
C  C73  1  0.01810072  0.73895625  0.37482625  1  0  0.000858  -0.095669  0  3.898569  0
C  C74  1  0.38118460  0.18617053  0.82963224  1  0  0.184032  0.575264  0  4.198947  0
C  C75  1  0.61881323  0.81382527  0.17037154  1  0  0.184057  0.575327  0  4.199085  0
C  C76  1  0.32961880  0.11680635  0.97251965  1  0  -0.071226  -0.124136  0  3.885323  0
C  C77  1  0.67038359  0.88319359  0.02748158  1  0  -0.071262  -0.124153  0  3.885167  0
C  C78  1  0.13996470  0.99975134  0.99965594  1  0  0.064851  0.224315  0  4.062419  0
C  C79  1  0.86003821  0.00025175  0.00033899  1  0  0.064878  0.224361  0  4.062463  0
C  C80  1  0.05763988  0.12411542  0.94191162  1  0  -0.114704  -0.196119  0  4.010097  0
C  C81  1  0.94236406  0.87588766  0.05808217  1  0  -0.11475  -0.196234  0  4.010076  0
C  C82  1  0.08119529  0.87671928  0.05718846  1  0  -0.112879  -0.183121  0  4.024038  0
C  C83  1  0.91880881  0.12328275  0.94280562  1  0  -0.112982  -0.183326  0  4.02396  0
N  N84  1  0.52200684  0.26801015  0.38548713  1  0  -0.362978  -0.305973  0  3.54483  0
N  N85  1  0.47799073  0.73199403  0.61451401  1  0  -0.362946  -0.305935  0  3.544959  0
N  N86  1  0.62072291  0.31798417  0.18046160  1  0  -0.224433  0.018911  0  3.797304  0
N  N87  1  0.37927827  0.68201683  0.81953876  1  0  -0.224436  0.018924  0  3.797351  0
N  N88  1  0.05751379  0.12647763  0.63937979  1  0  -0.224006  0.013336  0  3.794471  0
N  N89  1  0.94248408  0.87352446  0.36061851  1  0  -0.223995  0.013227  0  3.794469  0
N  N90  1  0.20910433  0.26335778  0.60905462  1  0  -0.358058  -0.282094  0  3.538428  0
N  N91  1  0.79089298  0.73664118  0.39094570  1  0  -0.35804  -0.281986  0  3.538397  0
Cl  Cl92  1  0.66147616  0.40908431  0.54664089  1  0  -0.281347  -0.487573  0  1.281207  0
Cl  Cl93  1  0.33852326  0.59091462  0.45336060  1  0  -0.281354  -0.487585  0  1.281233  0
O  O94  1  0.35399761  0.31971503  0.78936044  1  0  -0.341053  -0.565445  0  2.211943  0
O  O95  1  0.64600090  0.68028287  0.21063819  1  0  -0.34106  -0.565491  0  2.212073  0
O  O96  1  0.44707370  0.10984444  0.75961908  1  0  -0.335915  -0.552009  0  2.142929  0
O  O97  1  0.55292320  0.89015034  0.24038098  1  0  -0.335911  -0.552024  0  2.143039  0
O  O98  1  0.27844505  0.98843879  0.00488364  1  0  -0.192137  -0.205044  0  2.548801  0
O  O99  1  0.72155527  0.01156117  0.99511900  1  0  -0.192178  -0.205051  0  2.548772  0
O  O100  1  0.85598120  0.64692021  0.69697004  1  0  -0.156074  -0.219241  0  2.558317  0
O  O101  1  0.14401717  0.35307873  0.30303086  1  0  -0.156094  -0.219328  0  2.558298  0
