# generated using pymatgen
data_CoH12(C7N2)2
_symmetry_space_group_name_H-M   'P 1'
_cell_length_a   6.95508868
_cell_length_b   8.15662278
_cell_length_c   13.01513037
_cell_angle_alpha   108.26699599
_cell_angle_beta   91.74916306
_cell_angle_gamma   90.12249930
_symmetry_Int_Tables_number   1
_chemical_formula_structural   CoH12(C7N2)2
_chemical_formula_sum   'Co2 H24 C28 N8'
_cell_volume   700.76058625
_cell_formula_units_Z   2
loop_
 _symmetry_equiv_pos_site_id
 _symmetry_equiv_pos_as_xyz
  1  'x, y, z'
loop_
 _atom_site_type_symbol
 _atom_site_label
 _atom_site_symmetry_multiplicity
 _atom_site_fract_x
 _atom_site_fract_y
 _atom_site_fract_z
 _atom_site_occupancy
 _atom_site_hle17_ddec_charge
 _atom_site_hle17_ddec_spin_density
 _atom_site_hle17_ddec_sum_bond_order
 _atom_site_hle17_magmom
 _atom_site_hse06_10hf_ddec_charge
 _atom_site_hse06_10hf_ddec_spin_density
 _atom_site_hse06_10hf_ddec_sum_bond_order
 _atom_site_hse06_10hf_magmom
 _atom_site_hse06_ddec_charge
 _atom_site_hse06_ddec_spin_density
 _atom_site_hse06_ddec_sum_bond_order
 _atom_site_hse06_magmom
 _atom_site_pbe_cm5_charge
 _atom_site_pbe_ddec_charge
 _atom_site_pbe_ddec_spin_density
 _atom_site_pbe_ddec_sum_bond_order
 _atom_site_pbe_magmom
Co  Co0  1  0.74995379  0.46111250  0.99999356  1  0.749594  -2.775545  2.268657  -2.473  0.660824  -2.74871  2.749251  -2.517  0.749239  -2.824348  2.675011  -2.625  0.723845  0.590254  -2.667253  2.806647  -2.409
Co  Co1  1  0.25004316  0.53888517  0.00000349  1  0.749755  2.775569  2.268488  2.473  0.66084  2.748718  2.749116  2.517  0.749274  2.824349  2.674878  2.625  0.723839  0.590297  2.667259  2.806515  2.409
H  H2  1  0.77018143  0.32257989  0.20541126  1  0.101501  0.000418  0.937549  0.0  0.116633  0.000252  0.99212  0.0  0.118463  0.000198  0.990085  0.0  0.121593  0.115222  0.000292  0.99385  0.0
H  H3  1  0.72834302  0.11754710  0.79442159  1  0.102256  0.000333  0.937322  0.0  0.116967  0.000256  0.992307  0.0  0.118761  0.000197  0.990347  0.0  0.12185  0.115624  0.000301  0.99397  0.0
H  H4  1  0.22982854  0.67742818  0.79458807  1  0.101536  -0.000418  0.937571  0.0  0.11665  -0.000251  0.992159  0.0  0.118481  -0.000198  0.990124  0.0  0.121579  0.115242  -0.000292  0.993885  0.0
H  H5  1  0.27165112  0.88244655  0.20557844  1  0.102146  -0.000331  0.937153  0.0  0.116836  -0.000255  0.992197  0.0  0.118629  -0.000196  0.990236  0.0  0.121787  0.115494  -0.000301  0.993858  0.0
H  H6  1  0.20016370  0.54069726  0.23432137  1  0.095678  -0.000427  0.981776  0.0  0.107093  -0.000282  1.043384  0.0  0.108097  -0.000203  1.043673  0.0  0.117296  0.106352  -0.00036  1.043306  0.0
H  H7  1  0.29961105  0.30638960  0.76551016  1  0.096334  -0.000317  0.980601  0.0  0.107402  -0.000265  1.042686  0.0  0.108458  -0.000188  1.042903  0.0  0.117359  0.106629  -0.000343  1.042664  0.0
H  H8  1  0.79984037  0.45929402  0.76567364  1  0.095671  0.000427  0.981681  0.0  0.107068  0.000282  1.043336  0.0  0.108084  0.000203  1.04359  0.0  0.117284  0.106331  0.00036  1.043252  0.0
H  H9  1  0.70038874  0.69359250  0.23448673  1  0.096274  0.000317  0.980719  0.0  0.107418  0.000265  1.042709  0.0  0.108474  0.000187  1.042926  0.0  0.117362  0.106646  0.000342  1.042687  0.0
H  H10  1  0.18103383  0.23425254  0.30589569  1  0.106121  -8.5e-05  0.94673  0.0  0.125662  -0.000137  1.008481  0.0  0.126644  -0.000111  1.00877  0.0  0.08849  0.125039  -0.000163  1.008201  0.0
H  H11  1  0.31753289  0.92878999  0.69439154  1  0.105261  -9.1e-05  0.94747  0.0  0.125094  -0.000141  1.009026  0.0  0.126091  -0.000115  1.009315  0.0  0.088139  0.124459  -0.000169  1.008739  0.0
H  H12  1  0.81896612  0.76575281  0.69410529  1  0.106196  8.9e-05  0.946697  0.0  0.125732  0.000137  1.008456  0.0  0.126726  0.000111  1.008733  0.0  0.088508  0.125106  0.000163  1.008177  0.0
H  H13  1  0.68247855  0.07120371  0.30561018  1  0.105299  9e-05  0.947412  0.0  0.125108  0.000141  1.008998  0.0  0.126104  0.000115  1.009288  0.0  0.088137  0.124475  0.000169  1.00871  0.0
H  H14  1  0.06248192  0.28378893  0.43111831  1  0.108786  2e-06  0.969248  0.0  0.129339  -3e-06  1.030145  0.0  0.130113  -3e-06  1.032094  0.0  0.088769  0.128698  -3e-06  1.028885  0.0
H  H15  1  0.43684280  0.85371130  0.56939269  1  0.109027  -1.4e-05  0.969657  0.0  0.129674  -2e-05  1.03029  0.0  0.130455  -1.5e-05  1.032211  0.0  0.088898  0.129043  -2.6e-05  1.029022  0.0
H  H16  1  0.93752534  0.71622021  0.56888737  1  0.108818  1e-06  0.969286  0.0  0.129338  3e-06  1.030216  0.0  0.130111  3e-06  1.032166  0.0  0.088749  0.128705  3e-06  1.028945  0.0
H  H17  1  0.56316857  0.14628249  0.43060598  1  0.109049  1.4e-05  0.969709  0.0  0.129708  2e-05  1.030308  0.0  0.130489  1.5e-05  1.032228  0.0  0.088938  0.129068  2.6e-05  1.029051  0.0
H  H18  1  0.05826360  0.43122395  0.35621736  1  0.095754  -5.1e-05  0.960353  0.0  0.116887  -3.3e-05  1.025629  0.0  0.117628  -3.1e-05  1.025664  0.0  0.085779  0.116364  -3.7e-05  1.025641  0.0
H  H19  1  0.44134497  0.07594764  0.64463184  1  0.095259  -6.2e-05  0.961564  0.0  0.116156  -4e-05  1.027224  0.0  0.116908  -3.6e-05  1.027255  0.0  0.085646  0.115638  -4.5e-05  1.027231  0.0
H  H20  1  0.94172632  0.56878259  0.64378532  1  0.095655  5.3e-05  0.960477  0.0  0.116801  3.3e-05  1.025735  0.0  0.117539  3.1e-05  1.025773  0.0  0.085721  0.116276  3.7e-05  1.025747  0.0
H  H21  1  0.55865783  0.92404732  0.35536930  1  0.095215  6.2e-05  0.961562  0.0  0.116125  4e-05  1.027213  0.0  0.116877  3.6e-05  1.027243  0.0  0.085644  0.11561  4.5e-05  1.027216  0.0
H  H22  1  0.22675317  0.42738286  0.59461628  1  0.087229  -5.5e-05  0.972182  0.0  0.097943  -7.7e-05  1.038509  0.0  0.100384  -6e-05  1.03804  0.0  0.09471  0.09617  -9.5e-05  1.039054  0.0
H  H23  1  0.27378896  0.83410971  0.40573445  1  0.08758  -8.1e-05  0.971962  0.0  0.098134  -0.00011  1.03825  0.0  0.10054  -8.3e-05  1.037871  0.0  0.09479  0.096381  -0.000137  1.038737  0.0
H  H24  1  0.77324537  0.57263808  0.40538487  1  0.08721  5.4e-05  0.972227  0.0  0.097946  7.7e-05  1.038525  0.0  0.100387  6e-05  1.038055  0.0  0.094722  0.096175  9.5e-05  1.039063  0.0
H  H25  1  0.72620519  0.16586830  0.59426692  1  0.087474  8.1e-05  0.971915  0.0  0.098033  0.00011  1.03823  0.0  0.10044  8.3e-05  1.037849  0.0  0.094738  0.096282  0.000137  1.038718  0.0
C  C26  1  0.62975951  0.37383483  0.19421753  1  -0.011676  0.004749  3.717128  0.006  -0.054373  0.001573  3.985638  0.002  -0.045351  0.001375  4.002012  0.002  0.008365  -0.060554  0.001936  3.97415  0.002
C  C27  1  0.86910639  0.17988327  0.80561108  1  -0.012345  0.008168  3.715548  0.01  -0.054999  0.003611  3.984501  0.004  -0.045957  0.002792  4.001009  0.003  0.008478  -0.061299  0.004659  3.972908  0.005
C  C28  1  0.37024183  0.62616797  0.80578216  1  -0.011775  -0.004754  3.717442  -0.006  -0.054442  -0.001574  3.985947  -0.002  -0.045423  -0.001373  4.00233  -0.002  0.008327  -0.060623  -0.001935  3.974458  -0.002
C  C29  1  0.13089048  0.82010929  0.19438336  1  -0.012262  -0.008181  3.715501  -0.01  -0.054894  -0.003613  3.984467  -0.004  -0.045851  -0.002793  4.000978  -0.003  0.008522  -0.061188  -0.004659  3.972868  -0.005
C  C30  1  0.33893969  0.48506153  0.20887711  1  -0.007794  -0.001706  3.722195  -0.001  -0.049034  0.002031  3.983049  0.004  -0.041067  0.002005  4.002518  0.003  0.007984  -0.05447  0.002059  3.969446  0.004
C  C31  1  0.16064965  0.27623582  0.79104591  1  -0.008306  -0.005383  3.71898  -0.006  -0.049222  -0.000134  3.980244  0.001  -0.041153  0.000486  3.999586  0.001  0.007864  -0.054819  -0.000915  3.966754  0.0
C  C32  1  0.66105603  0.51493848  0.79112733  1  -0.007796  0.001711  3.722501  0.001  -0.049018  -0.002031  3.983386  -0.004  -0.041048  -0.002002  4.002864  -0.003  0.008003  -0.054458  -0.002058  3.969782  -0.004
C  C33  1  0.83934584  0.72375015  0.20895099  1  -0.008277  0.005369  3.718975  0.006  -0.049237  0.000134  3.980244  -0.001  -0.041169  -0.000486  3.999585  -0.001  0.007847  -0.054837  0.000915  3.966753  0.0
C  C34  1  0.48354899  0.43258576  0.26892186  1  -0.057587  -0.003382  3.853393  -0.004  -0.037162  -0.002353  4.092728  -0.003  -0.044761  -0.002087  4.118045  -0.003  -0.034619  -0.032139  -0.002629  4.075769  -0.004
C  C35  1  0.01563390  0.16348404  0.73098369  1  -0.056071  -0.0031  3.85171  -0.004  -0.036025  -0.00219  4.091295  -0.003  -0.043793  -0.001986  4.116731  -0.003  -0.033811  -0.030739  -0.002409  4.074133  -0.003
C  C36  1  0.51645233  0.56742229  0.73107662  1  -0.057607  0.003379  3.853315  0.004  -0.037194  0.002354  4.092672  0.003  -0.044798  0.002085  4.117996  0.003  -0.034585  -0.032162  0.002629  4.075708  0.004
C  C37  1  0.98436311  0.83650573  0.26901632  1  -0.056099  0.003108  3.851327  0.004  -0.03608  0.00219  4.090977  0.003  -0.04385  0.001985  4.116413  0.003  -0.033804  -0.030793  0.002409  4.07382  0.003
C  C38  1  0.48854902  0.46139912  0.38622775  1  0.01184  0.0015  3.804449  0.002  0.019569  0.000839  4.03914  0.001  0.019519  0.000868  4.064333  0.001  -0.014492  0.019912  0.000799  4.021743  0.001
C  C39  1  0.01089303  0.07497306  0.61379200  1  0.011817  0.001474  3.806401  0.002  0.019323  0.000807  4.040852  0.001  0.019387  0.000848  4.065896  0.001  -0.014507  0.019556  0.000764  4.02357  0.001
C  C40  1  0.51145208  0.53861443  0.61376189  1  0.011803  -0.001502  3.805324  -0.002  0.019547  -0.000838  4.039987  -0.001  0.019498  -0.000868  4.065179  -0.001  -0.014481  0.019886  -0.000799  4.022591  -0.001
C  C41  1  0.98910416  0.92501908  0.38621466  1  0.011763  -0.001479  3.806423  -0.002  0.019245  -0.000806  4.040909  -0.001  0.019311  -0.000849  4.06595  -0.001  -0.014561  0.019476  -0.000764  4.023625  -0.001
C  C42  1  0.32976568  0.42289133  0.44024368  1  0.099991  -0.001321  3.742793  -0.002  0.120316  -0.000706  3.982055  -0.001  0.120355  -0.000717  4.005746  -0.001  -0.012222  0.120287  -0.000707  3.965745  -0.001
C  C43  1  0.17004946  0.98331756  0.55993855  1  0.099387  -0.001454  3.744066  -0.002  0.120505  -0.000825  3.981947  -0.001  0.1206  -0.00081  4.005458  -0.001  -0.012411  0.120443  -0.000861  3.965788  -0.001
C  C44  1  0.67022708  0.57712178  0.55975732  1  0.099984  0.001323  3.743306  0.002  0.120313  0.000704  3.982523  0.001  0.120352  0.000717  4.006214  0.001  -0.012203  0.120285  0.000707  3.966211  0.001
C  C45  1  0.82995904  0.01667230  0.44006081  1  0.099359  0.001455  3.744147  0.002  0.12051  0.000824  3.981993  0.001  0.120602  0.00081  4.005508  0.001  -0.012461  0.12045  0.00086  3.965829  0.001
C  C46  1  0.14894891  0.33828035  0.38042208  1  -0.327893  -6e-06  3.731793  0.0  -0.406173  -9.7e-05  3.965113  0.0  -0.408179  -7e-05  3.975527  0.0  -0.242514  -0.40451  -0.000123  3.957793  0.0
C  C47  1  0.35033996  0.95867732  0.62003440  1  -0.326903  -1.1e-05  3.733868  0.0  -0.405594  -0.000129  3.966501  0.0  -0.407623  -9.2e-05  3.97688  0.0  -0.24215  -0.403917  -0.000169  3.959172  0.0
C  C48  1  0.85105400  0.66173403  0.61958158  1  -0.327901  -1e-05  3.731806  0.0  -0.406178  9.7e-05  3.965114  0.0  -0.408195  7.1e-05  3.975527  0.0  -0.242499  -0.40452  0.000123  3.957784  0.0
C  C49  1  0.64966144  0.04132412  0.37996732  1  -0.326829  1.2e-05  3.733721  0.0  -0.405531  0.000129  3.966332  0.0  -0.407557  9.2e-05  3.976711  0.0  -0.242125  -0.403849  0.000169  3.959013  0.0
C  C50  1  0.34615353  0.46212314  0.55266554  1  -0.170377  0.001301  3.733223  0.002  -0.196127  0.000639  3.981411  0.001  -0.199758  0.000689  4.00311  0.001  -0.095792  -0.193533  0.000601  3.966548  0.001
C  C51  1  0.15424407  0.91036900  0.44753562  1  -0.17013  0.001192  3.733619  0.002  -0.195965  0.000519  3.981476  0.001  -0.199584  0.000613  4.003039  0.001  -0.095484  -0.193377  0.000437  3.966715  0.001
C  C52  1  0.65385377  0.53790159  0.44734032  1  -0.170288  -0.001299  3.732838  -0.002  -0.196063  -0.000639  3.981046  -0.001  -0.199694  -0.000689  4.002745  -0.001  -0.095754  -0.193468  -0.000602  3.966181  -0.001
C  C53  1  0.84575288  0.08961434  0.55246228  1  -0.170044  -0.00119  3.733558  -0.002  -0.195905  -0.000519  3.981405  -0.001  -0.199524  -0.000612  4.002974  -0.001  -0.095437  -0.193318  -0.000437  3.966647  -0.001
N  N54  1  0.57711253  0.39437433  0.09781463  1  -0.255685  -0.045208  3.31206  -0.067  -0.214092  -0.031048  3.635744  -0.037  -0.241113  -0.02423  3.65723  -0.027  -0.287897  -0.193148  -0.037101  3.619516  -0.045
N  N55  1  0.92196279  0.29718746  0.90188883  1  -0.25649  -0.045498  3.313204  -0.067  -0.215069  -0.030967  3.637585  -0.037  -0.242283  -0.02417  3.659131  -0.027  -0.288943  -0.193888  -0.037027  3.62126  -0.045
N  N56  1  0.42289297  0.60562350  0.90217945  1  -0.255683  0.045205  3.312246  0.067  -0.214059  0.031048  3.635888  0.037  -0.241088  0.02423  3.657384  0.027  -0.287847  -0.193115  0.0371  3.619663  0.045
N  N57  1  0.07803137  0.70281400  0.09811128  1  -0.256401  0.045496  3.313404  0.067  -0.214943  0.030963  3.637737  0.037  -0.242157  0.024169  3.65929  0.027  -0.288893  -0.19377  0.037023  3.621416  0.045
N  N58  1  0.39761638  0.46485640  0.10780914  1  -0.251806  0.047246  3.359463  0.07  -0.207448  0.031269  3.683815  0.038  -0.236141  0.024661  3.707657  0.028  -0.287673  -0.185461  0.036521  3.666189  0.045
N  N59  1  0.10194961  0.35757290  0.89195595  1  -0.250471  0.047421  3.359957  0.071  -0.206274  0.030997  3.684442  0.037  -0.23493  0.024442  3.708114  0.028  -0.287363  -0.18428  0.036291  3.66702  0.045
N  N60  1  0.60238477  0.53513753  0.89218409  1  -0.251668  -0.047244  3.359842  -0.07  -0.207335  -0.03127  3.684181  -0.038  -0.236021  -0.024663  3.708021  -0.028  -0.287675  -0.185343  -0.036519  3.666552  -0.045
N  N61  1  0.89805030  0.64242468  0.10804418  1  -0.250459  -0.047417  3.360055  -0.071  -0.2063  -0.030999  3.684579  -0.037  -0.234952  -0.024444  3.708245  -0.028  -0.28736  -0.184296  -0.036293  3.667145  -0.045
