# generated using pymatgen
data_BaH7C8NO5
_symmetry_space_group_name_H-M   'P 1'
_cell_length_a   7.60161645
_cell_length_b   8.04372642
_cell_length_c   8.36391277
_cell_angle_alpha   79.97380411
_cell_angle_beta   65.68413215
_cell_angle_gamma   83.07510226
_symmetry_Int_Tables_number   1
_chemical_formula_structural   BaH7C8NO5
_chemical_formula_sum   'Ba2 H14 C16 N2 O10'
_cell_volume   458.24755563
_cell_formula_units_Z   2
loop_
 _symmetry_equiv_pos_site_id
 _symmetry_equiv_pos_as_xyz
  1  'x, y, z'
loop_
 _atom_site_type_symbol
 _atom_site_label
 _atom_site_symmetry_multiplicity
 _atom_site_fract_x
 _atom_site_fract_y
 _atom_site_fract_z
 _atom_site_occupancy
 _atom_site_hle17_bader_spin_density
 _atom_site_hle17_ddec_charge
 _atom_site_hle17_ddec_spin_density
 _atom_site_hle17_ddec_sum_bond_order
 _atom_site_hle17_magmom
 _atom_site_hse06_10hf_bader_spin_density
 _atom_site_hse06_10hf_ddec_charge
 _atom_site_hse06_10hf_ddec_spin_density
 _atom_site_hse06_10hf_ddec_sum_bond_order
 _atom_site_hse06_10hf_magmom
 _atom_site_hse06_bader_spin_density
 _atom_site_hse06_ddec_charge
 _atom_site_hse06_ddec_spin_density
 _atom_site_hse06_ddec_sum_bond_order
 _atom_site_hse06_magmom
 _atom_site_pbe_bader_spin_density
 _atom_site_pbe_cm5_charge
 _atom_site_pbe_ddec_charge
 _atom_site_pbe_ddec_spin_density
 _atom_site_pbe_ddec_sum_bond_order
 _atom_site_pbe_magmom
Ba  Ba0  1  0.04504710  0.60107354  0.20942287  1  0  1.610194  0  1.146193  0  0  1.457672  0  1.541124  0  0  1.49875  0  1.500653  0  0  0.951336  1.427571  0  1.569738  0
Ba  Ba1  1  0.95495389  0.39892600  0.79057508  1  0  1.610185  0  1.146162  0  0  1.457674  0  1.541071  0  0  1.49875  0  1.500603  0  0  0.951328  1.427574  0  1.569684  0
H  H2  1  0.78849550  0.95789471  0.09856784  1  0  0.426395  0  0.879962  0  0  0.396495  0  0.943411  0  0  0.40727  0  0.927532  0  0  0.291369  0.388833  0  0.954683  0
H  H3  1  0.21150543  0.04210609  0.90143112  1  0  0.426389  0  0.879974  0  0  0.396487  0  0.943424  0  0  0.407263  0  0.927544  0  0  0.291363  0.388825  0  0.954698  0
H  H4  1  0.80376965  0.81103790  0.98589903  1  0  0.422868  0  0.883303  0  0  0.39312  0  0.946235  0  0  0.403845  0  0.930464  0  0  0.29562  0.385493  0  0.957417  0
H  H5  1  0.19622991  0.18896165  0.01410066  1  0  0.42288  0  0.883288  0  0  0.393133  0  0.946217  0  0  0.403857  0  0.930448  0  0  0.295622  0.385507  0  0.957398  0
H  H6  1  0.50364330  0.71145553  0.04189536  1  0  0.320419  0  0.910339  0  0  0.307149  0  0.971653  0  0  0.313829  0  0.966243  0  0  0.305215  0.302386  0  0.975497  0
H  H7  1  0.49635489  0.28854276  0.95810507  1  0  0.320392  0  0.910398  0  0  0.307121  0  0.971714  0  0  0.313802  0  0.9663  0  0  0.30521  0.302358  0  0.975557  0
H  H8  1  0.53014494  0.55545087  0.18991226  1  0  0.32411  0  0.906721  0  0  0.313881  0  0.961226  0  0  0.320171  0  0.956637  0  0  0.307219  0.309381  0  0.96454  0
H  H9  1  0.46985316  0.44454869  0.81008679  1  0  0.324101  0  0.906723  0  0  0.313884  0  0.961205  0  0  0.320174  0  0.956616  0  0  0.307235  0.309386  0  0.964515  0
H  H10  1  0.19605029  0.06655432  0.65594901  1  0  0.093723  0  0.991862  0  0  0.105966  0  1.057914  0  0  0.109479  0  1.055147  0  0  0.113436  0.103437  0  1.059943  0
H  H11  1  0.80395210  0.93344648  0.34405059  1  0  0.093745  0  0.991835  0  0  0.105998  0  1.057876  0  0  0.109513  0  1.055106  0  0  0.113435  0.103468  0  1.059904  0
H  H12  1  0.37530793  0.56724848  0.50884709  1  0  0.09921  0  0.974564  0  0  0.109543  0  1.039913  0  0  0.113262  0  1.037144  0  0  0.116051  0.106807  0  1.042063  0
H  H13  1  0.62469597  0.43275105  0.49115334  1  0  0.09919  0  0.974568  0  0  0.10954  0  1.039899  0  0  0.113249  0  1.037142  0  0  0.116053  0.106804  0  1.042049  0
H  H14  1  0.34760773  0.98381953  0.11959857  1  0  0.107041  0  0.969346  0  0  0.118322  0  1.032593  0  0  0.122206  0  1.029507  0  0  0.113361  0.115442  0  1.035013  0
H  H15  1  0.65238604  0.01618004  0.88040093  1  0  0.107053  0  0.969379  0  0  0.118349  0  1.032608  0  0  0.122232  0  1.029523  0  0  0.113369  0.115471  0  1.035027  0
C  C16  1  0.20627583  0.22520946  0.33707936  1  0  0.67842  0  3.889523  0  0  0.6282  0  4.181188  0  0  0.662152  0  4.172833  0  0  0.220728  0.605229  0  4.186005  0
C  C17  1  0.79372654  0.77479133  0.66291905  1  0  0.67848  0  3.889407  0  0  0.628254  0  4.181082  0  0  0.662201  0  4.17273  0  0  0.220747  0.605287  0  4.185903  0
C  C18  1  0.26077392  0.04314889  0.38445540  1  0  -0.045381  0  3.770914  0  0  -0.021646  0  4.010723  0  0  -0.02764  0  4.032892  0  0  -0.011535  -0.01793  0  3.995892  0
C  C19  1  0.73922563  0.95685066  0.61554429  1  0  -0.045401  0  3.770903  0  0  -0.021695  0  4.01075  0  0  -0.027669  0  4.032889  0  0  -0.011563  -0.017999  0  3.995948  0
C  C20  1  0.24293782  0.98143471  0.55702650  1  0  -0.090077  0  3.706738  0  0  -0.132008  0  3.958869  0  0  -0.132279  0  3.979495  0  0  -0.078249  -0.131568  0  3.945015  0
C  C21  1  0.75705878  0.01856612  0.44297410  1  0  -0.090091  0  3.706681  0  0  -0.132004  0  3.9588  0  0  -0.132289  0  3.979426  0  0  -0.078206  -0.131557  0  3.944952  0
C  C22  1  0.28316762  0.80967868  0.60214520  1  0  -0.04537  0  3.778964  0  0  -0.020532  0  4.016748  0  0  -0.026185  0  4.038352  0  0  -0.008356  -0.017038  0  4.002288  0
C  C23  1  0.71683327  0.19032340  0.39785714  1  0  -0.045443  0  3.779093  0  0  -0.020612  0  4.016887  0  0  -0.026258  0  4.038484  0  0  -0.0084  -0.017118  0  4.002426  0
C  C24  1  0.34716756  0.70153693  0.47293767  1  0  -0.182908  0  3.688958  0  0  -0.213036  0  3.937358  0  0  -0.215284  0  3.955093  0  0  -0.074173  -0.21122  0  3.925452  0
C  C25  1  0.65283344  0.29846260  0.52706148  1  0  -0.182832  0  3.689001  0  0  -0.212967  0  3.9374  0  0  -0.215209  0  3.955139  0  0  -0.074161  -0.21115  0  3.925494  0
C  C26  1  0.37719980  0.76345389  0.29657076  1  0  0.280855  0  3.87889  0  0  0.283955  0  4.126043  0  0  0.291134  0  4.147561  0  0  0.094683  0.27882  0  4.111344  0
C  C27  1  0.62279831  0.23654567  0.70342948  1  0  0.280902  0  3.878818  0  0  0.283985  0  4.125995  0  0  0.291163  0  4.147513  0  0  0.094704  0.278849  0  4.111297  0
C  C28  1  0.32910201  0.93480911  0.25500002  1  0  -0.174355  0  3.672207  0  0  -0.205956  0  3.920737  0  0  -0.207991  0  3.938383  0  0  -0.080923  -0.204303  0  3.908892  0
C  C29  1  0.67089610  0.06519045  0.74500022  1  0  -0.174436  0  3.672241  0  0  -0.206034  0  3.920762  0  0  -0.208076  0  3.938403  0  0  -0.080956  -0.204378  0  3.908928  0
C  C30  1  0.25245781  0.73719523  0.78908082  1  0  0.660295  0  3.904012  0  0  0.610643  0  4.194103  0  0  0.644693  0  4.184991  0  0  0.215952  0.587582  0  4.199515  0
C  C31  1  0.74754313  0.26280557  0.21091932  1  0  0.660275  0  3.904124  0  0  0.610621  0  4.194212  0  0  0.64467  0  4.185099  0  0  0.215936  0.58756  0  4.199623  0
N  N32  1  0.43893777  0.65321582  0.16922801  1  0  -0.715063  0  3.093719  0  0  -0.677207  0  3.32661  0  0  -0.696428  0  3.325317  0  0  -0.640438  -0.66344  0  3.327257  0
N  N33  1  0.56106035  0.34678374  0.83077341  1  0  -0.71504  0  3.093741  0  0  -0.677189  0  3.326638  0  0  -0.696409  0  3.325343  0  0  -0.640449  -0.663423  0  3.327287  0
O  O34  1  0.14224704  0.32321524  0.45599403  1  0  -0.755365  0  1.972727  0  0  -0.690407  0  2.221203  0  0  -0.718514  0  2.213867  0  0  -0.397563  -0.670621  0  2.225645  0
O  O35  1  0.85775671  0.67678681  0.54400364  1  0  -0.755384  0  1.972694  0  0  -0.69042  0  2.221178  0  0  -0.718515  0  2.213813  0  0  -0.39757  -0.670633  0  2.225619  0
O  O36  1  0.82115835  0.83532862  0.09050286  1  0  -0.901128  0  1.807794  0  0  -0.846867  0  1.989773  0  0  -0.86666  0  1.959171  0  0  -0.649947  -0.832642  0  2.011345  0
O  O37  1  0.17884114  0.16467219  0.90949664  1  0  -0.901128  0  1.807783  0  0  -0.846865  0  1.989748  0  0  -0.866656  0  1.959148  0  0  -0.649942  -0.83264  0  2.011322  0
O  O38  1  0.22439329  0.27726621  0.17771694  1  0  -0.700287  0  2.006372  0  0  -0.63428  0  2.23815  0  0  -0.660092  0  2.228269  0  0  -0.352061  -0.616221  0  2.244417  0
O  O39  1  0.77560627  0.72273334  0.82228394  1  0  -0.700292  0  2.006299  0  0  -0.63429  0  2.238099  0  0  -0.660093  0  2.228196  0  0  -0.352062  -0.61623  0  2.244366  0
O  O40  1  0.26151852  0.82874740  0.89407798  1  0  -0.661575  0  1.998265  0  0  -0.600759  0  2.227323  0  0  -0.626855  0  2.218978  0  0  -0.32953  -0.582546  0  2.23259  0
O  O41  1  0.73848250  0.17125214  0.10592355  1  0  -0.661537  0  1.998285  0  0  -0.600724  0  2.227334  0  0  -0.62682  0  2.218988  0  0  -0.329498  -0.582512  0  2.232602  0
O  O42  1  0.21533250  0.57939349  0.83708849  1  0  -0.752008  0  1.971133  0  0  -0.682248  0  2.209814  0  0  -0.708869  0  2.200226  0  0  -0.402189  -0.663449  0  2.215835  0
O  O43  1  0.78466850  0.42060605  0.16291065  1  0  -0.752013  0  1.971172  0  0  -0.68225  0  2.209867  0  0  -0.708871  0  2.200277  0  0  -0.402204  -0.663451  0  2.215887  0
