# generated using pymatgen
data_Zn4H18C41O30
_symmetry_space_group_name_H-M   'P 1'
_cell_length_a   15.19724569
_cell_length_b   20.09035982
_cell_length_c   22.66502962
_cell_angle_alpha   90.14173991
_cell_angle_beta   89.27546473
_cell_angle_gamma   89.65817388
_symmetry_Int_Tables_number   1
_chemical_formula_structural   Zn4H18C41O30
_chemical_formula_sum   'Zn8 H36 C82 O60'
_cell_volume   6919.34563962
_cell_formula_units_Z   2
loop_
 _symmetry_equiv_pos_site_id
 _symmetry_equiv_pos_as_xyz
  1  'x, y, z'
loop_
 _atom_site_type_symbol
 _atom_site_label
 _atom_site_symmetry_multiplicity
 _atom_site_fract_x
 _atom_site_fract_y
 _atom_site_fract_z
 _atom_site_occupancy
 _atom_site_pbe_bader_charge
 _atom_site_pbe_bader_spin_density
 _atom_site_pbe_cm5_charge
 _atom_site_pbe_ddec_charge
 _atom_site_pbe_ddec_spin_density
 _atom_site_pbe_ddec_sum_bond_order
 _atom_site_pbe_magmom
Zn  Zn0  1  0.43077172  0.41696623  0.00018233  1  1.325463  0  0.684683  0.977811  0  2.324887  0
Zn  Zn1  1  0.42945723  0.91772912  0.49700038  1  1.319039  0  0.681101  0.974537  0  2.333869  0
Zn  Zn2  1  0.41948260  0.57587314  0.99505992  1  1.315448  0  0.679221  0.97026  0  2.345833  0
Zn  Zn3  1  0.41518222  0.07682614  0.49820020  1  1.323026  0  0.684742  0.982095  0  2.308537  0
Zn  Zn4  1  0.57626741  0.50545483  0.92873995  1  1.323398  0  0.687296  0.980563  0  2.353953  0
Zn  Zn5  1  0.57193072  0.50333716  0.06913497  1  1.317309  0  0.681117  0.975831  0  2.348936  0
Zn  Zn6  1  0.57474728  0.00631620  0.42842541  1  1.319145  0  0.683659  0.975823  0  2.361176  0
Zn  Zn7  1  0.57108659  0.00335657  0.56771010  1  1.315142  0  0.678749  0.971609  0  2.355456  0
H  H8  1  0.85166787  0.44634447  0.06119125  1  0.062175  0  0.103777  0.102858  0  1.020909  0
H  H9  1  0.75312714  0.12403846  0.43433117  1  0.124632  0  0.128296  0.096715  0  0.975206  0
H  H10  1  0.50151822  0.82373519  0.93644013  1  0.007782  0  0.098992  0.012327  0  0.986113  0
H  H11  1  0.30653731  0.63029544  0.12118373  1  0.109486  0  0.110792  0.062999  0  0.984017  0
H  H12  1  0.49737238  0.32276771  0.43682259  1  0.016279  0  0.098983  0.012383  0  0.984632  0
H  H13  1  0.31361700  0.12612453  0.62061799  1  0.10472  0  0.112836  0.069154  0  0.990854  0
H  H14  1  0.52943060  0.62526707  0.62483958  1  0.59053  0  0.335021  0.364774  0  0.903321  0
H  H15  1  0.74103245  0.75160719  0.27067865  1  0.61874  0  0.336045  0.366309  0  0.9012  0
H  H16  1  0.52870959  0.12370299  0.12595429  1  0.605473  0  0.335498  0.365481  0  0.902294  0
H  H17  1  0.73957085  0.25541961  0.77654780  1  0.626075  0  0.33539  0.3643  0  0.903135  0
H  H18  1  0.47907365  0.37176625  0.37558908  1  0.615258  0  0.326705  0.34333  0  0.922736  0
H  H19  1  0.84902262  0.94380882  0.55893988  1  0.037518  0  0.105887  0.103545  0  1.015752  0
H  H20  1  0.25184115  0.22442493  0.72432304  1  0.64807  0  0.303019  0.337883  0  0.997331  0
H  H21  1  0.48181844  0.87241243  0.87537776  1  0.621662  0  0.327306  0.344574  0  0.921232  0
H  H22  1  0.25115616  0.73515460  0.22137249  1  0.647357  0  0.303915  0.339316  0  0.993889  0
H  H23  1  0.53596385  0.17365295  0.06335740  1  0.000828  0  0.09471  0.004825  0  0.980468  0
H  H24  1  0.74786792  0.31447995  0.83094593  1  -0.014702  0  0.095459  0.004737  0  0.98456  0
H  H25  1  0.52949327  0.67496157  0.56236739  1  -0.019674  0  0.094861  0.004185  0  0.9813  0
H  H26  1  0.75290844  0.81109898  0.32450831  1  0.01183  0  0.095806  0.005414  0  0.984214  0
H  H27  1  0.53586660  0.42340255  0.19142843  1  0.645168  0  0.313224  0.36054  0  0.954773  0
H  H28  1  0.37300934  0.33142920  0.87788405  1  0.645368  0  0.314077  0.359064  0  0.948832  0
H  H29  1  0.53151237  0.92472520  0.69038016  1  0.627596  0  0.31313  0.360386  0  0.95433  0
H  H30  1  0.49566951  0.59360617  0.73126597  1  0.634026  0  0.321433  0.367545  0  0.950303  0
H  H31  1  0.37930834  0.83560594  0.37523129  1  0.642949  0  0.315357  0.360608  0  0.947049  0
H  H32  1  0.21743152  0.57994488  0.96702362  1  0.62749  0  0.310471  0.358122  0  0.970228  0
H  H33  1  0.10585435  0.10772764  0.43930610  1  0.649436  0  0.307387  0.355288  0  0.973019  0
H  H34  1  0.12204654  0.35736822  0.09644041  1  0.632014  0  0.334419  0.368526  0  0.886768  0
H  H35  1  0.12750853  0.85729735  0.59798618  1  0.627307  0  0.339641  0.376118  0  0.87567  0
H  H36  1  0.94812410  0.65304298  0.91010198  1  0.646466  0  0.301098  0.337076  0  0.995455  0
H  H37  1  0.93046224  0.16143844  0.40756766  1  0.657854  0  0.303939  0.345562  0  0.981643  0
H  H38  1  0.66801621  0.69679514  0.18347926  1  0.654157  0  0.321032  0.367201  0  0.952674  0
H  H39  1  0.48687319  0.09295618  0.23151636  1  0.637059  0  0.32147  0.367724  0  0.949186  0
H  H40  1  0.67079447  0.19947893  0.68846983  1  0.652266  0  0.319823  0.365203  0  0.955846  0
H  H41  1  0.93614047  0.37401290  0.07784999  1  0.620806  0  0.339129  0.376162  0  0.87569  0
H  H42  1  0.93481675  0.87631447  0.58427592  1  0.605841  0  0.34232  0.379893  0  0.871612  0
H  H43  1  0.74784400  0.62241779  0.93839278  1  0.075338  0  0.11012  0.066027  0  0.980793  0
C  C44  1  0.47503750  0.62356531  0.11058118  1  1.600536  0  0.235143  0.64187  0  4.131618  0
C  C45  1  0.53647577  0.73902613  0.23712061  1  0.051333  0  -0.012524  -0.10685  0  3.971325  0
C  C46  1  0.49984591  0.21562598  0.24113420  1  0.082599  0  -0.011357  -0.103171  0  3.971753  0
C  C47  1  0.53640389  0.23758165  0.74140492  1  0.056384  0  -0.012451  -0.105595  0  3.971676  0
C  C48  1  0.49665702  0.66662864  0.78566109  1  0.595044  0  0.090913  0.259891  0  4.031597  0
C  C49  1  0.54201566  0.69688703  0.18571286  1  0.599944  0  0.088296  0.261625  0  4.030936  0
C  C50  1  0.48869073  0.16593269  0.28594959  1  0.576411  0  0.090376  0.259676  0  4.032469  0
C  C51  1  0.54489288  0.19686865  0.68934548  1  0.594914  0  0.087186  0.25866  0  4.033335  0
C  C52  1  0.49927101  0.75278412  0.86152621  1  -0.029668  0  -0.034406  -0.139705  0  4.054426  0
C  C53  1  0.38148932  0.69335441  0.18154617  1  0.002928  0  -0.036733  -0.141185  0  4.043894  0
C  C54  1  0.49316459  0.25186580  0.36186671  1  0.040676  0  -0.035416  -0.141378  0  4.05609  0
C  C55  1  0.49616528  0.63017316  0.88966802  1  1.617609  0  0.233397  0.646154  0  4.158531  0
C  C56  1  0.38480108  0.18893246  0.68375053  1  0.027292  0  -0.036439  -0.142044  0  4.037632  0
C  C57  1  0.49646146  0.80290302  0.81810877  1  0.578209  0  0.105604  0.268642  0  3.995492  0
C  C58  1  0.37426396  0.73729606  0.23068065  1  0.631824  0  0.112892  0.291811  0  3.987367  0
C  C59  1  0.49311636  0.30206231  0.31842891  1  0.514505  0  0.103952  0.26622  0  3.99879  0
C  C60  1  0.37455546  0.23090986  0.73404689  1  0.597829  0  0.11286  0.292789  0  3.991455  0
C  C61  1  0.16558532  0.48503392  0.01733915  1  0.064518  0  -0.051604  -0.309918  0  3.96705  0
C  C62  1  0.16510606  0.98446805  0.51807451  1  0.047401  0  -0.038225  -0.261835  0  3.924916  0
C  C63  1  0.83319436  0.52559881  0.00102090  1  -0.036844  0  -0.005069  -0.006887  0  3.995883  0
C  C64  1  0.83286679  0.02414612  0.50045901  1  -0.040346  0  -0.008504  -0.022452  0  3.979145  0
C  C65  1  0.96566568  0.57997187  0.96093126  1  0.67748  0  0.126774  0.332394  0  3.965228  0
C  C66  1  0.48239441  0.12485659  0.61126415  1  1.589598  0  0.234568  0.639376  0  4.137319  0
C  C67  1  0.96822492  0.07863815  0.46172888  1  0.704695  0  0.12332  0.338558  0  4.022681  0
C  C68  1  0.87190643  0.57547691  0.96440597  1  -0.016225  0  -0.049449  -0.184133  0  4.035529  0
C  C69  1  0.87307299  0.07501865  0.46439620  1  0.066971  0  -0.046026  -0.166342  0  4.047648  0
C  C70  1  0.88448200  0.48235173  0.03263877  1  -0.02854  0  -0.104296  -0.188305  0  4.00236  0
C  C71  1  0.88336237  0.98032083  0.53164222  1  0.01995  0  -0.094413  -0.165024  0  3.98467  0
C  C72  1  0.50784196  0.37841062  0.88409243  1  1.535044  0  0.23123  0.630716  0  4.143731  0
C  C73  1  0.51720325  0.36685187  0.10645421  1  1.565675  0  0.228654  0.623877  0  4.146917  0
C  C74  1  0.51615880  0.87810001  0.38237940  1  1.557669  0  0.231534  0.629162  0  4.147156  0
C  C75  1  0.50953893  0.86828112  0.60582595  1  1.540715  0  0.228626  0.625207  0  4.148607  0
C  C76  1  0.97785662  0.48340851  0.02723826  1  0.060026  0  -0.01088  0.031038  0  4.096955  0
C  C77  1  0.48795303  0.12915121  0.39007179  1  1.641438  0  0.233402  0.645974  0  4.156285  0
C  C78  1  0.97746927  0.98063113  0.52749927  1  0.112151  0  -0.016446  0.01895  0  4.105177  0
C  C79  1  0.02019606  0.53375954  0.99218545  1  0.054094  0  -0.027712  -0.159109  0  3.930494  0
C  C80  1  0.02027815  0.03098878  0.49297090  1  0.001594  0  -0.038239  -0.189001  0  3.997062  0
C  C81  1  0.11421102  0.53570025  0.98998164  1  0.579745  0  0.112957  0.320127  0  4.012729  0
C  C82  1  0.11397984  0.03302733  0.48923368  1  0.592256  0  0.108041  0.314895  0  4.040475  0
C  C83  1  0.12122491  0.43423394  0.04951155  1  0.515215  0  0.08638  0.23755  0  4.08441  0
C  C84  1  0.12203685  0.93406107  0.55009523  1  0.562968  0  0.09329  0.236962  0  4.07258  0
C  C85  1  0.02982202  0.43487862  0.05492668  1  0.501268  0  0.042142  0.077565  0  4.106555  0
C  C86  1  0.02965663  0.93263781  0.55508368  1  0.41828  0  0.052944  0.096459  0  4.094549  0
C  C87  1  0.26193160  0.48515504  0.01040683  1  1.480824  0  0.223046  0.630912  0  4.136024  0
C  C88  1  0.50204277  0.28490208  0.25743701  1  -0.030276  0  -0.010366  -0.094809  0  3.913066  0
C  C89  1  0.26289591  0.98638753  0.51299975  1  1.605025  0  0.233149  0.663826  0  4.119743  0
C  C90  1  0.73575583  0.51528157  0.00238564  1  1.588489  0  0.235408  0.616065  0  4.152206  0
C  C91  1  0.73530497  0.01510470  0.50153374  1  1.569644  0  0.233344  0.614109  0  4.154524  0
C  C92  1  0.49834907  0.68492398  0.84463302  1  0.025641  0  -0.013025  -0.126695  0  3.922573  0
C  C93  1  0.46581117  0.67266458  0.16021615  1  -0.030694  0  -0.021701  -0.15551  0  3.947188  0
C  C94  1  0.48970051  0.18407733  0.34504118  1  0.009789  0  -0.012772  -0.126133  0  3.919775  0
C  C95  1  0.47036667  0.17169983  0.66244879  1  -0.024191  0  -0.018689  -0.148002  0  3.942827  0
C  C96  1  0.52269926  0.31491224  0.15259132  1  0.004227  0  -0.03788  -0.209424  0  3.984032  0
C  C97  1  0.51866042  0.32302780  0.84138812  1  0.029809  0  -0.038082  -0.207483  0  3.987337  0
C  C98  1  0.51751366  0.81620068  0.65171566  1  0.04782  0  -0.037827  -0.209982  0  3.983995  0
C  C99  1  0.45048660  0.25428645  0.76456234  1  0.044564  0  -0.011814  -0.102095  0  3.912695  0
C  C100  1  0.52448418  0.82422468  0.33776912  1  -0.021455  0  -0.035528  -0.203398  0  3.982048  0
C  C101  1  0.51345362  0.19832641  0.18051855  1  0.42151  0  0.089136  0.238717  0  4.011354  0
C  C102  1  0.61155396  0.26079603  0.77253046  1  0.420976  0  0.090799  0.240606  0  4.005649  0
C  C103  1  0.51420656  0.69951014  0.67980644  1  0.406812  0  0.088868  0.237253  0  4.011906  0
C  C104  1  0.61317461  0.76051509  0.26744445  1  0.430955  0  0.090211  0.239422  0  4.00909  0
C  C105  1  0.52617908  0.24609785  0.13698160  1  0.012902  0  -0.035272  -0.115775  0  4.063364  0
C  C106  1  0.60410476  0.30326842  0.82103705  1  0.012108  0  -0.036135  -0.11861  0  4.063249  0
C  C107  1  0.52223018  0.74750753  0.63594433  1  0.066344  0  -0.034958  -0.115943  0  4.063407  0
C  C108  1  0.60849226  0.80268375  0.31635951  1  0.064135  0  -0.035063  -0.116564  0  4.061942  0
C  C109  1  0.51540009  0.33419433  0.21200498  1  0.643368  0  0.106558  0.290822  0  4.009866  0
C  C110  1  0.50365476  0.78586560  0.75696182  1  0.02513  0  -0.009485  -0.095108  0  3.909868  0
C  C111  1  0.44325703  0.29478910  0.81695781  1  0.598405  0  0.106817  0.290428  0  4.015915  0
C  C112  1  0.51320250  0.83535424  0.71129704  1  0.565722  0  0.106745  0.291278  0  4.006976  0
C  C113  1  0.44730528  0.79880117  0.31327061  1  0.61826  0  0.105857  0.287736  0  4.017083  0
C  C114  1  0.82013506  0.62408686  0.93350151  1  0.82121  0  0.074228  0.251161  0  3.977363  0
C  C115  1  0.82498482  0.12316838  0.43396436  1  0.595869  0  0.069829  0.216079  0  3.889816  0
C  C116  1  0.51104192  0.77010142  0.92376235  1  0.945433  0  0.092607  0.275071  0  4.015199  0
C  C117  1  0.30093139  0.66834731  0.15620127  1  0.814015  0  0.086015  0.263989  0  3.941816  0
C  C118  1  0.50646163  0.26912308  0.42400007  1  0.933492  0  0.092364  0.275249  0  4.012937  0
C  C119  1  0.30598628  0.16231247  0.65703366  1  0.833881  0  0.087963  0.265926  0  3.923125  0
C  C120  1  0.55742928  0.22460693  0.07811688  1  0.965669  0  0.091429  0.276214  0  4.023097  0
C  C121  1  0.45184370  0.75851759  0.26066669  1  0.030191  0  -0.01009  -0.096663  0  3.906336  0
C  C122  1  0.68297263  0.31909934  0.85528338  1  0.978208  0  0.091375  0.276151  0  4.017178  0
C  C123  1  0.55010452  0.72645492  0.57621957  1  0.963174  0  0.092004  0.278034  0  4.019458  0
C  C124  1  0.68888647  0.81646819  0.34975812  1  0.935337  0  0.091242  0.274482  0  4.018241  0
C  C125  1  0.50349742  0.71655376  0.74067795  1  0.046273  0  -0.010645  -0.100097  0  3.9694  0
O  O126  1  0.49933925  0.49906747  0.99873208  1  -1.234907  0  -0.573403  -1.033348  0  2.53915  0
O  O127  1  0.46578650  0.85593984  0.55986288  1  -1.16173  0  -0.300446  -0.518697  0  2.338398  0
O  O128  1  0.29743706  0.54077765  0.99303121  1  -1.182483  0  -0.31968  -0.576246  0  2.387394  0
O  O129  1  0.29932979  0.04233294  0.52237061  1  -1.164528  0  -0.312074  -0.553709  0  2.336637  0
O  O130  1  0.69970001  0.51016460  0.95232795  1  -1.169976  0  -0.304449  -0.538145  0  2.358829  0
O  O131  1  0.69816032  0.51096899  0.05299792  1  -1.1604  0  -0.31136  -0.538621  0  2.302203  0
O  O132  1  0.69775202  0.01902063  0.45180953  1  -1.167083  0  -0.304959  -0.541036  0  2.35919  0
O  O133  1  0.69824046  0.00339391  0.55134990  1  -1.159057  0  -0.312583  -0.540851  0  2.301034  0
O  O134  1  0.42581356  0.62435017  0.92032720  1  -1.162997  0  -0.314676  -0.542889  0  2.303994  0
O  O135  1  0.43183956  0.63500161  0.06360328  1  -1.158618  0  -0.306437  -0.545596  0  2.332212  0
O  O136  1  0.41897418  0.12311720  0.42207037  1  -1.157417  0  -0.31051  -0.539249  0  2.293852  0
O  O137  1  0.49754861  0.99996678  0.49783854  1  -1.234819  0  -0.573081  -1.034681  0  2.53479  0
O  O138  1  0.44178787  0.13826208  0.56392118  1  -1.157333  0  -0.303883  -0.53983  0  2.329401  0
O  O139  1  0.55038919  0.42422888  0.11970287  1  -1.178948  0  -0.312163  -0.56341  0  2.361898  0
O  O140  1  0.55794198  0.42822710  0.87821446  1  -1.16017  0  -0.302489  -0.520214  0  2.357567  0
O  O141  1  0.54385889  0.92534042  0.61850017  1  -1.172794  0  -0.312498  -0.563647  0  2.370025  0
O  O142  1  0.56685543  0.92780570  0.37772746  1  -1.156056  0  -0.30229  -0.51988  0  2.347619  0
O  O143  1  0.30634189  0.43249334  0.02002710  1  -1.153784  0  -0.307035  -0.519041  0  2.334588  0
O  O144  1  0.30219399  0.93193972  0.49947201  1  -1.153313  0  -0.312882  -0.541728  0  2.303039  0
O  O145  1  0.48724294  0.60080377  0.77386855  1  -1.131276  0  -0.353612  -0.436021  0  2.277791  0
O  O146  1  0.61959219  0.68094894  0.15889099  1  -1.141332  0  -0.353207  -0.434762  0  2.289933  0
O  O147  1  0.47680729  0.10041745  0.27393709  1  -1.134395  0  -0.352776  -0.434777  0  2.278042  0
O  O148  1  0.52388618  0.57343031  0.12066150  1  -1.167778  0  -0.310674  -0.540097  0  2.345797  0
O  O149  1  0.62364362  0.18333346  0.66294658  1  -1.139542  0  -0.355421  -0.436516  0  2.288181  0
O  O150  1  0.99565803  0.38456603  0.09003733  1  -1.147021  0  -0.367416  -0.465317  0  2.288952  0
O  O151  1  0.99797321  0.88100779  0.58924179  1  -1.125942  0  -0.361934  -0.459201  0  2.288906  0
O  O152  1  0.85321584  0.66890791  0.90151906  1  -1.100805  0  -0.289496  -0.389704  0  2.148787  0
O  O153  1  0.86225224  0.17031851  0.40284611  1  -1.134532  0  -0.309636  -0.349578  0  2.283752  0
O  O154  1  0.53259853  0.73076056  0.96241044  1  -1.054195  0  -0.253301  -0.332284  0  2.125948  0
O  O155  1  0.22569253  0.68746568  0.17237764  1  -1.085598  0  -0.273933  -0.372212  0  2.142812  0
O  O156  1  0.52934271  0.22971882  0.46221856  1  -1.053293  0  -0.25217  -0.330382  0  2.130733  0
O  O157  1  0.22970350  0.17821842  0.67372976  1  -1.085066  0  -0.27246  -0.369974  0  2.141203  0
O  O158  1  0.52349852  0.63237461  0.66729846  1  -1.119081  0  -0.340575  -0.446089  0  2.342718  0
O  O159  1  0.56354196  0.59243708  0.89068604  1  -1.150913  0  -0.30766  -0.544296  0  2.338527  0
O  O160  1  0.69238064  0.73382000  0.24794191  1  -1.138195  0  -0.339169  -0.443614  0  2.347272  0
O  O161  1  0.52087859  0.13101450  0.16826435  1  -1.126321  0  -0.340767  -0.446969  0  2.340847  0
O  O162  1  0.69208945  0.23547734  0.75407746  1  -1.144943  0  -0.338926  -0.44127  0  2.344773  0
O  O163  1  0.48776735  0.36759647  0.33301940  1  -1.102162  0  -0.332164  -0.395953  0  2.330257  0
O  O164  1  0.29414819  0.24791639  0.75270606  1  -1.126785  0  -0.323971  -0.396339  0  2.314098  0
O  O165  1  0.48915768  0.86831212  0.83269876  1  -1.112002  0  -0.332022  -0.39645  0  2.327957  0
O  O166  1  0.29516380  0.75800274  0.24891068  1  -1.121328  0  -0.322317  -0.393838  0  2.31232  0
O  O167  1  0.60619363  0.25641901  0.04560753  1  -1.046876  0  -0.253378  -0.323932  0  2.110916  0
O  O168  1  0.68399377  0.33535150  0.90733189  1  -1.04813  0  -0.252798  -0.325953  0  2.121072  0
O  O169  1  0.59517288  0.75908828  0.54199918  1  -1.040488  0  -0.253235  -0.324621  0  2.109407  0
O  O170  1  0.53130058  0.07444489  0.62087265  1  -1.161687  0  -0.312024  -0.540508  0  2.338937  0
O  O171  1  0.69183924  0.83184987  0.40194926  1  -1.044252  0  -0.252339  -0.32399  0  2.116408  0
O  O172  1  0.51907564  0.39837162  0.22802117  1  -1.131899  0  -0.3352  -0.403915  0  2.312992  0
O  O173  1  0.36311193  0.30697857  0.84020048  1  -1.122965  0  -0.332682  -0.40085  0  2.309523  0
O  O174  1  0.51650880  0.89956745  0.72725240  1  -1.103996  0  -0.334926  -0.403503  0  2.310795  0
O  O175  1  0.36797592  0.81286201  0.33690095  1  -1.131032  0  -0.332388  -0.401337  0  2.311234  0
O  O176  1  0.15234564  0.58557369  0.96076690  1  -1.113889  0  -0.330361  -0.400906  0  2.314541  0
O  O177  1  0.15446255  0.07938313  0.45661267  1  -1.140399  0  -0.336991  -0.417077  0  2.280977  0
O  O178  1  0.16653670  0.38534300  0.07704503  1  -1.116922  0  -0.336284  -0.397898  0  2.276466  0
O  O179  1  0.16956300  0.88684956  0.57819748  1  -1.110431  0  -0.334261  -0.402484  0  2.259547  0
O  O180  1  0.00113161  0.62711069  0.92779385  1  -1.125807  0  -0.314463  -0.388319  0  2.305842  0
O  O181  1  0.55574631  0.09181897  0.38941251  1  -1.164348  0  -0.309868  -0.544644  0  2.345304  0
O  O182  1  0.00541120  0.12527762  0.43042542  1  -1.127235  0  -0.298602  -0.473963  0  2.18805  0
O  O183  1  0.44281631  0.37397735  0.92153934  1  -1.167138  0  -0.314531  -0.569163  0  2.338143  0
O  O184  1  0.47607933  0.35419016  0.05947589  1  -1.161802  0  -0.300934  -0.518674  0  2.339626  0
O  O185  1  0.45208526  0.87244103  0.42009996  1  -1.178706  0  -0.310121  -0.560942  0  2.350789  0
