# generated using pymatgen
data_CdH9C15N3O4
_symmetry_space_group_name_H-M   'P 1'
_cell_length_a   9.06496653
_cell_length_b   11.35697491
_cell_length_c   13.61851023
_cell_angle_alpha   95.80433662
_cell_angle_beta   89.99998836
_cell_angle_gamma   89.99992646
_symmetry_Int_Tables_number   1
_chemical_formula_structural   CdH9C15N3O4
_chemical_formula_sum   'Cd4 H36 C60 N12 O16'
_cell_volume   1394.84561750
_cell_formula_units_Z   4
loop_
 _symmetry_equiv_pos_site_id
 _symmetry_equiv_pos_as_xyz
  1  'x, y, z'
loop_
 _atom_site_type_symbol
 _atom_site_label
 _atom_site_symmetry_multiplicity
 _atom_site_fract_x
 _atom_site_fract_y
 _atom_site_fract_z
 _atom_site_occupancy
 _atom_site_hle17_bader_spin_density
 _atom_site_hle17_ddec_charge
 _atom_site_hle17_ddec_spin_density
 _atom_site_hle17_ddec_sum_bond_order
 _atom_site_hle17_magmom
 _atom_site_hse06_10hf_bader_spin_density
 _atom_site_hse06_10hf_ddec_charge
 _atom_site_hse06_10hf_ddec_spin_density
 _atom_site_hse06_10hf_ddec_sum_bond_order
 _atom_site_hse06_10hf_magmom
 _atom_site_hse06_bader_spin_density
 _atom_site_hse06_ddec_charge
 _atom_site_hse06_ddec_spin_density
 _atom_site_hse06_ddec_sum_bond_order
 _atom_site_hse06_magmom
 _atom_site_pbe_bader_spin_density
 _atom_site_pbe_cm5_charge
 _atom_site_pbe_ddec_charge
 _atom_site_pbe_ddec_spin_density
 _atom_site_pbe_ddec_sum_bond_order
 _atom_site_pbe_magmom
Cd  Cd0  1  0.05140959  0.40480621  0.60835639  1  0  1.159734  0  1.593388  0  0  0.977507  0  2.030547  0  0  1.037629  0  1.975981  0  0  0.786809  0.935041  0  2.067249  0
Cd  Cd1  1  0.55140944  0.09519416  0.89164407  1  0  1.159742  0  1.593351  0  0  0.977511  0  2.03051  0  0  1.037635  0  1.975937  0  0  0.786807  0.935041  0  2.067215  0
Cd  Cd2  1  0.94859094  0.59519471  0.39164396  1  0  1.159732  0  1.593337  0  0  0.977511  0  2.030483  0  0  1.037631  0  1.975921  0  0  0.786803  0.935041  0  2.067186  0
Cd  Cd3  1  0.44859109  0.90480587  0.10835621  1  0  1.159716  0  1.593343  0  0  0.977503  0  2.030494  0  0  1.037621  0  1.975931  0  0  0.786794  0.93503  0  2.067198  0
H  H4  1  0.46815584  0.32713094  0.40783887  1  0  0.107834  0  0.942519  0  0  0.115534  0  1.008176  0  0  0.119545  0  1.004998  0  0  0.105657  0.112821  0  1.0102  0
H  H5  1  0.96815676  0.17286903  0.09216120  1  0  0.10782  0  0.942465  0  0  0.11552  0  1.008124  0  0  0.119532  0  1.004946  0  0  0.105635  0.112808  0  1.010146  0
H  H6  1  0.53184248  0.67286821  0.59216134  1  0  0.107813  0  0.942485  0  0  0.115514  0  1.008146  0  0  0.119527  0  1.004965  0  0  0.105631  0.112803  0  1.010165  0
H  H7  1  0.03184046  0.82713278  0.90783995  1  0  0.107826  0  0.942472  0  0  0.115517  0  1.008141  0  0  0.11953  0  1.004961  0  0  0.105633  0.112806  0  1.01016  0
H  H8  1  0.27231702  0.66253434  0.36051029  1  0  0.114457  0  0.960182  0  0  0.119832  0  1.032008  0  0  0.123943  0  1.02823  0  0  0.107386  0.116813  0  1.034791  0
H  H9  1  0.77231655  0.83746644  0.13948992  1  0  0.114497  0  0.960192  0  0  0.119857  0  1.032037  0  0  0.123966  0  1.028258  0  0  0.107405  0.116837  0  1.03482  0
H  H10  1  0.72768131  0.33746212  0.63948604  1  0  0.114452  0  0.960235  0  0  0.119856  0  1.032018  0  0  0.123964  0  1.028236  0  0  0.107395  0.116836  0  1.034801  0
H  H11  1  0.22768288  0.16253537  0.86051049  1  0  0.114511  0  0.960193  0  0  0.119859  0  1.032068  0  0  0.123967  0  1.028291  0  0  0.107403  0.116841  0  1.03485  0
H  H12  1  0.64368642  0.53522763  0.18623641  1  0  0.108737  0  0.956757  0  0  0.120541  0  1.016368  0  0  0.123835  0  1.013718  0  0  0.110497  0.118193  0  1.018027  0
H  H13  1  0.14368531  0.96477150  0.31376296  1  0  0.108747  0  0.956756  0  0  0.120551  0  1.016368  0  0  0.123844  0  1.013718  0  0  0.110505  0.118204  0  1.018027  0
H  H14  1  0.35631742  0.46477064  0.81376447  1  0  0.10874  0  0.956762  0  0  0.120545  0  1.016377  0  0  0.123838  0  1.013728  0  0  0.11051  0.118198  0  1.018032  0
H  H15  1  0.85631632  0.03522852  0.68623512  1  0  0.10872  0  0.956776  0  0  0.120527  0  1.01639  0  0  0.12382  0  1.013741  0  0  0.110493  0.11818  0  1.018049  0
H  H16  1  0.72764938  0.33520156  0.19083926  1  0  0.100799  0  0.898761  0  0  0.117728  0  0.957082  0  0  0.118894  0  0.954866  0  0  0.124301  0.116816  0  0.957833  0
H  H17  1  0.22764876  0.16479688  0.30915999  1  0  0.1008  0  0.898781  0  0  0.117727  0  0.957098  0  0  0.118893  0  0.954881  0  0  0.124295  0.116816  0  0.957848  0
H  H18  1  0.27235336  0.66479758  0.80915949  1  0  0.100787  0  0.898816  0  0  0.117717  0  0.957121  0  0  0.118883  0  0.954906  0  0  0.124291  0.116804  0  0.957871  0
H  H19  1  0.77235177  0.83520225  0.69083875  1  0  0.100781  0  0.898754  0  0  0.117722  0  0.957084  0  0  0.118889  0  0.954865  0  0  0.124293  0.11681  0  0.957834  0
H  H20  1  0.78452326  0.34473927  0.31601333  1  0  0.096266  0  0.950869  0  0  0.105589  0  1.027362  0  0  0.106402  0  1.025349  0  0  0.119419  0.104847  0  1.028209  0
H  H21  1  0.28452269  0.15526089  0.18398678  1  0  0.096284  0  0.950852  0  0  0.105609  0  1.027338  0  0  0.10642  0  1.025326  0  0  0.119424  0.104867  0  1.028184  0
H  H22  1  0.21547728  0.65525989  0.68398762  1  0  0.096301  0  0.950842  0  0  0.105622  0  1.02733  0  0  0.106435  0  1.025319  0  0  0.119431  0.10488  0  1.028177  0
H  H23  1  0.71547785  0.84473913  0.81601276  1  0  0.096292  0  0.95083  0  0  0.10563  0  1.027322  0  0  0.106442  0  1.025309  0  0  0.119437  0.104888  0  1.028167  0
H  H24  1  0.55517396  0.84982508  0.35076514  1  0  0.122652  0  0.958864  0  0  0.133463  0  1.014403  0  0  0.136299  0  1.013421  0  0  0.111404  0.131313  0  1.015379  0
H  H25  1  0.05517230  0.65017505  0.14923578  1  0  0.122664  0  0.958866  0  0  0.133474  0  1.014409  0  0  0.13631  0  1.013426  0  0  0.111405  0.131322  0  1.015385  0
H  H26  1  0.44482658  0.15017319  0.64923500  1  0  0.122662  0  0.958901  0  0  0.133477  0  1.014432  0  0  0.136321  0  1.013438  0  0  0.111408  0.131324  0  1.01541  0
H  H27  1  0.94483044  0.34982677  0.85076611  1  0  0.122633  0  0.958765  0  0  0.133445  0  1.014307  0  0  0.136278  0  1.013328  0  0  0.111381  0.131293  0  1.015286  0
H  H28  1  0.72091860  0.87019468  0.49680610  1  0  0.097393  0  0.943398  0  0  0.109509  0  1.000259  0  0  0.112746  0  0.998548  0  0  0.102335  0.107127  0  1.001629  0
H  H29  1  0.22091923  0.62980703  0.00319419  1  0  0.097414  0  0.943288  0  0  0.109546  0  1.000136  0  0  0.112783  0  0.998424  0  0  0.102377  0.107164  0  1.001506  0
H  H30  1  0.27908083  0.12980446  0.50319338  1  0  0.097391  0  0.943388  0  0  0.109506  0  1.000249  0  0  0.112744  0  0.998537  0  0  0.102334  0.107122  0  1.001618  0
H  H31  1  0.77908020  0.37019213  0.99680749  1  0  0.097409  0  0.943267  0  0  0.109544  0  1.000116  0  0  0.112782  0  0.998405  0  0  0.102358  0.107162  0  1.001487  0
H  H32  1  0.85346579  0.06069480  0.54600205  1  0  0.099606  0  0.983194  0  0  0.107161  0  1.047045  0  0  0.110515  0  1.044717  0  0  0.101369  0.104545  0  1.04913  0
H  H33  1  0.35346578  0.43930524  0.95399834  1  0  0.099597  0  0.983212  0  0  0.107153  0  1.047061  0  0  0.110507  0  1.044733  0  0  0.10137  0.104535  0  1.049147  0
H  H34  1  0.14653364  0.93930347  0.45399957  1  0  0.099602  0  0.98325  0  0  0.107145  0  1.047094  0  0  0.110507  0  1.044771  0  0  0.10137  0.104528  0  1.04918  0
H  H35  1  0.64653254  0.56069477  0.04599973  1  0  0.099578  0  0.983241  0  0  0.107133  0  1.047075  0  0  0.11049  0  1.04475  0  0  0.10137  0.104518  0  1.049158  0
H  H36  1  0.82399617  0.23360974  0.45303910  1  0  0.126086  0  0.960024  0  0  0.132908  0  1.024782  0  0  0.1365  0  1.022596  0  0  0.108208  0.130266  0  1.026614  0
H  H37  1  0.32399546  0.26639037  0.04696027  1  0  0.12608  0  0.960026  0  0  0.132918  0  1.024764  0  0  0.13651  0  1.022577  0  0  0.1082  0.130276  0  1.026595  0
H  H38  1  0.17600216  0.76639031  0.54696265  1  0  0.126077  0  0.960028  0  0  0.132899  0  1.024784  0  0  0.136491  0  1.022596  0  0  0.108196  0.130256  0  1.026615  0
H  H39  1  0.67600397  0.73360876  0.95303847  1  0  0.126079  0  0.960051  0  0  0.132904  0  1.0248  0  0  0.136497  0  1.022611  0  0  0.108194  0.130261  0  1.026631  0
C  C40  1  0.56933322  0.41962805  0.29310346  1  0  0.061362  0  3.750437  0  0  0.084288  0  4.001661  0  0  0.080263  0  4.02447  0  0  -0.012516  0.086747  0  3.9847  0
C  C41  1  0.06933276  0.08037146  0.20689663  1  0  0.061416  0  3.750385  0  0  0.084335  0  4.001618  0  0  0.080308  0  4.024427  0  0  -0.012486  0.086793  0  3.984663  0
C  C42  1  0.43066842  0.58037023  0.70689742  1  0  0.06139  0  3.75029  0  0  0.084313  0  4.001533  0  0  0.080287  0  4.024343  0  0  -0.012496  0.086766  0  3.984584  0
C  C43  1  0.93066557  0.91963034  0.79310305  1  0  0.061338  0  3.750263  0  0  0.084287  0  4.001507  0  0  0.080259  0  4.024315  0  0  -0.012523  0.086741  0  3.984555  0
C  C44  1  0.46702506  0.40526947  0.36746249  1  0  -0.093827  0  3.67134  0  0  -0.135053  0  3.928529  0  0  -0.132281  0  3.946422  0  0  -0.082056  -0.136847  0  3.916599  0
C  C45  1  0.96702499  0.09473050  0.13253758  1  0  -0.093819  0  3.671294  0  0  -0.135038  0  3.928489  0  0  -0.132268  0  3.946385  0  0  -0.082042  -0.136831  0  3.91656  0
C  C46  1  0.53297437  0.59472968  0.63253772  1  0  -0.093749  0  3.671255  0  0  -0.134985  0  3.928433  0  0  -0.132214  0  3.946328  0  0  -0.082014  -0.136777  0  3.916504  0
C  C47  1  0.03297334  0.90527041  0.86746203  1  0  -0.093803  0  3.671229  0  0  -0.135011  0  3.928409  0  0  -0.132239  0  3.946302  0  0  -0.082024  -0.136803  0  3.916481  0
C  C48  1  0.35977142  0.49224064  0.39238414  1  0  -0.071083  0  3.778938  0  0  -0.043767  0  4.018763  0  0  -0.054889  0  4.04424  0  0  -0.023384  -0.037053  0  4.002234  0
C  C49  1  0.85977260  0.00775943  0.10761448  1  0  -0.071125  0  3.778857  0  0  -0.043813  0  4.018701  0  0  -0.054934  0  4.044177  0  0  -0.023375  -0.037099  0  4.002173  0
C  C50  1  0.64023022  0.50775674  0.60761593  1  0  -0.071224  0  3.778928  0  0  -0.043874  0  4.018739  0  0  -0.054997  0  4.044215  0  0  -0.023406  -0.037161  0  4.002212  0
C  C51  1  0.14022683  0.99224325  0.89238454  1  0  -0.071057  0  3.778787  0  0  -0.043747  0  4.018622  0  0  -0.054868  0  4.044099  0  0  -0.023372  -0.037032  0  4.002094  0
C  C52  1  0.35478070  0.59387207  0.34238650  1  0  -0.065353  0  3.672407  0  0  -0.104738  0  3.91946  0  0  -0.101047  0  3.937584  0  0  -0.072664  -0.106409  0  3.906977  0
C  C53  1  0.85477902  0.90612773  0.15761289  1  0  -0.065327  0  3.672268  0  0  -0.104707  0  3.919366  0  0  -0.101012  0  3.937486  0  0  -0.072674  -0.10638  0  3.906884  0
C  C54  1  0.64521873  0.40612617  0.65761071  1  0  -0.065277  0  3.672319  0  0  -0.104704  0  3.919381  0  0  -0.101002  0  3.937496  0  0  -0.072681  -0.106376  0  3.906903  0
C  C55  1  0.14521931  0.09387319  0.84238746  1  0  -0.065431  0  3.672333  0  0  -0.104807  0  3.919436  0  0  -0.101113  0  3.937557  0  0  -0.0727  -0.10648  0  3.906955  0
C  C56  1  0.45554114  0.60753864  0.26664882  1  0  -0.042062  0  3.743153  0  0  -0.01353  0  3.973903  0  0  -0.022812  0  3.996828  0  0  -0.010207  -0.007981  0  3.958337  0
C  C57  1  0.95554056  0.89246106  0.23335128  1  0  -0.042131  0  3.743144  0  0  -0.0136  0  3.973911  0  0  -0.022881  0  3.996831  0  0  -0.010242  -0.008043  0  3.958334  0
C  C58  1  0.54446049  0.39245874  0.73335052  1  0  -0.042135  0  3.743106  0  0  -0.013564  0  3.973822  0  0  -0.022848  0  3.996743  0  0  -0.010235  -0.008003  0  3.958232  0
C  C59  1  0.04445997  0.10753985  0.76664760  1  0  -0.042012  0  3.743118  0  0  -0.013497  0  3.973911  0  0  -0.022779  0  3.996832  0  0  -0.010215  -0.007949  0  3.958346  0
C  C60  1  0.56325480  0.52111298  0.24323538  1  0  -0.081588  0  3.659866  0  0  -0.117025  0  3.903059  0  0  -0.114589  0  3.921744  0  0  -0.068474  -0.117384  0  3.889275  0
C  C61  1  0.06325258  0.97888624  0.25676474  1  0  -0.081576  0  3.659865  0  0  -0.117013  0  3.903056  0  0  -0.114581  0  3.921754  0  0  -0.068478  -0.117372  0  3.889273  0
C  C62  1  0.43674794  0.47888440  0.75676469  1  0  -0.081528  0  3.659639  0  0  -0.116984  0  3.902833  0  0  -0.114551  0  3.921526  0  0  -0.068461  -0.117344  0  3.889054  0
C  C63  1  0.93674685  0.02111556  0.74323494  1  0  -0.081556  0  3.659752  0  0  -0.116997  0  3.90296  0  0  -0.114561  0  3.921653  0  0  -0.068462  -0.117355  0  3.889178  0
C  C64  1  0.68920798  0.32939686  0.26664045  1  0  -0.053823  0  3.649536  0  0  -0.13613  0  3.903297  0  0  -0.121809  0  3.915966  0  0  -0.038536  -0.138646  0  3.896201  0
C  C65  1  0.18920737  0.17060251  0.23335962  1  0  -0.053905  0  3.649567  0  0  -0.136205  0  3.90332  0  0  -0.121877  0  3.915979  0  0  -0.038566  -0.13872  0  3.896225  0
C  C66  1  0.31079366  0.67060141  0.73336043  1  0  -0.053924  0  3.649584  0  0  -0.13622  0  3.903337  0  0  -0.121903  0  3.916007  0  0  -0.038576  -0.138734  0  3.89624  0
C  C67  1  0.81079317  0.82939752  0.76663993  1  0  -0.053818  0  3.6494  0  0  -0.136201  0  3.903253  0  0  -0.121869  0  3.91592  0  0  -0.038568  -0.138714  0  3.896157  0
C  C68  1  0.67765154  0.13609322  0.34587450  1  0  0.091331  0  3.791221  0  0  0.066943  0  4.034233  0  0  0.080493  0  4.05939  0  0  0.10683  0.064544  0  4.01927  0
C  C69  1  0.17765285  0.36390617  0.15412557  1  0  0.091373  0  3.791282  0  0  0.066981  0  4.034303  0  0  0.080531  0  4.059461  0  0  0.106847  0.064581  0  4.01934  0
C  C70  1  0.32234568  0.86390770  0.65412658  1  0  0.091294  0  3.791386  0  0  0.066918  0  4.034384  0  0  0.080466  0  4.059543  0  0  0.106844  0.064518  0  4.019421  0
C  C71  1  0.82234548  0.63609298  0.84587391  1  0  0.091337  0  3.791465  0  0  0.06692  0  4.034487  0  0  0.080479  0  4.05965  0  0  0.106834  0.06452  0  4.019525  0
C  C72  1  0.60270927  0.02909134  0.31643963  1  0  0.120929  0  3.825543  0  0  0.116915  0  4.078876  0  0  0.118327  0  4.100557  0  0  0.095026  0.116166  0  4.061828  0
C  C73  1  0.10270929  0.47090813  0.18356118  1  0  0.120925  0  3.825513  0  0  0.116905  0  4.078858  0  0  0.118318  0  4.100538  0  0  0.095014  0.116154  0  4.061811  0
C  C74  1  0.39729126  0.97090782  0.68356131  1  0  0.120962  0  3.825506  0  0  0.116938  0  4.078847  0  0  0.118351  0  4.100531  0  0  0.095023  0.116187  0  4.061801  0
C  C75  1  0.89729234  0.52909102  0.81643976  1  0  0.120899  0  3.825476  0  0  0.116897  0  4.078814  0  0  0.11831  0  4.100491  0  0  0.095014  0.116147  0  4.061769  0
C  C76  1  0.61451774  0.93153319  0.37178195  1  0  -0.11159  0  3.697473  0  0  -0.130979  0  3.945365  0  0  -0.132796  0  3.966021  0  0  -0.080817  -0.130005  0  3.931743  0
C  C77  1  0.11451732  0.56846597  0.12821743  1  0  -0.111613  0  3.697534  0  0  -0.131006  0  3.945437  0  0  -0.132823  0  3.966091  0  0  -0.080809  -0.13003  0  3.931813  0
C  C78  1  0.38548059  0.06846683  0.62821686  1  0  -0.111564  0  3.697492  0  0  -0.130953  0  3.945376  0  0  -0.132773  0  3.966022  0  0  -0.080784  -0.129976  0  3.931752  0
C  C79  1  0.88547990  0.43153585  0.87178520  1  0  -0.111563  0  3.697485  0  0  -0.130958  0  3.945381  0  0  -0.13277  0  3.966036  0  0  -0.080804  -0.129982  0  3.931758  0
C  C80  1  0.70581755  0.94520656  0.45372385  1  0  -0.060077  0  3.739429  0  0  -0.078507  0  3.996704  0  0  -0.081911  0  4.019286  0  0  -0.084994  -0.076112  0  3.981673  0
C  C81  1  0.20581718  0.55479429  0.04627711  1  0  -0.06004  0  3.739319  0  0  -0.078477  0  3.996604  0  0  -0.081883  0  4.019188  0  0  -0.085002  -0.076083  0  3.981574  0
C  C82  1  0.29418077  0.05479171  0.54627703  1  0  -0.060099  0  3.739542  0  0  -0.078533  0  3.996818  0  0  -0.08194  0  4.019406  0  0  -0.085023  -0.076135  0  3.981782  0
C  C83  1  0.79418335  0.44520753  0.95372478  1  0  -0.060112  0  3.739399  0  0  -0.078562  0  3.996699  0  0  -0.081968  0  4.019282  0  0  -0.085031  -0.076168  0  3.981668  0
C  C84  1  0.78130227  0.05255926  0.48185910  1  0  -0.033753  0  3.718596  0  0  -0.051836  0  3.9718  0  0  -0.052175  0  3.993102  0  0  -0.079959  -0.051822  0  3.958181  0
C  C85  1  0.28130128  0.44744267  0.01814115  1  0  -0.033814  0  3.718483  0  0  -0.051904  0  3.971703  0  0  -0.052242  0  3.993006  0  0  -0.080025  -0.051891  0  3.958085  0
C  C86  1  0.21869605  0.94744166  0.51814198  1  0  -0.03376  0  3.718546  0  0  -0.051824  0  3.971733  0  0  -0.052177  0  3.993046  0  0  -0.079969  -0.051812  0  3.958114  0
C  C87  1  0.71869484  0.55255914  0.98186001  1  0  -0.033738  0  3.718463  0  0  -0.051805  0  3.971652  0  0  -0.052149  0  3.992959  0  0  -0.079963  -0.051791  0  3.958034  0
C  C88  1  0.76770480  0.15077267  0.42977908  1  0  -0.13889  0  3.720028  0  0  -0.155792  0  3.972088  0  0  -0.160708  0  3.991223  0  0  -0.088066  -0.152846  0  3.958666  0
C  C89  1  0.26770285  0.34922575  0.07022163  1  0  -0.138904  0  3.720011  0  0  -0.155809  0  3.972058  0  0  -0.160726  0  3.991193  0  0  -0.088048  -0.152862  0  3.958633  0
C  C90  1  0.23229794  0.84922384  0.57022240  1  0  -0.138901  0  3.720038  0  0  -0.155802  0  3.972084  0  0  -0.160716  0  3.99122  0  0  -0.088062  -0.152853  0  3.958661  0
C  C91  1  0.73229879  0.65077427  0.92977644  1  0  -0.138848  0  3.720178  0  0  -0.155744  0  3.972222  0  0  -0.160661  0  3.991358  0  0  -0.088024  -0.152797  0  3.9588  0
C  C92  1  0.24994973  0.47302903  0.47051086  1  0  0.636729  0  3.921821  0  0  0.581967  0  4.213611  0  0  0.616821  0  4.210245  0  0  0.196139  0.558674  0  4.214703  0
C  C93  1  0.74994979  0.02697294  0.02948866  1  0  0.636742  0  3.921799  0  0  0.581982  0  4.21361  0  0  0.616835  0  4.210247  0  0  0.196115  0.558688  0  4.214702  0
C  C94  1  0.75004860  0.52697099  0.52948722  1  0  0.636793  0  3.921736  0  0  0.582025  0  4.213528  0  0  0.616881  0  4.21016  0  0  0.196182  0.558732  0  4.214621  0
C  C95  1  0.25004853  0.97302976  0.97051183  1  0  0.636727  0  3.921753  0  0  0.581981  0  4.213534  0  0  0.616835  0  4.210168  0  0  0.19617  0.558686  0  4.214627  0
C  C96  1  0.44524980  0.71367610  0.21017986  1  0  0.616544  0  3.946359  0  0  0.567857  0  4.235006  0  0  0.602165  0  4.231247  0  0  0.191357  0.544766  0  4.236449  0
C  C97  1  0.94524826  0.78632448  0.28981958  1  0  0.616522  0  3.946491  0  0  0.567832  0  4.235146  0  0  0.602142  0  4.231384  0  0  0.191326  0.544739  0  4.23659  0
C  C98  1  0.55475294  0.28632304  0.78981889  1  0  0.616446  0  3.946416  0  0  0.567756  0  4.235049  0  0  0.602063  0  4.23129  0  0  0.191311  0.544664  0  4.236498  0
C  C99  1  0.05475227  0.21367643  0.71018004  1  0  0.616324  0  3.946555  0  0  0.567647  0  4.235207  0  0  0.601955  0  4.231448  0  0  0.191268  0.544557  0  4.236648  0
N  N100  1  0.53059979  0.04482570  0.22945700  1  0  -0.303236  0  3.200023  0  0  -0.245814  0  3.501365  0  0  -0.261043  0  3.512796  0  0  -0.219846  -0.234559  0  3.490362  0
N  N101  1  0.03059982  0.45517473  0.27054317  1  0  -0.303229  0  3.200036  0  0  -0.245803  0  3.501379  0  0  -0.261032  0  3.512808  0  0  -0.219839  -0.234548  0  3.490376  0
N  N102  1  0.46939964  0.95517434  0.77054401  1  0  -0.303237  0  3.200044  0  0  -0.245814  0  3.501389  0  0  -0.261042  0  3.51282  0  0  -0.219844  -0.234556  0  3.490385  0
N  N103  1  0.96940182  0.54482530  0.72945638  1  0  -0.30326  0  3.200027  0  0  -0.245845  0  3.501387  0  0  -0.261074  0  3.512814  0  0  -0.219848  -0.234591  0  3.490387  0
N  N104  1  0.55586621  0.15211830  0.20483212  1  0  -0.063312  0  2.886805  0  0  -0.082867  0  3.167041  0  0  -0.065781  0  3.183265  0  0  -0.077839  -0.08757  0  3.15986  0
N  N105  1  0.05586530  0.34788121  0.29516797  1  0  -0.063326  0  2.886802  0  0  -0.082885  0  3.167036  0  0  -0.065801  0  3.183259  0  0  -0.077846  -0.087589  0  3.159855  0
N  N106  1  0.44413542  0.84788173  0.79516816  1  0  -0.063344  0  2.8868  0  0  -0.082898  0  3.167039  0  0  -0.065816  0  3.183262  0  0  -0.077858  -0.087604  0  3.159858  0
N  N107  1  0.94413634  0.65211794  0.70483224  1  0  -0.063253  0  2.886883  0  0  -0.082811  0  3.167113  0  0  -0.065716  0  3.183337  0  0  -0.077819  -0.087515  0  3.159933  0
N  N108  1  0.64320018  0.20806084  0.27418172  1  0  0.019354  0  3.535365  0  0  0.131056  0  3.72887  0  0  0.090312  0  3.788976  0  0  -0.119217  0.137676  0  3.71395  0
N  N109  1  0.14320048  0.29193858  0.22581835  1  0  0.019391  0  3.535402  0  0  0.131101  0  3.728888  0  0  0.090359  0  3.788992  0  0  -0.119196  0.137723  0  3.713967  0
N  N110  1  0.35679925  0.79193920  0.72581930  1  0  0.019431  0  3.535301  0  0  0.131125  0  3.728798  0  0  0.090389  0  3.788896  0  0  -0.119191  0.137748  0  3.713874  0
N  N111  1  0.85680005  0.70806144  0.77418119  1  0  0.019294  0  3.53544  0  0  0.131047  0  3.728945  0  0  0.090274  0  3.789074  0  0  -0.119227  0.137668  0  3.714026  0
O  O112  1  0.15096529  0.55223394  0.49519434  1  0  -0.690709  0  2.027595  0  0  -0.613492  0  2.288464  0  0  -0.645353  0  2.276767  0  0  -0.337655  -0.591643  0  2.295679  0
O  O113  1  0.65096358  0.94776783  0.00480450  1  0  -0.690709  0  2.027531  0  0  -0.613483  0  2.288385  0  0  -0.645345  0  2.276689  0  0  -0.337633  -0.591633  0  2.2956  0
O  O114  1  0.84903635  0.44776607  0.50480374  1  0  -0.690768  0  2.027541  0  0  -0.613517  0  2.288378  0  0  -0.645379  0  2.276682  0  0  -0.337655  -0.591667  0  2.295594  0
O  O115  1  0.34903474  0.05223397  0.99519519  1  0  -0.690736  0  2.027563  0  0  -0.613494  0  2.288405  0  0  -0.645353  0  2.27671  0  0  -0.337651  -0.591641  0  2.295622  0
O  O116  1  0.25583951  0.37728069  0.51166180  1  0  -0.609839  0  1.961029  0  0  -0.543983  0  2.200423  0  0  -0.573155  0  2.190948  0  0  -0.31734  -0.523642  0  2.205936  0
O  O117  1  0.75584149  0.12272124  0.98833875  1  0  -0.609855  0  1.961073  0  0  -0.544006  0  2.200478  0  0  -0.573176  0  2.191007  0  0  -0.317324  -0.523663  0  2.205992  0
O  O118  1  0.74415992  0.62271935  0.48833848  1  0  -0.609809  0  1.961049  0  0  -0.543983  0  2.20047  0  0  -0.573155  0  2.190993  0  0  -0.317348  -0.523642  0  2.205982  0
O  O119  1  0.24415905  0.87728145  0.01166174  1  0  -0.609819  0  1.961041  0  0  -0.543998  0  2.200449  0  0  -0.573168  0  2.190974  0  0  -0.317349  -0.523655  0  2.205963  0
O  O120  1  0.35600064  0.79608945  0.23952005  1  0  -0.625777  0  1.93747  0  0  -0.569494  0  2.173137  0  0  -0.597949  0  2.165888  0  0  -0.327316  -0.549382  0  2.176826  0
O  O121  1  0.85600035  0.70391121  0.26047794  1  0  -0.625752  0  1.93752  0  0  -0.569466  0  2.173196  0  0  -0.597922  0  2.16595  0  0  -0.327288  -0.549354  0  2.176882  0
O  O122  1  0.64400100  0.20390880  0.76047863  1  0  -0.625699  0  1.937461  0  0  -0.569438  0  2.173138  0  0  -0.597903  0  2.165909  0  0  -0.327293  -0.549326  0  2.176822  0
O  O123  1  0.14400018  0.29609058  0.73952101  1  0  -0.625677  0  1.937506  0  0  -0.569402  0  2.173197  0  0  -0.59786  0  2.165955  0  0  -0.327302  -0.549291  0  2.176878  0
O  O124  1  0.52851542  0.71855576  0.13428894  1  0  -0.634866  0  1.960133  0  0  -0.565785  0  2.200562  0  0  -0.596384  0  2.191469  0  0  -0.325843  -0.544446  0  2.206044  0
O  O125  1  0.02851349  0.78144527  0.36571133  1  0  -0.634887  0  1.960209  0  0  -0.565779  0  2.200605  0  0  -0.596382  0  2.191511  0  0  -0.325834  -0.544441  0  2.206088  0
O  O126  1  0.47148953  0.28144427  0.86571061  1  0  -0.634861  0  1.960193  0  0  -0.565753  0  2.200605  0  0  -0.596349  0  2.191509  0  0  -0.325823  -0.544417  0  2.206091  0
O  O127  1  0.97148705  0.21855653  0.63428836  1  0  -0.634805  0  1.960215  0  0  -0.565718  0  2.200629  0  0  -0.596315  0  2.191532  0  0  -0.325797  -0.54438  0  2.206112  0
