# generated using pymatgen
data_NaYbH16(C14O5)2
_symmetry_space_group_name_H-M   'P 1'
_cell_length_a   7.22594581
_cell_length_b   15.41758145
_cell_length_c   15.41759059
_cell_angle_alpha   122.04984534
_cell_angle_beta   89.99939207
_cell_angle_gamma   90.00021253
_symmetry_Int_Tables_number   1
_chemical_formula_structural   NaYbH16(C14O5)2
_chemical_formula_sum   'Na2 Yb2 H32 C56 O20'
_cell_volume   1455.83322573
_cell_formula_units_Z   2
loop_
 _symmetry_equiv_pos_site_id
 _symmetry_equiv_pos_as_xyz
  1  'x, y, z'
loop_
 _atom_site_type_symbol
 _atom_site_label
 _atom_site_symmetry_multiplicity
 _atom_site_fract_x
 _atom_site_fract_y
 _atom_site_fract_z
 _atom_site_occupancy
 _atom_site_pbe_bader_charge
 _atom_site_pbe_bader_spin_density
 _atom_site_pbe_cm5_charge
 _atom_site_pbe_ddec_charge
 _atom_site_pbe_ddec_spin_density
 _atom_site_pbe_ddec_sum_bond_order
 _atom_site_pbe_magmom
Na  Na0  1  0.70306876  0.63224115  0.63224041  1  0.885286  0  0.816394  0.900779  0  0.542673  0
Na  Na1  1  0.20308078  0.36775415  0.36775802  1  0.88532  0  0.816434  0.900797  0  0.542671  0
Yb  Yb2  1  0.20805263  0.62781816  0.62781605  1  2.17934  0  1.599802  2.122624  0  2.049737  0
Yb  Yb3  1  0.70805685  0.37218331  0.37218746  1  2.179714  0  1.5998  2.122629  0  2.04982  0
H  H4  1  0.17137299  0.69145701  0.96424939  1  0.099371  0  0.105801  0.10754  0  1.003854  0
H  H5  1  0.67141322  0.30853803  0.03576659  1  0.099722  0  0.105772  0.107612  0  1.003791  0
H  H6  1  0.67139120  0.03575093  0.30854120  1  0.099566  0  0.105768  0.107577  0  1.003731  0
H  H7  1  0.17138948  0.96424655  0.69145267  1  0.099553  0  0.105762  0.107551  0  1.003785  0
H  H8  1  0.73183631  0.67067454  0.86232632  1  0.092274  0  0.113365  0.111357  0  1.002218  0
H  H9  1  0.23188493  0.32930694  0.13766425  1  0.092672  0  0.113368  0.111359  0  1.002227  0
H  H10  1  0.23184751  0.13767490  0.32931432  1  0.092182  0  0.113358  0.111321  0  1.002269  0
H  H11  1  0.73185021  0.86233428  0.67069625  1  0.09242  0  0.113354  0.111339  0  1.002239  0
H  H12  1  0.28597490  0.71233359  0.12794459  1  0.11155  0  0.102671  0.116103  0  1.064042  0
H  H13  1  0.78598961  0.28767339  0.87207107  1  0.111669  0  0.102708  0.116093  0  1.063932  0
H  H14  1  0.78599686  0.87205942  0.28767114  1  0.111607  0  0.102669  0.11607  0  1.063914  0
H  H15  1  0.28598841  0.12793712  0.71232036  1  0.111366  0  0.102676  0.116088  0  1.063824  0
H  H16  1  0.84761452  0.69881657  0.02895860  1  0.063604  0  0.10791  0.123936  0  0.994829  0
H  H17  1  0.34764596  0.30116779  0.97103155  1  0.063115  0  0.107819  0.123855  0  0.994965  0
H  H18  1  0.34763371  0.97104874  0.30117518  1  0.063436  0  0.107884  0.123926  0  0.994915  0
H  H19  1  0.84763369  0.02896503  0.69884233  1  0.063206  0  0.107881  0.123939  0  0.994934  0
H  H20  1  0.54154610  0.82346646  0.37128086  1  0.056342  0  0.10786  0.122504  0  0.986409  0
H  H21  1  0.04156200  0.17653588  0.62872005  1  0.05645  0  0.107858  0.122493  0  0.986403  0
H  H22  1  0.04156729  0.62872105  0.17651858  1  0.056088  0  0.107854  0.122456  0  0.986424  0
H  H23  1  0.54156433  0.37128867  0.82347638  1  0.056197  0  0.10785  0.122458  0  0.986432  0
H  H24  1  0.57884146  0.52842901  0.09181952  1  0.094592  0  0.104063  0.116739  0  1.00276  0
H  H25  1  0.07883819  0.47157400  0.90818025  1  0.094615  0  0.10405  0.116724  0  1.002693  0
H  H26  1  0.07884463  0.90816964  0.47156844  1  0.094781  0  0.104074  0.116749  0  1.002751  0
H  H27  1  0.57884055  0.09183412  0.52843107  1  0.094868  0  0.104064  0.116764  0  1.002818  0
H  H28  1  0.42802330  0.74050872  0.46350044  1  0.09117  0  0.107391  0.109459  0  1.016587  0
H  H29  1  0.92802306  0.25948641  0.53650064  1  0.091134  0  0.107401  0.109458  0  1.01664  0
H  H30  1  0.92803545  0.53649369  0.25946332  1  0.091221  0  0.107418  0.10942  0  1.016655  0
H  H31  1  0.42803305  0.46351022  0.74052733  1  0.091104  0  0.107412  0.109427  0  1.016602  0
H  H32  1  0.48274748  0.44539285  0.18724154  1  0.054666  0  0.10845  0.109425  0  1.022337  0
H  H33  1  0.98273230  0.55460590  0.81275593  1  0.05466  0  0.108496  0.109529  0  1.022329  0
H  H34  1  0.98275825  0.81273845  0.55459588  1  0.054446  0  0.108471  0.109483  0  1.022148  0
H  H35  1  0.48275474  0.18726178  0.44540040  1  0.054677  0  0.108463  0.109454  0  1.022149  0
C  C36  1  0.37343676  0.66555264  0.80647895  1  1.526127  0  0.194939  0.599329  0  4.229544  0
C  C37  1  0.87348339  0.33444727  0.19352940  1  1.52622  0  0.195059  0.599462  0  4.229325  0
C  C38  1  0.87342595  0.19352371  0.33445013  1  1.526505  0  0.195067  0.599618  0  4.229266  0
C  C39  1  0.37343746  0.80647671  0.66554874  1  1.526101  0  0.194858  0.599256  0  4.229721  0
C  C40  1  0.44420019  0.67886253  0.90326509  1  -0.012162  0  -0.022982  -0.050321  0  3.982654  0
C  C41  1  0.94425161  0.32112663  0.09673935  1  -0.01245  0  -0.023256  -0.050536  0  3.982585  0
C  C42  1  0.94421232  0.09673878  0.32113431  1  -0.012135  0  -0.023089  -0.050497  0  3.982738  0
C  C43  1  0.44421457  0.90326388  0.67886665  1  -0.012015  0  -0.023002  -0.050258  0  3.982631  0
C  C44  1  0.31896044  0.69024175  0.97807319  1  -0.002658  0  -0.079058  -0.061165  0  3.974983  0
C  C45  1  0.81899128  0.30975137  0.02193327  1  -0.002562  0  -0.078863  -0.061114  0  3.974652  0
C  C46  1  0.81897873  0.02192646  0.30975575  1  -0.002458  0  -0.07898  -0.061287  0  3.974816  0
C  C47  1  0.31897576  0.97807475  0.69024252  1  -0.002407  0  -0.079014  -0.061329  0  3.97495  0
C  C48  1  0.63485324  0.68016197  0.92091802  1  -0.054642  0  -0.074419  -0.064793  0  3.96763  0
C  C49  1  0.13489063  0.31982267  0.07907401  1  -0.055214  0  -0.0744  -0.064917  0  3.967991  0
C  C50  1  0.13486493  0.07908379  0.31983052  1  -0.055042  0  -0.074416  -0.064768  0  3.967868  0
C  C51  1  0.63486510  0.92092460  0.68017496  1  -0.055192  0  -0.074406  -0.064843  0  3.967905  0
C  C52  1  0.38186054  0.70155576  0.06864431  1  -0.080702  0  -0.10752  -0.215852  0  4.010076  0
C  C53  1  0.88188925  0.29844195  0.93136676  1  -0.080581  0  -0.107621  -0.215801  0  4.009954  0
C  C54  1  0.88188199  0.93136005  0.29844426  1  -0.080779  0  -0.107607  -0.215731  0  4.009872  0
C  C55  1  0.38187887  0.06863803  0.70155208  1  -0.080641  0  -0.107561  -0.21567  0  4.009963  0
C  C56  1  0.69992745  0.69479393  0.01284147  1  0.044601  0  -0.099919  -0.201342  0  3.988601  0
C  C57  1  0.19996271  0.30519144  0.98715255  1  0.04456  0  -0.099781  -0.201159  0  3.988768  0
C  C58  1  0.19994510  0.98716251  0.30519858  1  0.044701  0  -0.099832  -0.201295  0  3.988784  0
C  C59  1  0.69994505  0.01284587  0.69480915  1  0.044637  0  -0.099873  -0.20131  0  3.988856  0
C  C60  1  0.57243887  0.70530811  0.08607247  1  0.385915  0  0.087948  0.267709  0  4.041147  0
C  C61  1  0.07245352  0.29468654  0.91392435  1  0.386264  0  0.087949  0.267676  0  4.041102  0
C  C62  1  0.07245851  0.91392861  0.29468953  1  0.386206  0  0.087969  0.267693  0  4.041138  0
C  C63  1  0.57245048  0.08607672  0.70531211  1  0.38638  0  0.087927  0.267586  0  4.0412  0
C  C64  1  0.56325919  0.68047888  0.22674550  1  0.366046  0  0.087474  0.262065  0  4.045872  0
C  C65  1  0.06326052  0.31952343  0.77325528  1  0.365992  0  0.08743  0.26196  0  4.046055  0
C  C66  1  0.06326860  0.77325048  0.31951129  1  0.365503  0  0.087564  0.262139  0  4.045912  0
C  C67  1  0.56325802  0.22675402  0.68048672  1  0.365869  0  0.087444  0.261942  0  4.046118  0
C  C68  1  0.52302685  0.74083786  0.33105980  1  0.062488  0  -0.096861  -0.195383  0  3.986347  0
C  C69  1  0.02303280  0.25916224  0.66894136  1  0.062406  0  -0.096856  -0.195331  0  3.986259  0
C  C70  1  0.02303885  0.66894132  0.25914898  1  0.062704  0  -0.096762  -0.195179  0  3.986058  0
C  C71  1  0.52303326  0.33106543  0.74084715  1  0.062451  0  -0.096844  -0.195275  0  3.986348  0
C  C72  1  0.54352633  0.57408810  0.17289240  1  -0.052402  0  -0.102972  -0.21354  0  4.019625  0
C  C73  1  0.04352312  0.42591191  0.82710667  1  -0.052352  0  -0.10304  -0.213564  0  4.019657  0
C  C74  1  0.04353319  0.82709842  0.42590589  1  -0.052198  0  -0.103093  -0.21372  0  4.019743  0
C  C75  1  0.54352455  0.17290459  0.57409212  1  -0.05267  0  -0.103095  -0.213753  0  4.019905  0
C  C76  1  0.46027447  0.69439384  0.38225805  1  -0.040763  0  -0.071056  -0.04896  0  3.942914  0
C  C77  1  0.96027278  0.30560497  0.61774085  1  -0.040743  0  -0.071038  -0.048923  0  3.942877  0
C  C78  1  0.96028846  0.61773245  0.30558266  1  -0.040792  0  -0.071098  -0.049029  0  3.942804  0
C  C79  1  0.46028232  0.38227074  0.69441070  1  -0.040425  0  -0.070983  -0.04881  0  3.942584  0
C  C80  1  0.48835217  0.52832973  0.22559026  1  0.054502  0  -0.075593  -0.06103  0  3.964653  0
C  C81  1  0.98833998  0.47167054  0.77440795  1  0.054495  0  -0.075553  -0.061067  0  3.964592  0
C  C82  1  0.98836105  0.77439297  0.47165464  1  0.054526  0  -0.075516  -0.06103  0  3.964843  0
C  C83  1  0.48835186  0.22560876  0.52834172  1  0.054349  0  -0.075506  -0.060863  0  3.964842  0
C  C84  1  0.44445941  0.58779268  0.33024044  1  0.000451  0  -0.017327  -0.051889  0  3.941079  0
C  C85  1  0.94445184  0.41220460  0.66975712  1  0.000635  0  -0.017346  -0.05192  0  3.94116  0
C  C86  1  0.94447364  0.66974906  0.41219032  1  0.000483  0  -0.017356  -0.051666  0  3.9413  0
C  C87  1  0.44446114  0.33025271  0.58780564  1  0.000382  0  -0.017361  -0.051957  0  3.9417  0
C  C88  1  0.39419254  0.53351437  0.38288057  1  1.552139  0  0.22687  0.66983  0  4.140918  0
C  C89  1  0.89418377  0.46648374  0.61711767  1  1.551132  0  0.226901  0.669806  0  4.140975  0
C  C90  1  0.89419154  0.61709940  0.46645876  1  1.55131  0  0.22658  0.66933  0  4.141487  0
C  C91  1  0.39418478  0.38290090  0.53353671  1  1.551347  0  0.226656  0.669493  0  4.141492  0
O  O92  1  0.20650513  0.68956291  0.80095859  1  -1.174056  0  -0.399828  -0.637666  0  2.183184  0
O  O93  1  0.70656391  0.31042581  0.19904814  1  -1.174979  0  -0.39983  -0.637663  0  2.183149  0
O  O94  1  0.70648616  0.19903998  0.31045249  1  -1.174096  0  -0.399821  -0.63775  0  2.18295  0
O  O95  1  0.20650816  0.80095942  0.68955840  1  -1.173992  0  -0.399757  -0.637621  0  2.183244  0
O  O96  1  0.47909009  0.62741898  0.72792965  1  -1.228014  0  -0.467887  -0.725728  0  2.284725  0
O  O97  1  0.97913389  0.37260277  0.27208154  1  -1.217636  0  -0.467964  -0.725788  0  2.284503  0
O  O98  1  0.97907843  0.27207268  0.37257164  1  -1.228504  0  -0.467982  -0.725823  0  2.284626  0
O  O99  1  0.47909296  0.72792726  0.62741347  1  -1.218427  0  -0.467864  -0.725699  0  2.284661  0
O  O100  1  0.64037643  0.72772178  0.17979068  1  -1.111772  0  -0.152812  -0.226316  0  2.59898  0
O  O101  1  0.14039160  0.27228117  0.82020874  1  -1.111775  0  -0.152767  -0.226284  0  2.599105  0
O  O102  1  0.14040107  0.82021361  0.27227975  1  -1.111653  0  -0.152909  -0.226393  0  2.599182  0
O  O103  1  0.64038772  0.17979315  0.72772162  1  -1.111565  0  -0.152746  -0.226177  0  2.598908  0
O  O104  1  0.29270338  0.57536686  0.46258689  1  -1.211734  0  -0.403935  -0.713814  0  2.3481  0
O  O105  1  0.79268775  0.42463139  0.53741259  1  -1.211094  0  -0.403905  -0.713825  0  2.348058  0
O  O106  1  0.79269080  0.53740593  0.42460991  1  -1.210851  0  -0.403746  -0.713531  0  2.348664  0
O  O107  1  0.29268787  0.46259602  0.57538692  1  -1.210978  0  -0.403788  -0.713543  0  2.348594  0
O  O108  1  0.45511478  0.44168113  0.34171098  1  -1.223829  0  -0.490654  -0.759946  0  2.379873  0
O  O109  1  0.95510441  0.55831533  0.65828415  1  -1.223686  0  -0.490714  -0.759897  0  2.379894  0
O  O110  1  0.95511419  0.65826017  0.55829468  1  -1.224197  0  -0.49059  -0.759756  0  2.3796  0
O  O111  1  0.45510915  0.34173704  0.44170018  1  -1.224589  0  -0.490648  -0.759838  0  2.379601  0
