# generated using pymatgen
data_Sm2H37C36N7O22
_symmetry_space_group_name_H-M   'P 1'
_cell_length_a   13.73616877
_cell_length_b   13.73618158
_cell_length_c   16.41849374
_cell_angle_alpha   67.22360666
_cell_angle_beta   67.22361773
_cell_angle_gamma   75.68412407
_symmetry_Int_Tables_number   1
_chemical_formula_structural   Sm2H37C36N7O22
_chemical_formula_sum   'Sm4 H74 C72 N14 O44'
_cell_volume   2616.25072374
_cell_formula_units_Z   2
loop_
 _symmetry_equiv_pos_site_id
 _symmetry_equiv_pos_as_xyz
  1  'x, y, z'
loop_
 _atom_site_type_symbol
 _atom_site_label
 _atom_site_symmetry_multiplicity
 _atom_site_fract_x
 _atom_site_fract_y
 _atom_site_fract_z
 _atom_site_occupancy
 _atom_site_pbe_bader_charge
 _atom_site_pbe_bader_spin_density
 _atom_site_pbe_cm5_charge
 _atom_site_pbe_ddec_charge
 _atom_site_pbe_ddec_spin_density
 _atom_site_pbe_ddec_sum_bond_order
 _atom_site_pbe_magmom
Sm  Sm0  1  0.17006183  0.45092098  0.99840994  1  2.241323  0  1.511466  2.112884  0  2.161096  0
Sm  Sm1  1  0.54908001  0.82993835  0.50158967  1  2.241441  0  1.511454  2.112865  0  2.161116  0
Sm  Sm2  1  0.82993885  0.54907777  0.00158965  1  2.241423  0  1.511451  2.112883  0  2.161166  0
Sm  Sm3  1  0.45091988  0.17005970  0.49841223  1  2.241371  0  1.511438  2.112934  0  2.161013  0
H  H4  1  0.33192374  0.22990414  0.24916140  1  0.135979  0  0.118108  0.129447  0  0.993733  0
H  H5  1  0.77009532  0.66807639  0.25083873  1  0.135986  0  0.118094  0.12942  0  0.993748  0
H  H6  1  0.66807694  0.77009697  0.75083803  1  0.135995  0  0.118086  0.129414  0  0.993713  0
H  H7  1  0.22990377  0.33192333  0.74916167  1  0.135991  0  0.118113  0.129434  0  0.993699  0
H  H8  1  0.46270322  0.90211628  0.28833346  1  0.148963  0  0.124301  0.135451  0  1.006913  0
H  H9  1  0.09788469  0.53729672  0.21166612  1  0.148945  0  0.12432  0.135468  0  1.006838  0
H  H10  1  0.53729588  0.09788422  0.71166669  1  0.148947  0  0.124295  0.135445  0  1.006904  0
H  H11  1  0.90211519  0.46270290  0.78833344  1  0.148935  0  0.124314  0.135463  0  1.006857  0
H  H12  1  0.34441031  0.08164553  0.05702236  1  0.156334  0  0.121476  0.134994  0  0.99283  0
H  H13  1  0.91835610  0.65558932  0.44297665  1  0.156341  0  0.121455  0.134959  0  0.992801  0
H  H14  1  0.65558798  0.91835664  0.94297750  1  0.156329  0  0.121449  0.134983  0  0.992795  0
H  H15  1  0.08164459  0.34441100  0.55702303  1  0.156346  0  0.121457  0.134966  0  0.992809  0
H  H16  1  0.09165627  0.13081182  0.14570921  1  0.172213  0  0.123631  0.142362  0  0.995037  0
H  H17  1  0.86918689  0.90834246  0.35429158  1  0.172181  0  0.123659  0.142378  0  0.995147  0
H  H18  1  0.90834362  0.86918780  0.85429035  1  0.172217  0  0.123649  0.142386  0  0.995094  0
H  H19  1  0.13081379  0.09165628  0.64570862  1  0.17224  0  0.123645  0.142365  0  0.995073  0
H  H20  1  0.76003500  0.23996452  0.24999990  1  0.134527  0  0.115597  0.120269  0  1.027698  0
H  H21  1  0.23996647  0.76003413  0.75000008  1  0.134498  0  0.115601  0.120257  0  1.027732  0
H  H22  1  0.44850769  0.36275788  0.82087399  1  0.129956  0  0.126432  0.054582  0  0.997787  0
H  H23  1  0.63724474  0.55149065  0.67912760  1  0.12991  0  0.126449  0.054626  0  0.997809  0
H  H24  1  0.55149061  0.63724588  0.17912779  1  0.129887  0  0.126475  0.054634  0  0.997851  0
H  H25  1  0.36275594  0.44850888  0.32087295  1  0.12992  0  0.126437  0.05461  0  0.997804  0
H  H26  1  0.49909848  0.35989827  0.68022191  1  0.071842  0  0.111469  0.13224  0  1.01102  0
H  H27  1  0.64010147  0.50090112  0.81977899  1  0.071842  0  0.111471  0.132263  0  1.010988  0
H  H28  1  0.50090062  0.64010144  0.31977849  1  0.071837  0  0.111471  0.132246  0  1.011004  0
H  H29  1  0.35989762  0.49909938  0.18022176  1  0.071826  0  0.111462  0.132238  0  1.011006  0
H  H30  1  0.39820246  0.40030118  0.62805636  1  0.089944  0  0.106584  0.133051  0  1.014944  0
H  H31  1  0.59969912  0.60179804  0.87194343  1  0.089936  0  0.106561  0.133026  0  1.01498  0
H  H32  1  0.60179742  0.59970002  0.37194391  1  0.089981  0  0.106582  0.133057  0  1.014946  0
H  H33  1  0.40029997  0.39820246  0.12805671  1  0.089967  0  0.10659  0.133057  0  1.014942  0
H  H34  1  0.49304671  0.48984983  0.59539227  1  0.048784  0  0.106753  0.122299  0  1.00142  0
H  H35  1  0.51015032  0.50695345  0.90460769  1  0.048767  0  0.106748  0.122297  0  1.001424  0
H  H36  1  0.50695238  0.51015068  0.40460788  1  0.048768  0  0.106749  0.122313  0  1.001406  0
H  H37  1  0.48984877  0.49304705  0.09539246  1  0.048797  0  0.106751  0.12231  0  1.001397  0
H  H38  1  0.34844378  0.63015020  0.64700451  1  0.112091  0  0.109514  0.129513  0  1.024625  0
H  H39  1  0.36985034  0.65155662  0.85299518  1  0.112096  0  0.109507  0.129512  0  1.024665  0
H  H40  1  0.65155611  0.36985021  0.35299541  1  0.112108  0  0.109518  0.129528  0  1.024619  0
H  H41  1  0.63015034  0.34844370  0.14700390  1  0.112095  0  0.109512  0.12951  0  1.024677  0
H  H42  1  0.25640251  0.58825416  0.76408166  1  0.13688  0  0.113949  0.132939  0  1.052436  0
H  H43  1  0.41174510  0.74359785  0.73591844  1  0.136855  0  0.113948  0.132948  0  1.05243  0
H  H44  1  0.74359738  0.41174546  0.23591790  1  0.136853  0  0.113952  0.132942  0  1.052433  0
H  H45  1  0.58825479  0.25640257  0.26408148  1  0.13686  0  0.113958  0.132974  0  1.052414  0
H  H46  1  0.25097491  0.54534416  0.67638388  1  0.037784  0  0.100749  0.11163  0  1.007096  0
H  H47  1  0.45465594  0.74902492  0.82361612  1  0.037616  0  0.100757  0.111658  0  1.007079  0
H  H48  1  0.74902418  0.45465556  0.32361591  1  0.037794  0  0.10075  0.111635  0  1.007113  0
H  H49  1  0.54534394  0.25097628  0.17638354  1  0.037634  0  0.100752  0.111667  0  1.007086  0
H  H50  1  0.12313868  0.84574042  0.04869541  1  0.031296  0  0.110005  0.118826  0  0.98976  0
H  H51  1  0.15426005  0.87686247  0.45130388  1  0.031289  0  0.109995  0.118799  0  0.989757  0
H  H52  1  0.87686280  0.15425902  0.95130431  1  0.031295  0  0.109992  0.118802  0  0.989699  0
H  H53  1  0.84574063  0.12313786  0.54869459  1  0.031304  0  0.109994  0.11881  0  0.989706  0
H  H54  1  0.24579232  0.90361591  0.99325742  1  0.051144  0  0.109476  0.12793  0  0.967349  0
H  H55  1  0.09638581  0.75420820  0.50674236  1  0.051173  0  0.109509  0.127962  0  0.967338  0
H  H56  1  0.75420756  0.09638608  0.00674198  1  0.05116  0  0.109491  0.127946  0  0.967353  0
H  H57  1  0.90361328  0.24579231  0.49325778  1  0.051161  0  0.10949  0.127932  0  0.967369  0
H  H58  1  0.20386549  0.83529332  0.11578755  1  0.090538  0  0.10102  0.117765  0  1.029106  0
H  H59  1  0.16470735  0.79613502  0.38421190  1  0.090538  0  0.101053  0.117819  0  1.029122  0
H  H60  1  0.79613519  0.16470622  0.88421178  1  0.090515  0  0.101036  0.117806  0  1.029135  0
H  H61  1  0.83529333  0.20386531  0.61578718  1  0.090544  0  0.101014  0.11775  0  1.029211  0
H  H62  1  0.37475772  0.69866653  0.09867861  1  0.06804  0  0.106302  0.120534  0  0.995676  0
H  H63  1  0.30133363  0.62524301  0.40132101  1  0.06804  0  0.106346  0.120609  0  0.995686  0
H  H64  1  0.62524297  0.30133459  0.90132143  1  0.068039  0  0.106347  0.120614  0  0.995687  0
H  H65  1  0.69866546  0.37475828  0.59867827  1  0.068046  0  0.106307  0.120546  0  0.995775  0
H  H66  1  0.41578350  0.77727506  0.97923301  1  0.045111  0  0.105811  0.121232  0  0.997967  0
H  H67  1  0.22272502  0.58421765  0.52076656  1  0.045124  0  0.105819  0.121256  0  0.997947  0
H  H68  1  0.58421718  0.22272605  0.02076581  1  0.045135  0  0.105824  0.121272  0  0.997945  0
H  H69  1  0.77727486  0.41578356  0.47923310  1  0.045097  0  0.105813  0.121236  0  0.99796  0
H  H70  1  0.40359876  0.63899349  0.01066872  1  0.066036  0  0.112888  0.126737  0  1.023274  0
H  H71  1  0.36100665  0.59640153  0.48933106  1  0.066039  0  0.112858  0.12674  0  1.023269  0
H  H72  1  0.59640192  0.36100683  0.98933097  1  0.066053  0  0.11286  0.126751  0  1.023259  0
H  H73  1  0.63899323  0.40359967  0.51066799  1  0.066017  0  0.112866  0.126714  0  1.023281  0
H  H74  1  0.12656488  0.69870149  0.02929315  1  0.088724  0  0.12661  0.048161  0  0.997632  0
H  H75  1  0.30130203  0.87343495  0.47070561  1  0.088614  0  0.126629  0.048194  0  0.997671  0
H  H76  1  0.87343659  0.30129874  0.97070448  1  0.088652  0  0.126628  0.048156  0  0.997766  0
H  H77  1  0.69869786  0.12656704  0.52929501  1  0.088609  0  0.126638  0.048213  0  0.997691  0
C  C78  1  0.42748438  0.06136549  0.35914681  1  1.610889  0  0.233238  0.644852  0  4.172802  0
C  C79  1  0.93863591  0.57251402  0.14085331  1  1.61109  0  0.233239  0.644821  0  4.172733  0
C  C80  1  0.57251471  0.93863265  0.64085654  1  1.611053  0  0.233211  0.644881  0  4.172828  0
C  C81  1  0.06136715  0.42748524  0.85914473  1  1.610876  0  0.233226  0.644875  0  4.172778  0
C  C82  1  0.40204962  0.06648023  0.27613039  1  0.03334  0  -0.011514  -0.032959  0  3.948928  0
C  C83  1  0.93352025  0.59795079  0.22386876  1  0.033331  0  -0.011533  -0.03296  0  3.948943  0
C  C84  1  0.59795106  0.93352088  0.72386904  1  0.033336  0  -0.011467  -0.032941  0  3.949126  0
C  C85  1  0.06647884  0.40204814  0.77613190  1  0.033454  0  -0.011525  -0.033  0  3.949047  0
C  C86  1  0.33387578  0.16668355  0.14675391  1  -0.014373  0  -0.007217  -0.013241  0  3.94315  0
C  C87  1  0.83331888  0.66612518  0.35324500  1  -0.014673  0  -0.00716  -0.013025  0  3.94305  0
C  C88  1  0.66612490  0.83331836  0.85324709  1  -0.0146  0  -0.007243  -0.013229  0  3.943168  0
C  C89  1  0.16668180  0.33387515  0.64675469  1  -0.014615  0  -0.007177  -0.013127  0  3.943185  0
C  C90  1  0.28239718  0.26668792  0.09161975  1  1.568348  0  0.186814  0.562721  0  4.263971  0
C  C91  1  0.73331459  0.71760222  0.40838022  1  1.568279  0  0.186727  0.562504  0  4.264152  0
C  C92  1  0.71760351  0.73331398  0.90838064  1  1.568255  0  0.186762  0.56259  0  4.264061  0
C  C93  1  0.26668530  0.28239661  0.59162082  1  1.568272  0  0.186777  0.562641  0  4.264011  0
C  C94  1  0.36044311  0.07741538  0.11819828  1  0.045471  0  -0.059805  -0.105567  0  3.914949  0
C  C95  1  0.92258580  0.63955688  0.38180138  1  0.045376  0  -0.059812  -0.105571  0  3.914995  0
C  C96  1  0.63955598  0.92258513  0.88180187  1  0.045398  0  -0.05978  -0.105537  0  3.914964  0
C  C97  1  0.07741488  0.36044266  0.61819917  1  0.045453  0  -0.059819  -0.105567  0  3.915016  0
C  C98  1  0.92740450  0.19693657  0.18985377  1  -0.006334  0  -0.009188  -0.023107  0  3.935631  0
C  C99  1  0.80306156  0.07259578  0.31014506  1  -0.006509  0  -0.009189  -0.02316  0  3.935656  0
C  C100  1  0.07259539  0.80306069  0.81014412  1  -0.005927  0  -0.009194  -0.023127  0  3.935612  0
C  C101  1  0.19693912  0.92740218  0.68985540  1  -0.006277  0  -0.009223  -0.023213  0  3.935777  0
C  C102  1  0.94924725  0.30796011  0.12377213  1  1.621276  0  0.232418  0.642238  0  4.176597  0
C  C103  1  0.69203834  0.05075488  0.37622658  1  1.621256  0  0.232422  0.642249  0  4.176595  0
C  C104  1  0.05075502  0.69203766  0.87622421  1  1.621578  0  0.232435  0.642268  0  4.176583  0
C  C105  1  0.30796314  0.94924219  0.62377512  1  1.621489  0  0.232514  0.642379  0  4.17644  0
C  C106  1  0.01094492  0.11468466  0.19089440  1  0.03945  0  -0.063956  -0.120774  0  3.903994  0
C  C107  1  0.88531349  0.98905377  0.30910719  1  0.039664  0  -0.06394  -0.120669  0  3.904078  0
C  C108  1  0.98905496  0.88531418  0.80910481  1  0.03946  0  -0.063973  -0.120789  0  3.90411  0
C  C109  1  0.11468799  0.01094488  0.69089339  1  0.03942  0  -0.063933  -0.120674  0  3.904048  0
C  C110  1  0.35404365  0.16086101  0.22587462  1  -0.045853  0  -0.057845  -0.08128  0  3.876975  0
C  C111  1  0.83914078  0.64595622  0.27412364  1  -0.045503  0  -0.05785  -0.081343  0  3.876951  0
C  C112  1  0.64595624  0.83914019  0.77412565  1  -0.045587  0  -0.057802  -0.081231  0  3.876819  0
C  C113  1  0.16086070  0.35404322  0.72587486  1  -0.045608  0  -0.057827  -0.081247  0  3.876851  0
C  C114  1  0.42646103  0.97606197  0.24922627  1  -0.039225  0  -0.06434  -0.12793  0  3.915301  0
C  C115  1  0.02393957  0.57353962  0.25077348  1  -0.039276  0  -0.064346  -0.127912  0  3.915198  0
C  C116  1  0.57353885  0.02393924  0.75077399  1  -0.039351  0  -0.064347  -0.127889  0  3.915353  0
C  C117  1  0.97606032  0.42645921  0.74922756  1  -0.039409  0  -0.064331  -0.127868  0  3.915219  0
C  C118  1  0.40425539  0.98336128  0.17101981  1  0.160095  0  0.075249  0.061974  0  3.958763  0
C  C119  1  0.01664052  0.59574409  0.32897962  1  0.160225  0  0.075272  0.061919  0  3.958876  0
C  C120  1  0.59574290  0.01664089  0.82898005  1  0.16028  0  0.075246  0.061899  0  3.958815  0
C  C121  1  0.98335937  0.40425395  0.67101985  1  0.160226  0  0.075226  0.061851  0  3.958761  0
C  C122  1  0.82452273  0.17547672  0.25000054  1  -0.069436  0  -0.059047  -0.076213  0  3.871081  0
C  C123  1  0.17547795  0.82452124  0.74999991  1  -0.069787  0  -0.059026  -0.076175  0  3.871107  0
C  C124  1  0.98775280  0.01224518  0.25000106  1  0.074857  0  0.070498  0.04768  0  3.978961  0
C  C125  1  0.01224789  0.98775356  0.74999914  1  0.074859  0  0.070497  0.047702  0  3.978928  0
C  C126  1  0.38885817  0.43296346  0.81138774  1  1.372154  0  0.193668  0.337901  0  4.070065  0
C  C127  1  0.56703928  0.61113944  0.68861280  1  1.372482  0  0.193625  0.3378  0  4.070117  0
C  C128  1  0.61113775  0.56704136  0.18861508  1  1.372457  0  0.193665  0.337882  0  4.069958  0
C  C129  1  0.43296140  0.38886088  0.31138567  1  1.372496  0  0.1937  0.337901  0  4.070002  0
C  C130  1  0.30388305  0.56522395  0.70212200  1  0.20814  0  -0.136116  -0.2765  0  3.848569  0
C  C131  1  0.43477696  0.69611690  0.79787772  1  0.208344  0  -0.136101  -0.27653  0  3.848588  0
C  C132  1  0.69611684  0.43477646  0.29787731  1  0.208194  0  -0.136106  -0.276492  0  3.848552  0
C  C133  1  0.56522293  0.30388430  0.20212255  1  0.208311  0  -0.136108  -0.276584  0  3.848575  0
C  C134  1  0.20500239  0.83602530  0.04827203  1  0.30416  0  -0.129375  -0.274071  0  3.919131  0
C  C135  1  0.16397523  0.79499844  0.45172675  1  0.304145  0  -0.129419  -0.274111  0  3.919146  0
C  C136  1  0.79499750  0.16397354  0.95172657  1  0.304187  0  -0.129378  -0.274126  0  3.919028  0
C  C137  1  0.83602545  0.20500347  0.54827242  1  0.304151  0  -0.129332  -0.273998  0  3.919141  0
C  C138  1  0.37036095  0.71096409  0.02990332  1  0.314134  0  -0.131527  -0.27199  0  3.887962  0
C  C139  1  0.28903610  0.62963915  0.47009649  1  0.314135  0  -0.131547  -0.272098  0  3.888009  0
C  C140  1  0.62963894  0.28903632  0.97009599  1  0.31412  0  -0.131561  -0.272164  0  3.887911  0
C  C141  1  0.71096379  0.37036285  0.52990292  1  0.314135  0  -0.131529  -0.271995  0  3.888057  0
C  C142  1  0.20994742  0.66943294  0.02607806  1  1.384605  0  0.184634  0.313889  0  4.114986  0
C  C143  1  0.33056567  0.79005388  0.47392184  1  1.38467  0  0.1846  0.31381  0  4.114988  0
C  C144  1  0.79005724  0.33055903  0.97392243  1  1.384514  0  0.184549  0.31386  0  4.114946  0
C  C145  1  0.66943661  0.20994547  0.52607826  1  1.384659  0  0.184577  0.313794  0  4.11504  0
C  C146  1  0.44604838  0.42820090  0.65319538  1  0.292362  0  -0.132442  -0.296708  0  3.895465  0
C  C147  1  0.57179920  0.55395131  0.84680535  1  0.292363  0  -0.132416  -0.296713  0  3.89546  0
C  C148  1  0.55395150  0.57179952  0.34680575  1  0.292296  0  -0.132435  -0.296723  0  3.895418  0
C  C149  1  0.42819989  0.44604840  0.15319505  1  0.292332  0  -0.132445  -0.296743  0  3.895422  0
N  N150  1  0.42481727  0.88809673  0.14436851  1  0.360699  0  0.062125  0.528437  0  4.188289  0
N  N151  1  0.11190414  0.57518186  0.35563136  1  0.360688  0  0.062135  0.528512  0  4.188177  0
N  N152  1  0.57518023  0.11190553  0.85563158  1  0.360615  0  0.062163  0.528518  0  4.188171  0
N  N153  1  0.88809415  0.42481795  0.64436927  1  0.360611  0  0.062161  0.528549  0  4.188159  0
N  N154  1  0.07473609  0.92526284  0.25000054  1  0.350084  0  0.055987  0.512522  0  4.200061  0
N  N155  1  0.92526538  0.07473581  0.74999943  1  0.350118  0  0.055988  0.512459  0  4.200126  0
N  N156  1  0.26030850  0.73700698  0.03200866  1  -1.206284  0  -0.279146  0.035104  0  3.715699  0
N  N157  1  0.26299417  0.73969269  0.46799044  1  -1.206277  0  -0.279134  0.03513  0  3.715683  0
N  N158  1  0.73969298  0.26299405  0.96799054  1  -1.206321  0  -0.279059  0.035302  0  3.715589  0
N  N159  1  0.73700492  0.26030861  0.53200883  1  -1.206278  0  -0.279095  0.035169  0  3.715715  0
N  N160  1  0.37845011  0.47238204  0.72687979  1  -1.236656  0  -0.271886  0.046567  0  3.721138  0
N  N161  1  0.52761811  0.62154958  0.77312030  1  -1.236586  0  -0.271888  0.046618  0  3.721119  0
N  N162  1  0.62154977  0.52761917  0.27312048  1  -1.236527  0  -0.271908  0.046528  0  3.721164  0
N  N163  1  0.47238178  0.37845083  0.22687962  1  -1.236768  0  -0.271894  0.046612  0  3.721096  0
O  O164  1  0.04580533  0.32477463  0.08623979  1  -1.188917  0  -0.393216  -0.66351  0  2.331187  0
O  O165  1  0.67522218  0.95419623  0.41376005  1  -1.188878  0  -0.393258  -0.663529  0  2.331081  0
O  O166  1  0.95419535  0.67522095  0.91375778  1  -1.189151  0  -0.393272  -0.663509  0  2.331015  0
O  O167  1  0.32478089  0.04579988  0.58624145  1  -1.189044  0  -0.393315  -0.663596  0  2.331159  0
O  O168  1  0.33728911  0.47103059  0.87656811  1  -1.1954  0  -0.392608  -0.581671  0  2.404103  0
O  O169  1  0.52897140  0.66270966  0.62343045  1  -1.195681  0  -0.392583  -0.581648  0  2.404072  0
O  O170  1  0.66270998  0.52897387  0.12343015  1  -1.19558  0  -0.39262  -0.581701  0  2.40385  0
O  O171  1  0.47102849  0.33728917  0.37656937  1  -1.195651  0  -0.392613  -0.581709  0  2.403963  0
O  O172  1  0.40833167  0.14619977  0.37870046  1  -1.178719  0  -0.378572  -0.636172  0  2.273826  0
O  O173  1  0.85380174  0.59166624  0.12129977  1  -1.178878  0  -0.378527  -0.636101  0  2.273835  0
O  O174  1  0.59166822  0.85379828  0.62130266  1  -1.178932  0  -0.378588  -0.636202  0  2.273855  0
O  O175  1  0.14620133  0.40833223  0.87869914  1  -1.178741  0  -0.378537  -0.636154  0  2.273858  0
O  O176  1  0.27212954  0.26862675  0.01735264  1  -1.163561  0  -0.372194  -0.611599  0  2.164906  0
O  O177  1  0.73137779  0.72787383  0.48264476  1  -1.163588  0  -0.372122  -0.611461  0  2.165023  0
O  O178  1  0.72787511  0.73137707  0.98264523  1  -1.163617  0  -0.37212  -0.611478  0  2.165033  0
O  O179  1  0.26862368  0.27212561  0.51735556  1  -1.163558  0  -0.372164  -0.611547  0  2.164926  0
O  O180  1  0.86957961  0.37430753  0.11066092  1  -1.205958  0  -0.375762  -0.672197  0  2.323777  0
O  O181  1  0.62569109  0.13042167  0.38933738  1  -1.206029  0  -0.375735  -0.672202  0  2.323869  0
O  O182  1  0.13042107  0.62569121  0.88933502  1  -1.20623  0  -0.375734  -0.672221  0  2.323912  0
O  O183  1  0.37430879  0.86957480  0.61066443  1  -1.206101  0  -0.375777  -0.67225  0  2.323738  0
O  O184  1  0.46668758  0.97204019  0.40394578  1  -1.224807  0  -0.404703  -0.715556  0  2.382877  0
O  O185  1  0.02796052  0.53330917  0.09605552  1  -1.224841  0  -0.404744  -0.715561  0  2.382813  0
O  O186  1  0.53331152  0.02795874  0.59605731  1  -1.224743  0  -0.404711  -0.715608  0  2.382683  0
O  O187  1  0.97203937  0.46668808  0.90394421  1  -1.224776  0  -0.404731  -0.715601  0  2.382742  0
O  O188  1  0.24993905  0.34642460  0.12155976  1  -1.181965  0  -0.393247  -0.647755  0  2.162443  0
O  O189  1  0.65357506  0.75005663  0.37844293  1  -1.181838  0  -0.393231  -0.64774  0  2.162412  0
O  O190  1  0.75005607  0.65357479  0.87844387  1  -1.181804  0  -0.393226  -0.647728  0  2.162369  0
O  O191  1  0.34642244  0.24994011  0.62156139  1  -1.181857  0  -0.393262  -0.647784  0  2.162375  0
O  O192  1  0.25139625  0.58036633  0.01756076  1  -1.176807  0  -0.351315  -0.533397  0  2.355165  0
O  O193  1  0.41963583  0.74860221  0.48243893  1  -1.176849  0  -0.351324  -0.533384  0  2.355074  0
O  O194  1  0.74860443  0.41963399  0.98243953  1  -1.176706  0  -0.351332  -0.533493  0  2.354886  0
O  O195  1  0.58036406  0.25139899  0.51756134  1  -1.176815  0  -0.351355  -0.533457  0  2.355  0
O  O196  1  0.44115428  0.80040012  0.20236693  1  -0.482884  0  -0.136378  -0.355077  0  1.933067  0
O  O197  1  0.19960174  0.55884547  0.29763305  1  -0.482944  0  -0.136397  -0.355123  0  1.932981  0
O  O198  1  0.55884243  0.19960223  0.79763339  1  -0.482879  0  -0.136414  -0.355135  0  1.933026  0
O  O199  1  0.80039735  0.44115661  0.70236658  1  -0.482886  0  -0.136397  -0.355127  0  1.933015  0
O  O200  1  0.42353081  0.89968329  0.06603024  1  -0.457861  0  -0.122701  -0.340158  0  1.966483  0
O  O201  1  0.10031819  0.57646852  0.43396875  1  -0.457835  0  -0.122707  -0.340177  0  1.966449  0
O  O202  1  0.57646828  0.10031880  0.93396878  1  -0.457808  0  -0.122695  -0.340174  0  1.96648  0
O  O203  1  0.89968170  0.42353031  0.56603168  1  -0.457808  0  -0.122701  -0.34019  0  1.966461  0
O  O204  1  0.16747227  0.94821778  0.20781170  1  -0.477553  0  -0.131178  -0.347196  0  1.971823  0
O  O205  1  0.05178309  0.83252574  0.29218907  1  -0.477568  0  -0.131202  -0.347238  0  1.97182  0
O  O206  1  0.83252841  0.05178176  0.79218824  1  -0.477535  0  -0.13116  -0.347157  0  1.971832  0
O  O207  1  0.94821918  0.16747204  0.70781093  1  -0.477586  0  -0.131196  -0.3472  0  1.971863  0
