# generated using pymatgen
data_ZnPH7C2NO3
_symmetry_space_group_name_H-M   'P 1'
_cell_length_a   7.96819667
_cell_length_b   8.21015589
_cell_length_c   8.38475395
_cell_angle_alpha   90.00004264
_cell_angle_beta   95.15004427
_cell_angle_gamma   90.00000659
_symmetry_Int_Tables_number   1
_chemical_formula_structural   ZnPH7C2NO3
_chemical_formula_sum   'Zn4 P4 H28 C8 N4 O12'
_cell_volume   546.31735139
_cell_formula_units_Z   4
loop_
 _symmetry_equiv_pos_site_id
 _symmetry_equiv_pos_as_xyz
  1  'x, y, z'
loop_
 _atom_site_type_symbol
 _atom_site_label
 _atom_site_symmetry_multiplicity
 _atom_site_fract_x
 _atom_site_fract_y
 _atom_site_fract_z
 _atom_site_occupancy
 _atom_site_pbe_bader_spin_density
 _atom_site_pbe_cm5_charge
 _atom_site_pbe_ddec_charge
 _atom_site_pbe_ddec_spin_density
 _atom_site_pbe_ddec_sum_bond_order
 _atom_site_pbe_magmom
Zn  Zn0  1  0.78519041  0.53276220  0.10233676  1  0  0.707116  0.95202  0  2.290527  0
Zn  Zn1  1  0.28519062  0.96723747  0.10233657  1  0  0.707121  0.952005  0  2.29053  0
Zn  Zn2  1  0.21481033  0.46723752  0.89766363  1  0  0.707113  0.952011  0  2.290529  0
Zn  Zn3  1  0.71480887  0.03276224  0.89766369  1  0  0.707122  0.952017  0  2.29054  0
P  P4  1  0.41588535  0.60934176  0.19813926  1  0  0.275035  1.196286  0  5.509104  0
P  P5  1  0.91588396  0.89065922  0.19813840  1  0  0.275038  1.196285  0  5.509109  0
P  P6  1  0.58411540  0.39065918  0.80186112  1  0  0.27506  1.196336  0  5.509095  0
P  P7  1  0.08411552  0.10934050  0.80186187  1  0  0.275071  1.196345  0  5.509046  0
H  H8  1  0.36622751  0.65105235  0.35009466  1  0  0.087936  -0.117249  0  1.003211  0
H  H9  1  0.86622736  0.84894874  0.35009507  1  0  0.087926  -0.117262  0  1.003213  0
H  H10  1  0.63377198  0.34894859  0.64990561  1  0  0.087922  -0.117256  0  1.003206  0
H  H11  1  0.13377339  0.15105098  0.64990531  1  0  0.087926  -0.117264  0  1.003204  0
H  H12  1  0.93623073  0.26086361  0.13648514  1  0  0.294527  0.290879  0  0.969527  0
H  H13  1  0.43622962  0.23913683  0.13648587  1  0  0.294519  0.290877  0  0.969526  0
H  H14  1  0.06377002  0.73913733  0.86351524  1  0  0.294513  0.290865  0  0.969538  0
H  H15  1  0.56376987  0.76086289  0.86351440  1  0  0.294523  0.29088  0  0.969519  0
H  H16  1  0.06430732  0.40519823  0.20417127  1  0  0.289196  0.289676  0  0.979146  0
H  H17  1  0.56430713  0.09480221  0.20417149  1  0  0.28919  0.289666  0  0.979157  0
H  H18  1  0.93569216  0.59480148  0.79582900  1  0  0.289177  0.289688  0  0.979114  0
H  H19  1  0.43569362  0.90519873  0.79582889  1  0  0.289195  0.289681  0  0.979142  0
H  H20  1  0.00010715  0.21949660  0.41469050  1  0  0.095519  0.065938  0  1.0074  0
H  H21  1  0.50010699  0.28050278  0.41469087  1  0  0.095522  0.065937  0  1.007399  0
H  H22  1  0.99989234  0.78050434  0.58530976  1  0  0.095529  0.065961  0  1.007353  0
H  H23  1  0.49989376  0.71949572  0.58530951  1  0  0.095513  0.065926  0  1.007408  0
H  H24  1  0.78391947  0.25872852  0.36394527  1  0  0.103411  0.077915  0  0.996685  0
H  H25  1  0.28391964  0.24127085  0.36394492  1  0  0.103408  0.077896  0  0.996724  0
H  H26  1  0.21608127  0.74127120  0.63605512  1  0  0.103403  0.077901  0  0.996693  0
H  H27  1  0.71608112  0.75872887  0.63605427  1  0  0.103399  0.07792  0  0.996678  0
H  H28  1  0.88391680  0.40670876  0.60461525  1  0  0.091985  0.087738  0  1.023564  0
H  H29  1  0.38391818  0.09329081  0.60461610  1  0  0.09198  0.087733  0  1.023545  0
H  H30  1  0.11608143  0.59329218  0.39538490  1  0  0.091985  0.087737  0  1.023548  0
H  H31  1  0.61608258  0.90670769  0.39538309  1  0  0.091971  0.087733  0  1.023546  0
H  H32  1  0.81414592  0.54346371  0.45034926  1  0  0.088837  0.089519  0  1.019421  0
H  H33  1  0.31414611  0.95653745  0.45035027  1  0  0.088882  0.089588  0  1.019452  0
H  H34  1  0.18585358  0.45653723  0.54964981  1  0  0.088849  0.08954  0  1.019383  0
H  H35  1  0.68585464  0.04346227  0.54965011  1  0  0.088842  0.089524  0  1.019424  0
C  C36  1  0.90940450  0.31450945  0.37199591  1  0  -0.075394  0.030621  0  3.889394  0
C  C37  1  0.40940338  0.18549116  0.37199659  1  0  -0.075401  0.030622  0  3.889399  0
C  C38  1  0.09059625  0.68549149  0.62800447  1  0  -0.075406  0.030595  0  3.889325  0
C  C39  1  0.59059611  0.81450856  0.62800367  1  0  -0.075397  0.03061  0  3.889387  0
C  C40  1  0.91510950  0.45654333  0.48909500  1  0  -0.174627  -0.187454  0  3.939231  0
C  C41  1  0.41510837  0.04345614  0.48909439  1  0  -0.174659  -0.187487  0  3.939336  0
C  C42  1  0.08488998  0.54345760  0.51090526  1  0  -0.174625  -0.187436  0  3.939169  0
C  C43  1  0.58489112  0.95654236  0.51090588  1  0  -0.174593  -0.187421  0  3.939196  0
N  N44  1  0.94267499  0.36299933  0.20725900  1  0  -0.630717  -0.571111  0  3.365513  0
N  N45  1  0.44267513  0.13699994  0.20725857  1  0  -0.630715  -0.571111  0  3.365427  0
N  N46  1  0.05732450  0.63700039  0.79274127  1  0  -0.630688  -0.571122  0  3.36547  0
N  N47  1  0.55732562  0.86299978  0.79274181  1  0  -0.630707  -0.571104  0  3.365471  0
O  O48  1  0.59178996  0.53415076  0.23049226  1  0  -0.386208  -0.732466  0  2.380367  0
O  O49  1  0.09179017  0.96584899  0.23049208  1  0  -0.386202  -0.732469  0  2.380383  0
O  O50  1  0.40820952  0.46584896  0.76950801  1  0  -0.38621  -0.73249  0  2.380373  0
O  O51  1  0.90820932  0.03415073  0.76950819  1  0  -0.386213  -0.732492  0  2.380386  0
O  O52  1  0.28380144  0.48351585  0.12959679  1  0  -0.379983  -0.729802  0  2.361321  0
O  O53  1  0.78379996  0.01648456  0.12959803  1  0  -0.379964  -0.729773  0  2.361353  0
O  O54  1  0.71619932  0.51648386  0.87040240  1  0  -0.379991  -0.729834  0  2.361378  0
O  O55  1  0.21619953  0.98351516  0.87040224  1  0  -0.379964  -0.729791  0  2.361355  0
O  O56  1  0.41707735  0.76460430  0.09659812  1  0  -0.386631  -0.742483  0  2.390241  0
O  O57  1  0.91707592  0.73539660  0.09659833  1  0  -0.386651  -0.742525  0  2.390235  0
O  O58  1  0.58292341  0.23539542  0.90340107  1  0  -0.386631  -0.742506  0  2.390259  0
O  O59  1  0.08292357  0.26460434  0.90340193  1  0  -0.38668  -0.742558  0  2.390222  0
