# generated using pymatgen
data_ZnH6C7(N3O)2
_symmetry_space_group_name_H-M   'P 1'
_cell_length_a   9.54349501
_cell_length_b   12.16572866
_cell_length_c   12.16580617
_cell_angle_alpha   88.40282468
_cell_angle_beta   68.83196922
_cell_angle_gamma   68.83241325
_symmetry_Int_Tables_number   1
_chemical_formula_structural   ZnH6C7(N3O)2
_chemical_formula_sum   'Zn4 H24 C28 N24 O8'
_cell_volume   1219.74723705
_cell_formula_units_Z   4
loop_
 _symmetry_equiv_pos_site_id
 _symmetry_equiv_pos_as_xyz
  1  'x, y, z'
loop_
 _atom_site_type_symbol
 _atom_site_label
 _atom_site_symmetry_multiplicity
 _atom_site_fract_x
 _atom_site_fract_y
 _atom_site_fract_z
 _atom_site_occupancy
 _atom_site_pbe_bader_charge
 _atom_site_pbe_bader_spin_density
 _atom_site_pbe_cm5_charge
 _atom_site_pbe_ddec_charge
 _atom_site_pbe_ddec_spin_density
 _atom_site_pbe_ddec_sum_bond_order
 _atom_site_pbe_magmom
Zn  Zn0  1  0.84222014  0.86140363  0.64066683  1  1.226351  0  0.731079  0.70591  0  2.480307  0
Zn  Zn1  1  0.34221658  0.64066685  0.86140637  1  1.226259  0  0.731055  0.705824  0  2.480388  0
Zn  Zn2  1  0.65778237  0.35933447  0.13859320  1  1.226241  0  0.731062  0.705875  0  2.480352  0
Zn  Zn3  1  0.15777928  0.13859679  0.35933344  1  1.226343  0  0.731074  0.705884  0  2.480232  0
H  H4  1  0.16562853  0.51612235  0.27855266  1  0.127015  0  0.110365  0.118217  0  1.030216  0
H  H5  1  0.30270686  0.48800527  0.05501637  1  0.151044  0  0.121453  0.099332  0  0.997283  0
H  H6  1  0.13481902  0.85210625  0.04097884  1  0.152167  0  0.12317  0.089768  0  1.016283  0
H  H7  1  0.99649154  0.89415086  0.26109668  1  0.164276  0  0.10988  0.116896  0  1.040716  0
H  H8  1  0.29223447  0.55547933  0.63068738  1  0.497446  0  0.299145  0.319225  0  0.975529  0
H  H9  1  0.12970230  0.61353379  0.58377327  1  0.511912  0  0.296735  0.317007  0  0.986914  0
H  H10  1  0.66561434  0.27854955  0.51612218  1  0.12706  0  0.110382  0.118303  0  1.030136  0
H  H11  1  0.80269458  0.05501295  0.48800453  1  0.150952  0  0.121476  0.099374  0  0.997286  0
H  H12  1  0.63486141  0.04097615  0.85210362  1  0.153007  0  0.123161  0.08974  0  1.016343  0
H  H13  1  0.49653135  0.26109445  0.89414948  1  0.164079  0  0.109868  0.116963  0  1.04083  0
H  H14  1  0.79222951  0.63068817  0.55548303  1  0.497505  0  0.299195  0.319271  0  0.975463  0
H  H15  1  0.62969726  0.58377570  0.61353708  1  0.512198  0  0.296698  0.316953  0  0.98699  0
H  H16  1  0.33435705  0.72145029  0.48387568  1  0.127141  0  0.110352  0.118179  0  1.030223  0
H  H17  1  0.19727159  0.94498606  0.51199407  1  0.151013  0  0.121494  0.099292  0  0.997341  0
H  H18  1  0.36516093  0.95902582  0.14789479  1  0.151982  0  0.123112  0.089693  0  1.016314  0
H  H19  1  0.50349195  0.73890572  0.10585117  1  0.164123  0  0.109883  0.117013  0  1.040708  0
H  H20  1  0.20777916  0.36930509  0.44451634  1  0.497372  0  0.299218  0.319264  0  0.97554  0
H  H21  1  0.37031052  0.41621933  0.38646251  1  0.512172  0  0.296661  0.316902  0  0.987032  0
H  H22  1  0.83438202  0.48387618  0.72144766  1  0.127071  0  0.110367  0.11828  0  1.030138  0
H  H23  1  0.69730229  0.51199151  0.94498359  1  0.150749  0  0.121459  0.099358  0  0.997209  0
H  H24  1  0.86517676  0.14789243  0.95902173  1  0.152118  0  0.123155  0.089746  0  1.016304  0
H  H25  1  0.00350924  0.10584688  0.73890408  1  0.164252  0  0.109869  0.116891  0  1.040731  0
H  H26  1  0.70777080  0.44452282  0.36931030  1  0.497462  0  0.29916  0.319248  0  0.975519  0
H  H27  1  0.87030137  0.38646927  0.41622404  1  0.51189  0  0.296674  0.316953  0  0.986937  0
C  C28  1  0.99559304  0.72695525  0.42004601  1  1.570762  0  0.211441  0.564579  0  4.205856  0
C  C29  1  0.07019712  0.70717795  0.28661002  1  -0.027801  0  0.004906  0.013575  0  3.935566  0
C  C30  1  0.15659063  0.59175927  0.22788346  1  0.082008  0  -0.075422  -0.132237  0  3.936854  0
C  C31  1  0.23212236  0.57594585  0.10509036  1  0.360267  0  0.049351  0.092238  0  3.909913  0
C  C32  1  0.13844622  0.78021517  0.09680067  1  0.480073  0  0.058723  0.101139  0  3.901997  0
C  C33  1  0.06028647  0.80276303  0.21945082  1  -0.053275  0  -0.071346  -0.123622  0  3.915868  0
C  C34  1  0.13003330  0.71877696  0.71010623  1  1.522029  0  0.328414  0.509969  0  4.13443  0
C  C35  1  0.49559808  0.42004203  0.72695762  1  1.570721  0  0.211432  0.564473  0  4.205736  0
C  C36  1  0.57020453  0.28660936  0.70717910  1  -0.028421  0  0.004965  0.013738  0  3.935529  0
C  C37  1  0.65658689  0.22788215  0.59175822  1  0.082195  0  -0.075447  -0.132355  0  3.936728  0
C  C38  1  0.73212023  0.10508831  0.57594667  1  0.360312  0  0.049323  0.09222  0  3.910088  0
C  C39  1  0.63847251  0.09679904  0.78021320  1  0.478698  0  0.058742  0.10129  0  3.902104  0
C  C40  1  0.56031172  0.21944801  0.80276373  1  -0.052611  0  -0.071423  -0.123972  0  3.916222  0
C  C41  1  0.63002883  0.71010782  0.71878246  1  1.52205  0  0.328381  0.509993  0  4.134456  0
C  C42  1  0.50440046  0.57995573  0.27304462  1  1.570728  0  0.211483  0.564664  0  4.205932  0
C  C43  1  0.42979268  0.71339106  0.29282347  1  -0.027783  0  0.004998  0.013672  0  3.935602  0
C  C44  1  0.34339541  0.77211847  0.40823969  1  0.081708  0  -0.075457  -0.13218  0  3.936816  0
C  C45  1  0.26785740  0.89491498  0.42405420  1  0.359935  0  0.04923  0.092171  0  3.909838  0
C  C46  1  0.36153599  0.90320128  0.21978686  1  0.480177  0  0.0588  0.101363  0  3.902269  0
C  C47  1  0.43969904  0.78055230  0.19723566  1  -0.053099  0  -0.071404  -0.123961  0  3.916125  0
C  C48  1  0.36997407  0.28988996  0.28121274  1  1.522097  0  0.328336  0.509964  0  4.13447  0
C  C49  1  0.00441189  0.27304332  0.57995679  1  1.570729  0  0.211383  0.564553  0  4.205713  0
C  C50  1  0.92980774  0.29282064  0.71339034  1  -0.027883  0  0.004934  0.013652  0  3.935581  0
C  C51  1  0.84341815  0.40823838  0.77211905  1  0.082107  0  -0.075443  -0.132387  0  3.936839  0
C  C52  1  0.76788501  0.42405005  0.89491097  1  0.360558  0  0.049312  0.092226  0  3.909959  0
C  C53  1  0.86155883  0.21978077  0.90319888  1  0.479973  0  0.058689  0.10115  0  3.902089  0
C  C54  1  0.93971658  0.19723469  0.78055009  1  -0.053252  0  -0.071316  -0.123628  0  3.915983  0
C  C55  1  0.86996550  0.28122255  0.28989671  1  1.52209  0  0.32834  0.509901  0  4.134417  0
N  N56  1  0.17569647  0.61291588  0.64804034  1  -1.301692  0  -0.588088  -0.660505  0  3.276941  0
N  N57  1  0.01697992  0.82246909  0.70435758  1  -0.804774  0  -0.275799  -0.352388  0  3.495547  0
N  N58  1  0.00729279  0.90579872  0.78321743  1  -0.100981  0  -0.095049  -0.067813  0  3.283035  0
N  N59  1  0.10953367  0.85653178  0.83302829  1  -0.113943  0  -0.101135  -0.075358  0  3.256289  0
N  N60  1  0.18878766  0.73865487  0.78997540  1  -0.820266  0  -0.274904  -0.34044  0  3.494223  0
N  N61  1  0.22351039  0.66865356  0.04072568  1  -1.269249  0  -0.327523  -0.214279  0  3.558329  0
N  N62  1  0.67569269  0.64804069  0.61291731  1  -1.301976  0  -0.588084  -0.660483  0  3.276879  0
N  N63  1  0.51697700  0.70435854  0.82247113  1  -0.804826  0  -0.275812  -0.352377  0  3.495521  0
N  N64  1  0.50729359  0.78321631  0.90580111  1  -0.101195  0  -0.095071  -0.067918  0  3.283143  0
N  N65  1  0.60953785  0.83302497  0.85653367  1  -0.113768  0  -0.101137  -0.075228  0  3.256348  0
N  N66  1  0.68878898  0.78997246  0.73865625  1  -0.820259  0  -0.27485  -0.340533  0  3.494339  0
N  N67  1  0.72352230  0.04072296  0.66865198  1  -1.269164  0  -0.327488  -0.214247  0  3.558479  0
N  N68  1  0.32431217  0.35195348  0.38708398  1  -1.301749  0  -0.588066  -0.660446  0  3.27688  0
N  N69  1  0.48302235  0.29564190  0.17752670  1  -0.804649  0  -0.275794  -0.352338  0  3.495584  0
N  N70  1  0.49269848  0.21678952  0.09419544  1  -0.101657  0  -0.094979  -0.067811  0  3.283062  0
N  N71  1  0.39045420  0.16698087  0.14346206  1  -0.113539  0  -0.101177  -0.075287  0  3.256353  0
N  N72  1  0.31121035  0.21002799  0.26134076  1  -0.820303  0  -0.274874  -0.340581  0  3.494412  0
N  N73  1  0.27647630  0.95927663  0.33134362  1  -1.269078  0  -0.327449  -0.21421  0  3.558326  0
N  N74  1  0.82430633  0.38708895  0.35195800  1  -1.301821  0  -0.588012  -0.660435  0  3.276749  0
N  N75  1  0.98301683  0.17753222  0.29564510  1  -0.804611  0  -0.275823  -0.352431  0  3.495389  0
N  N76  1  0.99269433  0.09420174  0.21679057  1  -0.101446  0  -0.094982  -0.067762  0  3.282912  0
N  N77  1  0.89045262  0.14347043  0.16698238  1  -0.113534  0  -0.101205  -0.075342  0  3.256398  0
N  N78  1  0.81120644  0.26134732  0.21002968  1  -0.82028  0  -0.274836  -0.340461  0  3.49426  0
N  N79  1  0.77649203  0.33134327  0.95927709  1  -1.269171  0  -0.327456  -0.214243  0  3.558386  0
O  O80  1  0.91931717  0.83632528  0.46614219  1  -1.160877  0  -0.323993  -0.529979  0  2.341938  0
O  O81  1  0.01229065  0.63906591  0.47819229  1  -1.192239  0  -0.311382  -0.551194  0  2.162906  0
O  O82  1  0.41932506  0.46613889  0.83632686  1  -1.160848  0  -0.323954  -0.529858  0  2.341856  0
O  O83  1  0.51229467  0.47819140  0.63906614  1  -1.192222  0  -0.311443  -0.551227  0  2.162743  0
O  O84  1  0.58067706  0.53386062  0.16367263  1  -1.160849  0  -0.32397  -0.52998  0  2.341824  0
O  O85  1  0.48770538  0.52180992  0.36093228  1  -1.192249  0  -0.311461  -0.551274  0  2.163086  0
O  O86  1  0.08068748  0.16367597  0.53385816  1  -1.160895  0  -0.323964  -0.529965  0  2.341898  0
O  O87  1  0.98770991  0.36093449  0.52180847  1  -1.192182  0  -0.311368  -0.551156  0  2.162724  0
