# generated using pymatgen
data_CdH26C26(N2O3)2
_symmetry_space_group_name_H-M   'P 1'
_cell_length_a   10.75414994
_cell_length_b   11.81181753
_cell_length_c   11.97750000
_cell_angle_alpha   96.80924721
_cell_angle_beta   113.05351886
_cell_angle_gamma   110.45126592
_symmetry_Int_Tables_number   1
_chemical_formula_structural   CdH26C26(N2O3)2
_chemical_formula_sum   'Cd2 H52 C52 N8 O12'
_cell_volume   1252.83829626
_cell_formula_units_Z   2
loop_
 _symmetry_equiv_pos_site_id
 _symmetry_equiv_pos_as_xyz
  1  'x, y, z'
loop_
 _atom_site_type_symbol
 _atom_site_label
 _atom_site_symmetry_multiplicity
 _atom_site_fract_x
 _atom_site_fract_y
 _atom_site_fract_z
 _atom_site_occupancy
 _atom_site_hle17_bader_spin_density
 _atom_site_hle17_ddec_charge
 _atom_site_hle17_ddec_spin_density
 _atom_site_hle17_ddec_sum_bond_order
 _atom_site_hle17_magmom
 _atom_site_hse06_10hf_bader_spin_density
 _atom_site_hse06_10hf_ddec_charge
 _atom_site_hse06_10hf_ddec_spin_density
 _atom_site_hse06_10hf_ddec_sum_bond_order
 _atom_site_hse06_10hf_magmom
 _atom_site_hse06_bader_spin_density
 _atom_site_hse06_ddec_charge
 _atom_site_hse06_ddec_spin_density
 _atom_site_hse06_ddec_sum_bond_order
 _atom_site_hse06_magmom
 _atom_site_pbe_bader_charge
 _atom_site_pbe_bader_spin_density
 _atom_site_pbe_cm5_charge
 _atom_site_pbe_ddec_charge
 _atom_site_pbe_ddec_spin_density
 _atom_site_pbe_ddec_sum_bond_order
 _atom_site_pbe_magmom
Cd  Cd0  1  0.70650781  0.51096124  0.58658855  1  0  1.106826  0  1.69529  0  0  0.910992  0  2.137965  0  0  0.971546  0  2.086443  0  1.266752  0  0.77515  0.868674  0  2.172561  0
Cd  Cd1  1  0.29349179  0.48903908  0.41341093  1  0  1.106808  0  1.695293  0  0  0.910975  0  2.137971  0  0  0.971533  0  2.086449  0  1.266741  0  0.775145  0.868658  0  2.172567  0
H  H2  1  0.14889276  0.36785092  0.04603558  1  0  0.315213  0  0.941  0  0  0.292408  0  1.012252  0  0  0.301405  0  1.005133  0  0.544786  0  0.301569  0.286026  0  1.017253  0
H  H3  1  0.85110684  0.63214940  0.95396390  1  0  0.315211  0  0.941007  0  0  0.292397  0  1.012266  0  0  0.301393  0  1.005147  0  0.544782  0  0.30157  0.286014  0  1.017267  0
H  H4  1  0.36512289  0.93797254  0.23960652  1  0  0.304601  0  0.950613  0  0  0.282363  0  1.022095  0  0  0.290948  0  1.015204  0  0.518698  0  0.301192  0.276322  0  1.026963  0
H  H5  1  0.63487723  0.06202683  0.76039303  1  0  0.30459  0  0.950616  0  0  0.282355  0  1.022104  0  0  0.290945  0  1.015211  0  0.5187  0  0.301187  0.276314  0  1.026972  0
H  H6  1  0.07004161  0.68297440  0.71708442  1  0  0.086399  0  0.952799  0  0  0.093499  0  1.019086  0  0  0.096021  0  1.016829  0  0.11371  0  0.117621  0.091581  0  1.020791  0
H  H7  1  0.92995649  0.31702498  0.28291525  1  0  0.086381  0  0.952853  0  0  0.093486  0  1.019123  0  0  0.096007  0  1.016868  0  0.113702  0  0.117628  0.091568  0  1.020829  0
H  H8  1  0.30465153  0.70757000  0.89828255  1  0  0.101824  0  0.953543  0  0  0.115093  0  1.009629  0  0  0.116976  0  1.010485  0  0.084471  0  0.107739  0.113674  0  1.009258  0
H  H9  1  0.69534759  0.29242937  0.10171749  1  0  0.101831  0  0.953519  0  0  0.11511  0  1.009592  0  0  0.116997  0  1.010449  0  0.084448  0  0.107736  0.113688  0  1.009224  0
H  H10  1  0.29178808  0.54658272  0.01816424  1  0  0.107082  0  0.963207  0  0  0.116447  0  1.026028  0  0  0.118721  0  1.025695  0  0.117837  0  0.108076  0.114735  0  1.026383  0
H  H11  1  0.70821152  0.45341760  0.98183524  1  0  0.107088  0  0.963199  0  0  0.116452  0  1.026024  0  0  0.118728  0  1.025691  0  0.117834  0  0.108068  0.114741  0  1.026381  0
H  H12  1  0.81646119  0.35273728  0.76352133  1  0  0.094308  0  0.988966  0  0  0.093908  0  1.064978  0  0  0.097817  0  1.061341  0  0.138411  0  0.110859  0.091105  0  1.067593  0
H  H13  1  0.18353744  0.64726115  0.23647843  1  0  0.094332  0  0.98896  0  0  0.093941  0  1.064955  0  0  0.097852  0  1.061316  0  0.138429  0  0.11086  0.091138  0  1.067569  0
H  H14  1  0.87068795  0.11284804  0.04129766  1  0  0.096613  0  0.937173  0  0  0.111712  0  0.998855  0  0  0.113422  0  0.998265  0  0.050421  0  0.099235  0.11032  0  0.999598  0
H  H15  1  0.12931218  0.88715133  0.95870272  1  0  0.096601  0  0.937193  0  0  0.111686  0  0.998886  0  0  0.113391  0  0.998301  0  0.050424  0  0.099233  0.110295  0  0.999628  0
H  H16  1  0.06664627  0.20979252  0.11255924  1  0  0.110678  0  0.933243  0  0  0.126226  0  0.989357  0  0  0.128915  0  0.988232  0  0.100141  0  0.103627  0.124202  0  0.990343  0
H  H17  1  0.93335333  0.79020780  0.88744107  1  0  0.110637  0  0.933275  0  0  0.126212  0  0.98936  0  0  0.128902  0  0.988234  0  0.100163  0  0.103624  0.124189  0  0.990346  0
H  H18  1  0.08109638  0.08234264  0.93742790  1  0  0.059171  0  0.927144  0  0  0.080348  0  0.982811  0  0  0.080873  0  0.983385  0  0.012109  0  0.088354  0.079762  0  0.982779  0
H  H19  1  0.91890472  0.91765863  0.06257138  1  0  0.059215  0  0.927148  0  0  0.080386  0  0.982812  0  0  0.080909  0  0.983389  0  0.012123  0  0.088373  0.0798  0  0.982779  0
H  H20  1  0.88610029  0.98695469  0.86593765  1  0  0.070863  0  0.924514  0  0  0.091024  0  0.979312  0  0  0.092067  0  0.979895  0  0.040865  0  0.092715  0.09031  0  0.978811  0
H  H21  1  0.11389979  0.01304658  0.13406211  1  0  0.070871  0  0.924506  0  0  0.091029  0  0.979305  0  0  0.092076  0  0.979883  0  0.040858  0  0.092706  0.090314  0  0.978805  0
H  H22  1  0.47449787  0.31331185  0.66232420  1  0  0.072865  0  0.943846  0  0  0.081019  0  1.010399  0  0  0.083095  0  1.008825  0  0.08179  0  0.112666  0.079476  0  1.011607  0
H  H23  1  0.52550274  0.68668847  0.33767563  1  0  0.072885  0  0.943833  0  0  0.081053  0  1.010372  0  0  0.083131  0  1.008795  0  0.081772  0  0.112651  0.079509  0  1.011582  0
H  H24  1  0.26617873  0.09289267  0.55086547  1  0  0.099115  0  0.987566  0  0  0.106369  0  1.052653  0  0  0.107282  0  1.05563  0  0.114252  0  0.103707  0.105591  0  1.050948  0
H  H25  1  0.73382289  0.90710765  0.44913472  1  0  0.099111  0  0.987545  0  0  0.106371  0  1.052623  0  0  0.107285  0  1.055599  0  0.114243  0  0.103715  0.105593  0  1.050919  0
H  H26  1  0.26289527  0.95663187  0.37266000  1  0  0.113587  0  0.935967  0  0  0.124953  0  0.993819  0  0  0.128101  0  0.992156  0  0.093826  0  0.112627  0.122664  0  0.995115  0
H  H27  1  0.73710482  0.04336940  0.62733977  1  0  0.113535  0  0.935933  0  0  0.124917  0  0.993786  0  0  0.128065  0  0.992123  0  0.093805  0  0.112614  0.122628  0  0.995081  0
H  H28  1  0.66796235  0.26506760  0.43152216  1  0  0.105231  0  0.965118  0  0  0.111692  0  1.029399  0  0  0.115428  0  1.025756  0  0.160523  0  0.12122  0.108777  0  1.032474  0
H  H29  1  0.33203523  0.73493272  0.56847577  1  0  0.105197  0  0.965092  0  0  0.111658  0  1.029383  0  0  0.115392  0  1.02574  0  0.160534  0  0.121195  0.108746  0  1.03246  0
H  H30  1  0.61185230  0.89231093  0.19034967  1  0  0.10096  0  0.929032  0  0  0.11749  0  0.988651  0  0  0.118866  0  0.988878  0  0.053391  0  0.100994  0.116453  0  0.988657  0
H  H31  1  0.38814783  0.10768844  0.80964988  1  0  0.100969  0  0.929026  0  0  0.117497  0  0.988645  0  0  0.118873  0  0.988872  0  0.053398  0  0.101  0.116459  0  0.98865  0
H  H32  1  0.41936540  0.85814916  0.11037990  1  0  0.095682  0  0.948537  0  0  0.109484  0  1.012303  0  0  0.112068  0  1.011185  0  0.053175  0  0.097418  0.107677  0  1.013107  0
H  H33  1  0.58063521  0.14185116  0.88961994  1  0  0.095673  0  0.948539  0  0  0.109475  0  1.012302  0  0  0.112059  0  1.011184  0  0.053166  0  0.097411  0.107668  0  1.013107  0
H  H34  1  0.67084171  0.04809951  0.07385326  1  0  0.064396  0  0.946337  0  0  0.081957  0  1.010504  0  0  0.083403  0  1.009836  0  0.020659  0  0.088961  0.080778  0  1.01135  0
H  H35  1  0.32915939  0.95190176  0.92614686  1  0  0.064391  0  0.946337  0  0  0.081949  0  1.010508  0  0  0.083397  0  1.009835  0  0.020665  0  0.088965  0.080761  0  1.011363  0
H  H36  1  0.54356041  0.89407621  0.96850034  1  0  0.057996  0  0.948035  0  0  0.077011  0  1.010743  0  0  0.077909  0  1.010834  0  0.019937  0  0.086226  0.076262  0  1.010869  0
H  H37  1  0.45644020  0.10592411  0.03150033  1  0  0.057985  0  0.948014  0  0  0.076998  0  1.010726  0  0  0.077895  0  1.010818  0  0.019943  0  0.086217  0.076249  0  1.010849  0
H  H38  1  0.56632283  0.73135109  0.84873226  1  0  0.107818  0  0.921841  0  0  0.123041  0  0.980651  0  0  0.125519  0  0.979046  0  0.057075  0  0.100193  0.121348  0  0.981825  0
H  H39  1  0.43367725  0.26865018  0.15126750  1  0  0.107824  0  0.921817  0  0  0.123051  0  0.98062  0  0  0.125533  0  0.979016  0  0.056974  0  0.100207  0.121358  0  0.981794  0
H  H40  1  0.39104786  0.60480844  0.73470761  1  0  0.139095  0  0.947289  0  0  0.149416  0  1.01156  0  0  0.152546  0  1.009952  0  0.137989  0  0.106612  0.147339  0  1.012575  0
H  H41  1  0.60895323  0.39519283  0.26529251  1  0  0.139106  0  0.947253  0  0  0.149411  0  1.011541  0  0  0.152544  0  1.009935  0  0.137998  0  0.106614  0.147333  0  1.012557  0
H  H42  1  0.34254783  0.38087858  0.77084794  1  0  0.09752  0  0.949723  0  0  0.112007  0  1.005531  0  0  0.114294  0  1.005256  0  0.095195  0  0.103421  0.110423  0  1.005667  0
H  H43  1  0.65745327  0.61912269  0.22915218  1  0  0.097505  0  0.949738  0  0  0.111984  0  1.005561  0  0  0.114268  0  1.005287  0  0.095218  0  0.103413  0.1104  0  1.005695  0
H  H44  1  0.66113546  0.73058575  0.06673064  1  0  0.080211  0  0.961807  0  0  0.092771  0  1.024362  0  0  0.095487  0  1.023006  0  0.02373  0  0.094275  0.090814  0  1.025419  0
H  H45  1  0.33886511  0.26941646  0.93327024  1  0  0.080234  0  0.961789  0  0  0.09279  0  1.02435  0  0  0.095504  0  1.022994  0  0.023758  0  0.094291  0.090833  0  1.025407  0
H  H46  1  0.09219776  0.74603050  0.51404306  1  0  0.128352  0  0.928481  0  0  0.144408  0  0.98647  0  0  0.147079  0  0.98484  0  0.103957  0  0.108648  0.14236  0  0.987993  0
H  H47  1  0.90780337  0.25396888  0.48595768  1  0  0.128361  0  0.928455  0  0  0.144432  0  0.986451  0  0  0.147104  0  0.984822  0  0.10398  0  0.108661  0.142383  0  0.987975  0
H  H48  1  0.95482660  0.70446043  0.35502973  1  0  0.102995  0  0.937559  0  0  0.116309  0  1.000124  0  0  0.118403  0  0.999721  0  0.055715  0  0.095268  0.114875  0  1.000398  0
H  H49  1  0.04517453  0.29553894  0.64497102  1  0  0.103007  0  0.937578  0  0  0.116325  0  1.000165  0  0  0.118421  0  0.999761  0  0.055708  0  0.095273  0.114891  0  1.000438  0
H  H50  1  0.90243065  0.86921193  0.28034357  1  0  0.077906  0  0.965184  0  0  0.089169  0  1.028165  0  0  0.09212  0  1.026895  0  0.009982  0  0.089645  0.087141  0  1.029  0
H  H51  1  0.09757049  0.13078744  0.71965718  1  0  0.077895  0  0.965131  0  0  0.089164  0  1.02811  0  0  0.092113  0  1.026841  0  0.009992  0  0.089636  0.087134  0  1.028947  0
H  H52  1  0.08789597  0.91577415  0.68122429  1  0  0.094917  0  0.951494  0  0  0.105964  0  1.013183  0  0  0.10943  0  1.010623  0  0.074706  0  0.097617  0.103411  0  1.015227  0
H  H53  1  0.91210165  0.08422428  0.31877510  1  0  0.094949  0  0.951494  0  0  0.105995  0  1.013184  0  0  0.109459  0  1.010627  0  0.074639  0  0.097618  0.103442  0  1.015228  0
C  C54  1  0.06834707  0.61460165  0.77051383  1  0  0.128638  0  3.696666  0  0  0.092439  0  3.953963  0  0  0.099236  0  3.971919  0  0.506432  0  0.04589  0.088071  0  3.941701  0
C  C55  1  0.93165205  0.38539772  0.22948621  1  0  0.128681  0  3.696805  0  0  0.092481  0  3.954103  0  0  0.099278  0  3.972062  0  0.506407  0  0.045912  0.088113  0  3.94184  0
C  C56  1  0.19874059  0.62801245  0.87237214  1  0  -0.095359  0  3.747081  0  0  -0.107607  0  4.000617  0  0  -0.113369  0  4.022727  0  -0.012644  0  -0.081405  -0.103725  0  3.985596  0
C  C57  1  0.80125852  0.37198692  0.12762873  1  0  -0.09536  0  3.747143  0  0  -0.107608  0  4.000665  0  0  -0.113373  0  4.022776  0  -0.012644  0  -0.081395  -0.103723  0  3.985642  0
C  C58  1  0.19169868  0.53847343  0.93784316  1  0  -0.106104  0  3.691  0  0  -0.130519  0  3.939278  0  0  -0.130402  0  3.95877  0  -0.037918  0  -0.071778  -0.13058  0  3.926212  0
C  C59  1  0.80830145  0.46152595  0.06215723  1  0  -0.106191  0  3.691091  0  0  -0.130596  0  3.939398  0  0  -0.130484  0  3.958897  0  -0.03792  0  -0.071808  -0.130657  0  3.92633  0
C  C60  1  0.05323609  0.43500329  0.89822196  1  0  0.206081  0  3.780983  0  0  0.204817  0  4.027063  0  0  0.208719  0  4.04917  0  0.350443  0  0.099312  0.201849  0  4.012445  0
C  C61  1  0.94675999  0.56499608  0.10177617  1  0  0.206203  0  3.78084  0  0  0.20487  0  4.026993  0  0  0.208772  0  4.049099  0  0.35045  0  0.099348  0.201902  0  4.012376  0
C  C62  1  0.92649520  0.42935649  0.79596968  1  0  0.029366  0  3.676461  0  0  -0.009875  0  3.935708  0  0  -0.00512  0  3.951618  0  0.509774  0  0.035722  -0.013525  0  3.925327  0
C  C63  1  0.07350392  0.57064288  0.20403035  1  0  0.029231  0  3.676321  0  0  -0.010002  0  3.935585  0  0  -0.005249  0  3.951498  0  0.509814  0  0.035669  -0.013653  0  3.925204  0
C  C64  1  0.93277004  0.23247338  0.93499686  1  0  0.596452  0  3.770211  0  0  0.554362  0  4.062287  0  0  0.582143  0  4.063506  0  1.405918  0  0.245922  0.535705  0  4.060841  0
C  C65  1  0.06722907  0.76752599  0.06500317  1  0  0.596383  0  3.770144  0  0  0.554281  0  4.062225  0  0  0.582059  0  4.063447  0  1.40579  0  0.245874  0.535624  0  4.060779  0
C  C66  1  0.96625483  0.15186196  0.02154322  1  0  -0.260551  0  3.681298  0  0  -0.304485  0  3.940821  0  0  -0.309168  0  3.949297  0  -0.085344  0  -0.161417  -0.301176  0  3.93495  0
C  C67  1  0.03374579  0.84813836  0.97845745  1  0  -0.260449  0  3.681309  0  0  -0.30439  0  3.94082  0  0  -0.309067  0  3.949293  0  -0.085208  0  -0.161397  -0.30108  0  3.934949  0
C  C68  1  0.98608423  0.04295031  0.95821947  1  0  -0.077499  0  3.669924  0  0  -0.116169  0  3.931721  0  0  -0.116685  0  3.945604  0  -0.021188  0  -0.158394  -0.115539  0  3.921823  0
C  C69  1  0.01391638  0.95705001  0.04178120  1  0  -0.077604  0  3.669963  0  0  -0.116271  0  3.931764  0  0  -0.11679  0  3.945645  0  0.00268  0  -0.158423  -0.115642  0  3.921866  0
C  C70  1  0.46965867  0.24960961  0.58545997  1  0  0.121463  0  3.698889  0  0  0.086924  0  3.954883  0  0  0.093466  0  3.972342  0  0.488813  0  0.040465  0.082397  0  3.943392  0
C  C71  1  0.53034449  0.75038976  0.41454232  1  0  0.121353  0  3.698989  0  0  0.086806  0  3.954969  0  0  0.093348  0  3.972429  0  0.488767  0  0.040452  0.082281  0  3.943476  0
C  C72  1  0.35435460  0.12764665  0.52319860  1  0  -0.079755  0  3.741103  0  0  -0.093282  0  3.995064  0  0  -0.097152  0  4.016394  0  0.027345  0  -0.079459  -0.091063  0  3.981179  0
C  C73  1  0.64564754  0.87235272  0.47680333  1  0  -0.079731  0  3.74122  0  0  -0.09326  0  3.995182  0  0  -0.09713  0  4.016513  0  0.027363  0  -0.079465  -0.091042  0  3.981297  0
C  C74  1  0.35214261  0.05223835  0.42377038  1  0  -0.108646  0  3.67455  0  0  -0.134328  0  3.924782  0  0  -0.134566  0  3.942169  0  -0.070646  0  -0.071164  -0.133753  0  3.912949  0
C  C75  1  0.64785805  0.94776008  0.57623091  1  0  -0.108553  0  3.674547  0  0  -0.134259  0  3.924784  0  0  -0.134496  0  3.942168  0  -0.070604  0  -0.071156  -0.133685  0  3.912951  0
C  C76  1  0.46652764  0.09985066  0.38883908  1  0  0.215085  0  3.800349  0  0  0.214463  0  4.045961  0  0  0.218957  0  4.068481  0  0.375251  0  0.103476  0.211141  0  4.030693  0
C  C77  1  0.53347297  0.90014966  0.61116159  1  0  0.214973  0  3.800445  0  0  0.214369  0  4.046063  0  0  0.218871  0  4.068584  0  0.375222  0  0.103479  0.211048  0  4.030794  0
C  C78  1  0.57887627  0.22338306  0.45661763  1  0  0.021855  0  3.65957  0  0  -0.018367  0  3.91382  0  0  -0.014724  0  3.93121  0  0.520841  0  0.036476  -0.020961  0  3.902607  0
C  C79  1  0.42112486  0.77661631  0.54338312  1  0  0.021962  0  3.659459  0  0  -0.018266  0  3.913723  0  0  -0.01462  0  3.931109  0  0.521371  0  0.036508  -0.020866  0  3.902514  0
C  C80  1  0.56710519  0.04400891  0.24695561  1  0  0.587499  0  3.784052  0  0  0.547949  0  4.075007  0  0  0.575211  0  4.076676  0  1.40108  0  0.240714  0.529581  0  4.073216  0
C  C81  1  0.43289692  0.95599236  0.75304570  1  0  0.58735  0  3.784141  0  0  0.547863  0  4.075019  0  0  0.575128  0  4.076703  0  1.401002  0  0.240639  0.529495  0  4.073229  0
C  C82  1  0.53333049  0.93232006  0.14458704  1  0  -0.259965  0  3.693926  0  0  -0.302941  0  3.950757  0  0  -0.307402  0  3.959547  0  -0.041832  0  -0.163583  -0.299757  0  3.944596  0
C  C83  1  0.46667013  0.06768026  0.85541280  1  0  -0.25995  0  3.693938  0  0  -0.302939  0  3.950753  0  0  -0.307397  0  3.959542  0  -0.041813  0  -0.163588  -0.29975  0  3.944585  0
C  C84  1  0.55544188  0.97440098  0.03535795  1  0  -0.090017  0  3.701294  0  0  -0.132967  0  3.966932  0  0  -0.133397  0  3.9802  0  -0.005752  0  -0.16689  -0.132433  0  3.957785  0
C  C85  1  0.44455874  0.02559934  0.96464188  1  0  -0.089982  0  3.701259  0  0  -0.132929  0  3.966898  0  0  -0.133358  0  3.980166  0  -0.02913  0  -0.166873  -0.13239  0  3.957752  0
C  C86  1  0.58537215  0.58798440  0.74029743  1  0  0.708178  0  3.837656  0  0  0.662574  0  4.130314  0  0  0.696051  0  4.124011  0  1.522183  0  0.207508  0.639902  0  4.133762  0
C  C87  1  0.41462745  0.41201592  0.25970122  1  0  0.708155  0  3.83771  0  0  0.662555  0  4.130361  0  0  0.696036  0  4.12406  0  1.522172  0  0.207495  0.639883  0  4.133809  0
C  C88  1  0.50527142  0.62784122  0.80643607  1  0  -0.32372  0  3.698902  0  0  -0.366945  0  3.942472  0  0  -0.373137  0  3.94931  0  -0.076265  0  -0.163646  -0.362772  0  3.937784  0
C  C89  1  0.49472867  0.37216005  0.19356369  1  0  -0.323698  0  3.69881  0  0  -0.366898  0  3.942398  0  0  -0.373101  0  3.949242  0  -0.076184  0  -0.163639  -0.362725  0  3.937712  0
C  C90  1  0.50242855  0.56365178  0.90718692  1  0  0.118819  0  3.76913  0  0  0.13664  0  4.007355  0  0  0.13778  0  4.031005  0  0.018415  0  -0.011695  0.135899  0  3.991287  0
C  C91  1  0.49757202  0.43635043  0.09281312  1  0  0.118814  0  3.76898  0  0  0.136582  0  4.007283  0  0  0.137726  0  4.030937  0  0.018472  0  -0.011706  0.135843  0  3.991214  0
C  C92  1  0.41271491  0.43330046  0.87156963  1  0  -0.119589  0  3.739693  0  0  -0.13818  0  3.987927  0  0  -0.140389  0  4.008561  0  -0.136276  0  -0.092826  -0.136484  0  3.973569  0
C  C93  1  0.58728667  0.56670176  0.12843076  1  0  -0.119476  0  3.739588  0  0  -0.138051  0  3.98785  0  0  -0.140257  0  4.008481  0  -0.136323  0  -0.092766  -0.136355  0  3.973491  0
C  C94  1  0.58960980  0.62916470  0.03695675  1  0  -0.133882  0  3.771308  0  0  -0.154356  0  4.023688  0  0  -0.156637  0  4.044295  0  -0.029931  0  -0.098121  -0.152716  0  4.009622  0
C  C95  1  0.41039029  0.37083656  0.96304301  1  0  -0.133873  0  3.77124  0  0  -0.154333  0  4.023639  0  0  -0.156611  0  4.044244  0  -0.029949  0  -0.098125  -0.152692  0  4.009572  0
C  C96  1  0.87156130  0.65275469  0.48661889  1  0  0.672596  0  3.884176  0  0  0.63021  0  4.18079  0  0  0.662933  0  4.176687  0  1.553011  0  0.18801  0.608003  0  4.182551  0
C  C97  1  0.12843931  0.34724563  0.51338178  1  0  0.672512  0  3.884264  0  0  0.63015  0  4.180879  0  0  0.662873  0  4.176778  0  1.553008  0  0.187996  0.607942  0  4.18264  0
C  C98  1  0.98341949  0.74511191  0.45399043  1  0  -0.305889  0  3.692985  0  0  -0.349353  0  3.936711  0  0  -0.355158  0  3.943587  0  -0.063997  0  -0.162762  -0.34525  0  3.931865  0
C  C99  1  0.01658213  0.25488841  0.54601059  1  0  -0.305849  0  3.692955  0  0  -0.349374  0  3.936756  0  0  -0.35518  0  3.943635  0  -0.064002  0  -0.162772  -0.345265  0  3.931904  0
C  C100  1  0.99469531  0.87701850  0.47809352  1  0  0.120433  0  3.755749  0  0  0.138372  0  3.992736  0  0  0.139835  0  4.015845  0  0.041084  0  -0.01445  0.137502  0  3.976793  0
C  C101  1  0.00530280  0.12298088  0.52190699  1  0  0.120382  0  3.755756  0  0  0.138329  0  3.992773  0  0  0.139789  0  4.015886  0  0.04107  0  -0.01446  0.137458  0  3.976829  0
C  C102  1  0.94532208  0.92664205  0.37729652  1  0  -0.156077  0  3.789018  0  0  -0.17068  0  4.036209  0  0  -0.174196  0  4.057441  0  -0.09228  0  -0.105508  -0.168199  0  4.021553  0
C  C103  1  0.05467655  0.07335638  0.62270323  1  0  -0.156042  0  3.788896  0  0  -0.17064  0  4.036075  0  0  -0.174157  0  4.057313  0  -0.092276  0  -0.105494  -0.168159  0  4.02142  0
C  C104  1  0.04978288  0.95273237  0.60161466  1  0  -0.106611  0  3.750228  0  0  -0.129133  0  4.003388  0  0  -0.129923  0  4.021839  0  -0.073179  0  -0.095875  -0.128534  0  3.991056  0
C  C105  1  0.95021474  0.04726606  0.39838557  1  0  -0.10668  0  3.750337  0  0  -0.129201  0  4.003495  0  0  -0.12999  0  4.021946  0  -0.073118  0  -0.095896  -0.128602  0  3.991163  0
N  N106  1  0.93539688  0.51780192  0.73506892  1  0  -0.31879  0  3.300638  0  0  -0.2418  0  3.566657  0  0  -0.261168  0  3.587178  0  -1.227711  0  -0.3264  -0.228461  0  3.552429  0
N  N107  1  0.06460223  0.48219746  0.26493111  1  0  -0.318754  0  3.300626  0  0  -0.241762  0  3.566641  0  0  -0.261129  0  3.587165  0  -1.227707  0  -0.326392  -0.228423  0  3.552413  0
N  N108  1  0.04982206  0.34443878  0.96398033  1  0  -0.452847  0  3.353238  0  0  -0.396209  0  3.588275  0  0  -0.419898  0  3.600273  0  -1.319966  0  -0.392975  -0.379905  0  3.57975  0
N  N109  1  0.95017806  0.65556059  0.03601923  1  0  -0.452848  0  3.353244  0  0  -0.396159  0  3.588271  0  0  -0.419847  0  3.600272  0  -1.319987  0  -0.392969  -0.379853  0  3.579738  0
N  N110  1  0.57841771  0.29553516  0.55194678  1  0  -0.319522  0  3.319096  0  0  -0.238657  0  3.584635  0  0  -0.257863  0  3.604823  0  -1.255324  0  -0.333943  -0.225464  0  3.57077  0
N  N111  1  0.42158391  0.70446516  0.44805591  1  0  -0.319508  0  3.319019  0  0  -0.238649  0  3.584574  0  0  -0.257857  0  3.604762  0  -1.255787  0  -0.333936  -0.225456  0  3.570711  0
N  N112  1  0.46168729  0.02198270  0.28867421  1  0  -0.470129  0  3.375025  0  0  -0.414523  0  3.611114  0  0  -0.438077  0  3.62291  0  -1.296455  0  -0.403569  -0.398187  0  3.60259  0
N  N113  1  0.53831130  0.97801762  0.71132408  1  0  -0.469994  0  3.375016  0  0  -0.414445  0  3.611113  0  0  -0.438022  0  3.622932  0  -1.296441  0  -0.40354  -0.39811  0  3.602589  0
O  O114  1  0.80681709  0.19534677  0.84116087  1  0  -0.580728  0  1.979614  0  0  -0.528203  0  2.201981  0  0  -0.550059  0  2.19598  0  -1.186027  0  -0.295502  -0.513154  0  2.205736  0
O  O115  1  0.19318153  0.80465165  0.15883972  1  0  -0.580688  0  1.979497  0  0  -0.528161  0  2.201864  0  0  -0.550013  0  2.195862  0  -1.186016  0  -0.295459  -0.513112  0  2.205617  0
O  O116  1  0.68164249  0.14472423  0.28761769  1  0  -0.550238  0  1.914794  0  0  -0.502817  0  2.129194  0  0  -0.524555  0  2.125318  0  -1.164412  0  -0.287853  -0.487748  0  2.131562  0
O  O117  1  0.31835662  0.85527514  0.71238150  1  0  -0.550189  0  1.914802  0  0  -0.502777  0  2.129163  0  0  -0.524509  0  2.125289  0  -1.164389  0  -0.287803  -0.48771  0  2.131541  0
O  O118  1  0.70769338  0.58230827  0.80539224  1  0  -0.657147  0  1.992677  0  0  -0.599546  0  2.230116  0  0  -0.626181  0  2.221935  0  -1.206057  0  -0.325372  -0.580879  0  2.234897  0
O  O119  1  0.29230772  0.41769300  0.19460787  1  0  -0.657116  0  1.992712  0  0  -0.599528  0  2.230157  0  0  -0.626159  0  2.221969  0  -1.206039  0  -0.325362  -0.58086  0  2.234938  0
O  O120  1  0.52744717  0.56040409  0.61955268  1  0  -0.655318  0  2.07918  0  0  -0.575541  0  2.33656  0  0  -0.60815  0  2.327642  0  -1.129936  0  -0.323417  -0.552728  0  2.341687  0
O  O121  1  0.47255392  0.43959717  0.38044744  1  0  -0.655361  0  2.079196  0  0  -0.575577  0  2.336573  0  0  -0.608191  0  2.327655  0  -1.129937  0  -0.323429  -0.552764  0  2.341701  0
O  O122  1  0.83828197  0.69931691  0.56746228  1  0  -0.653523  0  1.958725  0  0  -0.586735  0  2.19883  0  0  -0.617251  0  2.191387  0  -1.159005  0  -0.343199  -0.565173  0  2.203028  0
O  O123  1  0.16171864  0.30068341  0.43253755  1  0  -0.653499  0  1.958697  0  0  -0.586728  0  2.198814  0  0  -0.617239  0  2.191361  0  -1.158999  0  -0.343211  -0.565167  0  2.203013  0
O  O124  1  0.82154980  0.53520209  0.43725155  1  0  -0.636819  0  1.900315  0  0  -0.582621  0  2.127532  0  0  -0.609463  0  2.119832  0  -1.172831  0  -0.337933  -0.563993  0  2.131931  0
O  O125  1  0.17845033  0.46479729  0.56274884  1  0  -0.636768  0  1.900399  0  0  -0.58257  0  2.127599  0  0  -0.609413  0  2.119903  0  -1.172827  0  -0.337918  -0.563941  0  2.131997  0
