# generated using pymatgen
data_Na2CuH20C12(N2O3)6
_symmetry_space_group_name_H-M   'P 1'
_cell_length_a   6.83263234
_cell_length_b   10.35232979
_cell_length_c   10.33354509
_cell_angle_alpha   61.49174752
_cell_angle_beta   82.81640195
_cell_angle_gamma   72.15994525
_symmetry_Int_Tables_number   1
_chemical_formula_structural   Na2CuH20C12(N2O3)6
_chemical_formula_sum   'Na2 Cu1 H20 C12 N12 O18'
_cell_volume   611.22237709
_cell_formula_units_Z   1
loop_
 _symmetry_equiv_pos_site_id
 _symmetry_equiv_pos_as_xyz
  1  'x, y, z'
loop_
 _atom_site_type_symbol
 _atom_site_label
 _atom_site_symmetry_multiplicity
 _atom_site_fract_x
 _atom_site_fract_y
 _atom_site_fract_z
 _atom_site_occupancy
 _atom_site_hle17_ddec_charge
 _atom_site_hle17_ddec_spin_density
 _atom_site_hle17_ddec_sum_bond_order
 _atom_site_hle17_magmom
 _atom_site_hse06_10hf_ddec_charge
 _atom_site_hse06_10hf_ddec_spin_density
 _atom_site_hse06_10hf_ddec_sum_bond_order
 _atom_site_hse06_10hf_magmom
 _atom_site_hse06_ddec_charge
 _atom_site_hse06_ddec_spin_density
 _atom_site_hse06_ddec_sum_bond_order
 _atom_site_hse06_magmom
 _atom_site_pbe_cm5_charge
 _atom_site_pbe_ddec_charge
 _atom_site_pbe_ddec_spin_density
 _atom_site_pbe_ddec_sum_bond_order
 _atom_site_pbe_magmom
Na  Na0  1  0.76065997  0.53107716  0.40454599  1  0.908547  1.7e-05  0.358273  0.0  0.869697  1.8e-05  0.504655  0.0  0.878495  1.6e-05  0.483884  0.0  0.657803  0.862849  2e-05  0.520503  0.0
Na  Na1  1  0.23933834  0.46892552  0.59545137  1  0.908551  1.7e-05  0.35827  0.0  0.869701  1.8e-05  0.504642  0.0  0.8785  1.6e-05  0.48387  0.0  0.657791  0.862848  2e-05  0.52049  0.0
Cu  Cu2  1  0.00000000  0.00000000  0.00000000  1  0.982814  0.708323  1.758947  0.544  0.95208  0.787041  2.157434  0.645  1.038248  0.838897  2.079155  0.715  0.776025  0.894415  0.749431  2.213939  0.598
H  H3  1  0.12181059  0.13894043  0.37240203  1  0.340508  0.000359  0.911133  0.001  0.311815  0.000293  0.983465  0.001  0.322663  0.000221  0.974333  0.0  0.309672  0.304243  0.000324  0.989775  0.001
H  H4  1  0.87818568  0.86105991  0.62759754  1  0.340501  0.000359  0.911131  0.001  0.311808  0.000293  0.983458  0.001  0.322655  0.000222  0.974327  0.0  0.309669  0.304238  0.000324  0.989768  0.001
H  H5  1  0.76642802  0.49611928  0.01219095  1  0.338926  0.000348  0.915392  0.001  0.310264  0.000276  0.987916  0.001  0.321089  0.00021  0.978768  0.0  0.30991  0.302736  0.00033  0.994175  0.001
H  H6  1  0.23357367  0.50388226  0.98780862  1  0.338935  0.000348  0.915382  0.001  0.310281  0.000276  0.987893  0.001  0.321103  0.000209  0.978747  0.0  0.309907  0.302751  0.00033  0.994151  0.001
H  H7  1  0.69872359  0.11281859  0.56328404  1  0.342889  2.8e-05  0.908755  0.0  0.318201  4.6e-05  0.975154  0.0  0.328851  3.7e-05  0.965966  0.0  0.313737  0.310716  3.1e-05  0.981664  0.0
H  H8  1  0.30127461  0.88718063  0.43671592  1  0.342889  3e-05  0.908763  0.0  0.318199  4.6e-05  0.975162  0.0  0.328851  3.7e-05  0.965973  0.0  0.313722  0.310715  3.1e-05  0.981674  0.0
H  H9  1  0.33680605  0.46890646  0.20917706  1  0.344353  1e-05  0.903192  0.0  0.319528  2.3e-05  0.969638  0.0  0.330188  1.8e-05  0.960396  0.0  0.316321  0.312032  2.5e-05  0.976251  0.0
H  H10  1  0.66319757  0.53109396  0.79082191  1  0.344385  1e-05  0.903136  0.0  0.319567  2.2e-05  0.969572  0.0  0.330228  1.9e-05  0.96033  0.0  0.316328  0.31207  2.5e-05  0.976184  0.0
H  H11  1  0.68335943  0.89751388  0.11465416  1  0.429888  -2e-06  0.870464  0.0  0.403815  0.000719  0.926034  0.001  0.415883  0.000533  0.908991  0.001  0.29143  0.395198  0.000849  0.938197  0.001
H  H12  1  0.31664079  0.10248766  0.88534456  1  0.429972  -2e-06  0.87038  0.0  0.403908  0.000719  0.925933  0.001  0.415978  0.000533  0.908886  0.001  0.291453  0.395287  0.000849  0.938101  0.001
H  H13  1  0.67485693  0.03534779  0.15671885  1  0.403674  0.000209  0.915251  0.001  0.366192  0.000872  0.989533  0.002  0.379135  0.000616  0.971625  0.001  0.282603  0.356997  0.001024  1.0022  0.002
H  H14  1  0.32514181  0.96465372  0.84328096  1  0.403725  0.000209  0.915172  0.001  0.366228  0.000872  0.989481  0.002  0.379171  0.000616  0.971572  0.001  0.282606  0.357036  0.001024  1.002144  0.002
H  H15  1  0.06086657  0.69661433  0.29564191  1  0.419347  -0.000228  0.875529  0.0  0.386404  -0.000294  0.944626  0.0  0.395924  -0.000284  0.929993  0.0  0.297268  0.379033  -0.00028  0.955968  0.0
H  H16  1  0.93913274  0.30338948  0.70435678  1  0.419339  -0.000227  0.875548  0.0  0.386408  -0.000293  0.944618  0.0  0.395931  -0.000284  0.929983  0.0  0.297258  0.379034  -0.00028  0.955961  0.0
H  H17  1  0.93464099  0.77035782  0.39464249  1  0.430507  -5.3e-05  0.858873  0.0  0.39827  -7.1e-05  0.924998  0.0  0.408196  -6.9e-05  0.910199  0.0  0.295984  0.390909  -7.1e-05  0.936079  0.0
H  H18  1  0.06535675  0.22964255  0.60535599  1  0.430543  -5.2e-05  0.858819  0.0  0.398299  -7.1e-05  0.924961  0.0  0.408228  -6.9e-05  0.910157  0.0  0.295998  0.390932  -7.1e-05  0.936048  0.0
H  H19  1  0.43511466  0.80850742  0.18693002  1  0.430642  -0.000132  0.839462  0.0  0.399894  -8.3e-05  0.915559  0.0  0.408657  -7.9e-05  0.902364  0.0  0.30832  0.393251  -8.8e-05  0.925716  0.0
H  H20  1  0.56488365  0.19149526  0.81306734  1  0.430654  -0.000131  0.839474  0.0  0.399905  -8.3e-05  0.91555  0.0  0.408668  -7.9e-05  0.902355  0.0  0.308321  0.393256  -8.8e-05  0.925714  0.0
H  H21  1  0.56522069  0.73645921  0.08930234  1  0.434809  -4.2e-05  0.851294  0.0  0.399291  7e-06  0.923785  0.0  0.409466  -1e-06  0.90881  0.0  0.297795  0.391596  2.5e-05  0.935081  0.0
H  H22  1  0.43478100  0.26354234  0.91069625  1  0.434836  -4e-05  0.851254  0.0  0.399314  7e-06  0.923757  0.0  0.409486  -0.0  0.908784  0.0  0.297786  0.39162  2.5e-05  0.935052  0.0
C  C23  1  0.10170234  0.08747991  0.20084297  1  0.771996  -0.00195  3.847706  -0.002  0.700604  -8.5e-05  4.159157  0.0  0.739037  -0.000767  4.153293  -0.001  0.335193  0.674577  0.000406  4.162469  0.0
C  C24  1  0.89829822  0.91251701  0.79915884  1  0.771912  -0.001953  3.847611  -0.002  0.700519  -8.7e-05  4.159072  0.0  0.738943  -0.000764  4.153215  -0.001  0.335186  0.674494  0.000406  4.162383  0.0
C  C25  1  0.94342408  0.33241075  0.20012549  1  0.778889  -0.001087  3.852484  -0.001  0.705295  -0.000325  4.161887  0.0  0.741116  -0.00032  4.15523  0.0  0.342121  0.680991  -0.000284  4.16583  0.0
C  C26  1  0.05657265  0.66758846  0.79987459  1  0.778886  -0.00108  3.852572  -0.001  0.70528  -0.000329  4.162  0.0  0.741101  -0.000318  4.15534  0.0  0.342124  0.680977  -0.000284  4.165946  0.0
C  C27  1  0.89537125  0.29285880  0.99395640  1  0.773865  -0.002133  3.851189  -0.002  0.704199  -0.000218  4.157383  0.0  0.742669  -0.000824  4.151738  -0.001  0.33914  0.678177  0.000368  4.160283  0.0
C  C28  1  0.10462797  0.70714159  0.00604196  1  0.773932  -0.002138  3.851194  -0.002  0.704228  -0.00022  4.157435  0.0  0.742695  -0.000823  4.151792  -0.001  0.339139  0.678208  0.000368  4.160345  0.0
C  C29  1  0.67677794  0.06331422  0.38995907  1  0.758716  -7.8e-05  3.868903  0.0  0.681822  4.7e-05  4.190617  0.0  0.717185  0.0  4.1864  0.0  0.329497  0.657965  7e-05  4.192414  0.0
C  C30  1  0.32322127  0.93668616  0.61004027  1  0.758777  -7.2e-05  3.868793  0.0  0.681915  4.6e-05  4.190469  0.0  0.71728  4e-06  4.186243  0.0  0.329526  0.658061  7e-05  4.192269  0.0
C  C31  1  0.51475031  0.30444031  0.39533575  1  0.791373  -9.6e-05  3.857998  0.0  0.723768  -4e-05  4.154764  0.0  0.759664  -2.1e-05  4.147395  0.0  0.353351  0.69942  -3.1e-05  4.15924  0.0
C  C32  1  0.48525330  0.69556009  0.60466420  1  0.791405  -7.7e-05  3.857929  0.0  0.72379  -4.2e-05  4.1547  0.0  0.759684  -2e-05  4.147334  0.0  0.35339  0.699442  -3.1e-05  4.159179  0.0
C  C33  1  0.47088645  0.26713084  0.18738939  1  0.759568  -0.000292  3.862991  0.0  0.682834  -8.7e-05  4.183609  0.0  0.718237  -7.8e-05  4.179461  0.0  0.329232  0.658981  -2.4e-05  4.185295  0.0
C  C34  1  0.52911320  0.73286838  0.81261142  1  0.759546  -0.0003  3.863079  0.0  0.682833  -8.8e-05  4.183664  0.0  0.71824  -7.4e-05  4.179508  0.0  0.329199  0.658981  -2.4e-05  4.185356  0.0
N  N35  1  0.01181049  0.14524141  0.06692618  1  -0.670622  0.069199  3.200452  0.092  -0.623361  0.047189  3.520384  0.065  -0.667697  0.038006  3.525739  0.056  -0.409255  -0.594015  0.052811  3.516814  0.069
N  N36  1  0.98819064  0.85475783  0.93307353  1  -0.670625  0.069201  3.200503  0.092  -0.623352  0.047184  3.520445  0.065  -0.667685  0.038008  3.525804  0.056  -0.409262  -0.594006  0.052806  3.516881  0.069
N  N37  1  0.06226974  0.18239267  0.26577554  1  -0.585461  0.003531  3.25408  0.005  -0.520218  0.002276  3.503374  0.003  -0.547313  0.001766  3.502865  0.002  -0.393562  -0.501744  0.002586  3.503037  0.003
N  N38  1  0.93772947  0.81760770  0.73422380  1  -0.585449  0.003528  3.254112  0.005  -0.520211  0.002277  3.503419  0.003  -0.547315  0.001767  3.502937  0.002  -0.393575  -0.501734  0.002586  3.503084  0.003
N  N39  1  0.86418252  0.38352267  0.06257832  1  -0.579343  0.003429  3.245008  0.004  -0.515833  0.002254  3.496106  0.003  -0.542678  0.001774  3.495489  0.002  -0.393594  -0.497698  0.002597  3.496068  0.003
N  N40  1  0.13581816  0.61647774  0.93741992  1  -0.579364  0.003428  3.245015  0.004  -0.515846  0.002254  3.496124  0.003  -0.542689  0.001774  3.495506  0.002  -0.393586  -0.497708  0.002597  3.496089  0.003
N  N41  1  0.59260755  0.12131062  0.25478347  1  -0.656314  0.003185  3.029143  0.004  -0.598029  0.001806  3.303604  0.003  -0.627174  0.001013  3.306676  0.002  -0.358255  -0.577356  0.002952  3.300245  0.004
N  N42  1  0.40739212  0.87868861  0.74521637  1  -0.656362  0.003193  3.029105  0.004  -0.598092  0.001807  3.303559  0.003  -0.627232  0.001011  3.306622  0.002  -0.358275  -0.577418  0.002952  3.300204  0.004
N  N43  1  0.63663467  0.15594663  0.45780073  1  -0.582049  0.000254  3.247908  0.0  -0.51907  0.00012  3.496072  0.0  -0.545669  6.4e-05  3.496216  0.0  -0.392262  -0.501116  0.000167  3.49571  0.0
N  N44  1  0.36336647  0.84405261  0.54219898  1  -0.582076  0.000237  3.247859  0.0  -0.519105  0.000122  3.496032  0.0  -0.545705  6.3e-05  3.496179  0.0  -0.392269  -0.501149  0.000167  3.49567  0.0
N  N45  1  0.43035699  0.35543907  0.25985060  1  -0.57455  0.000138  3.227093  0.0  -0.511623  8.4e-05  3.474887  0.0  -0.537629  4.6e-05  3.474212  0.0  -0.388052  -0.493962  0.000166  3.475093  0.0
N  N46  1  0.56964662  0.64456133  0.74014935  1  -0.574608  0.000131  3.227082  0.0  -0.511679  8.4e-05  3.474868  0.0  -0.537681  4.5e-05  3.474187  0.0  -0.388031  -0.494015  0.000166  3.475073  0.0
O  O47  1  0.21344476  0.95210258  0.26518596  1  -0.601517  -0.001282  1.932568  0.0  -0.551553  -0.000675  2.163117  0.0  -0.573776  -0.000888  2.15005  0.0  -0.287442  -0.536178  -0.000382  2.172393  0.0
O  O48  1  0.78655341  0.04789660  0.73481692  1  -0.60145  -0.001283  1.932348  0.0  -0.55148  -0.000674  2.162875  0.0  -0.573704  -0.000894  2.149832  0.0  -0.287416  -0.536103  -0.000381  2.172145  0.0
O  O49  1  0.90989328  0.41539573  0.26007920  1  -0.623085  -0.000662  1.878265  0.0  -0.582959  -0.000394  2.110119  0.0  -0.601426  -0.000478  2.099224  0.0  -0.363661  -0.57024  -0.000357  2.118011  0.0
O  O50  1  0.09010094  0.58460227  0.73992357  1  -0.623094  -0.000661  1.878359  0.0  -0.582952  -0.00039  2.110205  0.0  -0.601417  -0.000482  2.09931  0.0  -0.363669  -0.570239  -0.000357  2.118109  0.0
O  O51  1  0.81546808  0.34536322  0.86951997  1  -0.608689  -0.001285  1.950874  0.0  -0.55603  -0.000714  2.180096  0.0  -0.579282  -0.000958  2.167618  0.0  -0.280911  -0.539763  -0.000538  2.188804  0.0
O  O52  1  0.18453849  0.65463725  0.13047682  1  -0.608724  -0.00129  1.950903  0.0  -0.556013  -0.00071  2.180114  0.0  -0.579253  -0.000962  2.167626  0.0  -0.2809  -0.539744  -0.000538  2.188828  0.0
O  O53  1  0.79237156  0.92817940  0.45536616  1  -0.611449  0.00039  1.9321  0.001  -0.550204  0.000167  2.15354  0.0  -0.573816  8.5e-05  2.144608  0.0  -0.295002  -0.533444  0.000298  2.159225  0.0
O  O54  1  0.20762516  0.07181980  0.54463392  1  -0.611444  0.000388  1.932097  0.001  -0.550202  0.000167  2.153506  0.0  -0.573833  8.3e-05  2.144613  0.0  -0.294981  -0.533442  0.000298  2.159192  0.0
O  O55  1  0.48570228  0.38719859  0.45571688  1  -0.667824  -0.0  1.894582  0.0  -0.629551  5e-06  2.130237  0.0  -0.647518  8e-06  2.115943  0.0  -0.384887  -0.616687  3.3e-05  2.140265  0.0
O  O56  1  0.51430075  0.61279948  0.54428614  1  -0.667829  3e-06  1.894607  0.0  -0.629563  3e-06  2.130279  0.0  -0.64753  9e-06  2.115987  0.0  -0.384915  -0.616701  3.3e-05  2.140311  0.0
O  O57  1  0.39356147  0.32589711  0.05996960  1  -0.614458  0.000449  1.943859  0.001  -0.552059  0.000237  2.16636  0.0  -0.575712  0.000123  2.157313  0.0  -0.296116  -0.535292  0.000385  2.172277  0.001
O  O58  1  0.60643976  0.67410558  0.94002947  1  -0.614452  0.000452  1.943876  0.001  -0.552045  0.000239  2.166346  0.0  -0.575714  0.000121  2.157311  0.0  -0.296128  -0.535279  0.000385  2.172266  0.001
O  O59  1  0.72810458  0.99197969  0.08359849  1  -0.839633  0.071241  2.015869  0.102  -0.803904  0.051678  2.258653  0.078  -0.840115  0.040158  2.22023  0.066  -0.590046  -0.778945  0.0597  2.286424  0.086
O  O60  1  0.27189415  0.00802180  0.91640229  1  -0.839749  0.071242  2.015791  0.102  -0.804012  0.051679  2.258558  0.078  -0.840233  0.040158  2.220146  0.066  -0.590061  -0.779058  0.059703  2.286334  0.086
O  O61  1  0.99515780  0.67271031  0.39132052  1  -0.897776  -0.000201  1.767475  0.0  -0.856192  -0.000285  1.935204  0.0  -0.870804  -0.00028  1.903505  0.0  -0.666624  -0.845805  -0.000274  1.959285  0.0
O  O62  1  0.00483995  0.32729006  0.60867796  1  -0.897812  -0.000203  1.767454  0.0  -0.85623  -0.000285  1.935182  0.0  -0.870841  -0.000281  1.903475  0.0  -0.666638  -0.845841  -0.000274  1.959274  0.0
O  O63  1  0.57528645  0.75393937  0.17399436  1  -0.837118  0.002573  1.820161  0.004  -0.787364  0.001635  1.996561  0.002  -0.804973  0.000906  1.966036  0.001  -0.597716  -0.774647  0.002446  2.019479  0.003
O  O64  1  0.42471378  0.24606218  0.82600338  1  -0.837175  0.00257  1.82012  0.004  -0.787422  0.001635  1.996501  0.002  -0.80503  0.000904  1.965979  0.001  -0.597713  -0.774705  0.002446  2.019424  0.003
