# generated using pymatgen
data_Cu3H20C18(NO6)2
_symmetry_space_group_name_H-M   'P 1'
_cell_length_a   7.20600158
_cell_length_b   8.34229257
_cell_length_c   10.81300308
_cell_angle_alpha   90.46988004
_cell_angle_beta   82.70659566
_cell_angle_gamma   65.14572002
_symmetry_Int_Tables_number   1
_chemical_formula_structural   Cu3H20C18(NO6)2
_chemical_formula_sum   'Cu3 H20 C18 N2 O12'
_cell_volume   583.67190799
_cell_formula_units_Z   1
loop_
 _symmetry_equiv_pos_site_id
 _symmetry_equiv_pos_as_xyz
  1  'x, y, z'
loop_
 _atom_site_type_symbol
 _atom_site_label
 _atom_site_symmetry_multiplicity
 _atom_site_fract_x
 _atom_site_fract_y
 _atom_site_fract_z
 _atom_site_occupancy
 _atom_site_hle17_ddec_charge
 _atom_site_hle17_ddec_spin_density
 _atom_site_hle17_ddec_sum_bond_order
 _atom_site_hle17_magmom
 _atom_site_hse06_10hf_ddec_charge
 _atom_site_hse06_10hf_ddec_spin_density
 _atom_site_hse06_10hf_ddec_sum_bond_order
 _atom_site_hse06_10hf_magmom
 _atom_site_hse06_ddec_charge
 _atom_site_hse06_ddec_spin_density
 _atom_site_hse06_ddec_sum_bond_order
 _atom_site_hse06_magmom
 _atom_site_pbe_cm5_charge
 _atom_site_pbe_ddec_charge
 _atom_site_pbe_ddec_spin_density
 _atom_site_pbe_ddec_sum_bond_order
 _atom_site_pbe_magmom
Cu  Cu0  1  0.00002450  0.99998767  0.00000822  1  0.829803  0.685783  1.756223  0.488  0.806871  0.760555  2.121953  0.592  0.893228  0.829941  2.059191  0.672  0.75399  0.754953  0.712598  2.164934  0.542
Cu  Cu1  1  0.57898744  0.01605310  0.38962211  1  0.858344  -0.682502  1.854135  -0.472  0.852379  -0.808882  2.257885  -0.624  0.956394  -0.918148  2.1767  -0.731  0.658701  0.781671  -0.660687  2.319139  -0.503
Cu  Cu2  1  0.42093959  0.98397098  0.61037198  1  0.85795  0.65114  1.854726  0.472  0.852029  0.78865  2.258632  0.623  0.95609  0.887226  2.177316  0.73  0.658649  0.781257  0.649354  2.319886  0.502
H  H3  1  0.51273602  0.96200358  0.12722031  1  0.035208  0.007297  0.938422  0.009  0.043093  0.005071  1.007408  0.006  0.042962  0.0035  1.002427  0.004  0.115975  0.043151  0.006318  1.010912  0.007
H  H4  1  0.48724345  0.03803286  0.87272309  1  0.035173  0.007194  0.938543  0.009  0.043065  0.004982  1.007521  0.006  0.042941  0.003411  1.002535  0.004  0.115994  0.043118  0.006238  1.011047  0.007
H  H5  1  0.32202513  0.32692946  0.96949448  1  0.112101  0.000704  0.958651  0.001  0.122902  0.000633  1.01776  0.001  0.125635  0.000443  1.017429  0.0  0.107566  0.120873  0.000783  1.018271  0.001
H  H6  1  0.67802327  0.67305262  0.03052578  1  0.112184  0.000689  0.958636  0.001  0.122896  0.000615  1.017836  0.001  0.125612  0.000434  1.017536  0.0  0.107506  0.120871  0.00076  1.018329  0.001
H  H7  1  0.36560183  0.30313198  0.19588711  1  0.103685  0.000328  0.962095  0.001  0.113458  8.9e-05  1.023435  0.0  0.11577  5.2e-05  1.021268  0.0  0.109197  0.111671  0.000125  1.025144  0.0
H  H8  1  0.63442621  0.69685142  0.80413148  1  0.103538  0.000273  0.961879  0.001  0.113269  4.9e-05  1.023298  0.0  0.115575  -4e-06  1.021145  0.0  0.109175  0.111498  0.000101  1.024994  0.0
H  H9  1  0.26290649  0.58146352  0.33040172  1  0.102671  0.000567  0.950173  0.001  0.115438  0.000478  1.005137  0.001  0.118897  0.000353  1.003889  0.0  0.107039  0.11272  0.000582  1.006551  0.001
H  H10  1  0.73709646  0.41851482  0.66963053  1  0.102644  0.000569  0.950328  0.001  0.115443  0.000479  1.005276  0.0  0.118894  0.000331  1.004028  0.0  0.107061  0.112729  0.000602  1.006689  0.001
H  H11  1  0.12059723  0.87159166  0.23277838  1  0.088883  0.001161  0.933765  0.002  0.095972  0.001009  1.000867  0.001  0.098342  0.000741  0.997312  0.001  0.120451  0.093885  0.001208  1.003857  0.002
H  H12  1  0.87938538  0.12838801  0.76725312  1  0.089008  0.00111  0.933572  0.002  0.096099  0.000955  1.000696  0.001  0.098468  0.00067  0.997142  0.001  0.120526  0.094014  0.001176  1.003683  0.002
H  H13  1  0.59100132  0.54540029  0.40819027  1  0.039524  -0.000526  0.915059  0.0  0.044289  -0.000292  0.98426  0.0  0.039353  -0.000205  0.981398  0.0  0.123424  0.049377  -0.000299  0.985937  0.0
H  H14  1  0.40898267  0.45462685  0.59175091  1  0.039456  0.000442  0.915122  0.0  0.044187  0.000256  0.984363  0.0  0.03924  0.000159  0.981522  0.0  0.123402  0.049295  0.000305  0.985998  0.0
H  H15  1  0.98750614  0.16728354  0.40246043  1  0.053228  0.000222  0.889669  0.0  0.060119  0.000145  0.94917  0.0  0.054045  0.000117  0.947823  0.0  0.129276  0.066151  0.000129  0.949526  0.0
H  H16  1  0.01242036  0.83276178  0.59753814  1  0.053178  -0.000291  0.889697  0.0  0.060224  -0.000171  0.949001  0.0  0.054154  -0.000155  0.947645  0.0  0.129347  0.066261  -0.000109  0.949356  0.0
H  H17  1  0.20155244  0.50250728  0.80013193  1  0.128605  -8e-06  0.960686  0.0  0.15139  3.8e-05  1.018069  0.0  0.154847  2e-06  1.016182  0.0  0.092539  0.148792  5.5e-05  1.01972  0.0
H  H18  1  0.79853509  0.49747466  0.19988164  1  0.128681  -0.000262  0.960771  0.0  0.15149  -0.000173  1.018083  0.0  0.154987  -0.000117  1.016149  0.0  0.092564  0.148888  -0.000197  1.019733  0.0
H  H19  1  0.24725977  0.69799302  0.79982415  1  0.13533  -0.000312  0.96341  0.0  0.152674  -0.000205  1.032629  0.0  0.154422  -0.000214  1.031996  0.0  0.095916  0.151305  -0.000179  1.033178  0.0
H  H20  1  0.75277630  0.30199961  0.20019355  1  0.135518  -0.000295  0.9634  0.0  0.152863  -0.000133  1.032569  0.0  0.154607  -0.000159  1.031949  0.0  0.095971  0.151495  -0.000104  1.033118  0.0
H  H21  1  0.99422165  0.71507430  0.84425487  1  0.131104  -0.000411  0.958899  0.0  0.149709  -0.000229  1.0261  0.0  0.151847  -0.000256  1.024666  0.0  0.096741  0.14806  -0.000202  1.027308  0.0
H  H22  1  0.00582469  0.28488927  0.15576577  1  0.131117  -0.000481  0.958716  0.0  0.149738  -0.000297  1.025936  0.0  0.151859  -0.000295  1.024519  0.0  0.096747  0.148077  -0.00028  1.027162  0.0
C  C23  1  0.65455838  0.98434610  0.11218809  1  0.549141  -0.006408  3.88348  -0.01  0.48623  -0.000661  4.196031  -0.004  0.524559  -0.001388  4.186814  -0.004  0.13339  0.460453  0.000111  4.201268  -0.004
C  C24  1  0.34546017  0.01566428  0.88778124  1  0.548992  -0.007046  3.882611  -0.011  0.486083  -0.001258  4.195189  -0.004  0.524404  -0.001882  4.185991  -0.004  0.13337  0.460299  -0.000504  4.20043  -0.004
C  C25  1  0.19541151  0.61082510  0.98166237  1  0.318522  -0.004984  3.706652  -0.005  0.328734  -0.000296  3.950739  -0.001  0.339712  -0.001454  3.972986  -0.002  0.124808  0.321703  0.000604  3.935645  0.0
C  C26  1  0.80463610  0.38915305  0.01835986  1  0.318605  -0.004978  3.707249  -0.005  0.328845  -0.000293  3.951246  -0.001  0.339828  -0.001461  3.973492  -0.002  0.124794  0.321806  0.00061  3.93615  0.0
C  C27  1  0.27999195  0.44476803  0.03049645  1  -0.167531  0.009083  3.67619  0.01  -0.183979  0.004122  3.915833  0.005  -0.193602  0.003779  3.938332  0.004  -0.084934  -0.177815  0.004365  3.900825  0.005
C  C28  1  0.72005270  0.55521003  0.96952052  1  -0.16793  0.009132  3.676456  0.01  -0.184306  0.00415  3.916094  0.005  -0.193931  0.003801  3.938581  0.004  -0.084942  -0.178127  0.00435  3.901085  0.005
C  C29  1  0.30512437  0.43146562  0.15612922  1  0.016246  -0.008257  3.705203  -0.008  -0.000829  -0.002771  3.948711  -0.003  0.00526  -0.003085  3.965759  -0.003  -0.061903  -0.004649  -0.002476  3.937187  -0.002
C  C30  1  0.69490078  0.56851255  0.84389341  1  0.016693  -0.008284  3.704858  -0.008  -0.000306  -0.002809  3.948313  -0.003  0.005786  -0.003131  3.96536  -0.003  -0.06174  -0.004144  -0.002496  3.936794  -0.002
C  C31  1  0.24866547  0.58563106  0.23141527  1  -0.121535  0.008565  3.732065  0.009  -0.131399  0.003783  3.975797  0.004  -0.139286  0.003549  3.995684  0.004  -0.085375  -0.126388  0.003891  3.962473  0.005
C  C32  1  0.75134243  0.41435637  0.76860622  1  -0.12131  0.00848  3.73172  0.009  -0.131243  0.003714  3.975496  0.004  -0.139107  0.003473  3.995351  0.004  -0.085393  -0.126237  0.003866  3.962184  0.005
C  C33  1  0.16922744  0.74710846  0.17792120  1  0.143361  -0.006671  3.691795  -0.007  0.111309  -0.001129  3.950072  -0.002  0.121779  -0.002228  3.967814  -0.003  0.0483  0.104742  -0.000245  3.938239  -0.001
C  C34  1  0.83078529  0.25286985  0.82210914  1  0.142891  -0.006731  3.691345  -0.007  0.110804  -0.001172  3.949708  -0.002  0.121266  -0.002287  3.967457  -0.003  0.04813  0.104247  -0.000274  3.937866  -0.001
C  C35  1  0.15846560  0.63171087  0.84855675  1  -0.409021  0.001281  3.707116  0.002  -0.498774  0.000815  3.946433  0.002  -0.503428  0.000477  3.95272  0.001  -0.249783  -0.495408  0.001104  3.942384  0.002
C  C36  1  0.84158236  0.36826578  0.15145435  1  -0.40941  0.001223  3.707609  0.002  -0.49918  0.000931  3.946966  0.002  -0.503835  0.000595  3.953197  0.001  -0.249841  -0.495802  0.001198  3.942931  0.002
C  C37  1  0.56188094  0.68296448  0.43659196  1  0.543805  0.000114  3.904199  0.0  0.490095  -0.000107  4.21371  0.0  0.532941  -0.000107  4.20809  0.0  0.144762  0.459637  -6.3e-05  4.217674  0.0
C  C38  1  0.43808283  0.31705888  0.56335960  1  0.544173  -0.00049  3.903865  0.0  0.490463  -2.5e-05  4.213448  0.0  0.533311  -5.2e-05  4.207829  0.0  0.144841  0.460002  6e-06  4.217404  0.0
C  C39  1  0.14236975  0.11801762  0.43217090  1  0.5538  -0.000507  3.884053  0.0  0.500464  -0.000154  4.193737  0.0  0.544654  -0.000173  4.186514  0.0  0.148421  0.469006  -0.000107  4.198803  0.0
C  C40  1  0.85755436  0.88201587  0.56783265  1  0.553681  0.00011  3.884196  0.0  0.500247  6e-05  4.193971  0.0  0.544436  3.1e-05  4.186759  0.0  0.148221  0.468792  8.8e-05  4.19903  0.0
N  N41  1  0.14227350  0.75880604  0.05673747  1  -0.355851  0.080323  3.306139  0.101  -0.306714  0.055251  3.584457  0.073  -0.339103  0.046983  3.607268  0.066  -0.353102  -0.287115  0.059447  3.570541  0.076
N  N42  1  0.85775675  0.24117611  0.94328646  1  -0.355583  0.080385  3.306085  0.101  -0.306412  0.055252  3.584368  0.073  -0.338791  0.046989  3.607171  0.066  -0.352995  -0.286817  0.059477  3.570448  0.076
O  O43  1  0.74547332  0.95810119  0.99932129  1  -0.550583  0.09688  2.087485  0.129  -0.515588  0.065906  2.362953  0.095  -0.55492  0.053025  2.354571  0.081  -0.321752  -0.490036  0.073435  2.368793  0.102
O  O44  1  0.25456411  0.04190007  0.00065734  1  -0.550428  0.096643  2.086978  0.129  -0.515421  0.06558  2.3624  0.095  -0.554744  0.052748  2.354014  0.081  -0.321759  -0.489862  0.07309  2.368241  0.102
O  O45  1  0.71499315  0.03529620  0.20288875  1  -0.592285  0.002592  2.097852  0.004  -0.55101  0.001716  2.37348  0.003  -0.583649  0.000567  2.359414  0.001  -0.327399  -0.528331  0.002849  2.383133  0.004
O  O46  1  0.28498956  0.96468529  0.79709184  1  -0.59215  0.000352  2.09754  0.003  -0.550812  0.000195  2.373052  0.002  -0.583465  -0.001127  2.358986  0.0  -0.327313  -0.52812  0.001634  2.382709  0.004
O  O47  1  0.61782279  0.76556569  0.35310546  1  -0.529167  -0.074592  2.123763  -0.095  -0.504469  -0.051187  2.394603  -0.072  -0.550245  -0.042125  2.389151  -0.063  -0.310372  -0.473225  -0.048143  2.39891  -0.066
O  O48  1  0.38226912  0.23443017  0.64686962  1  -0.529347  0.071254  2.123757  0.095  -0.504609  0.050032  2.394542  0.072  -0.550378  0.040728  2.389046  0.063  -0.310446  -0.473367  0.047537  2.398869  0.066
O  O49  1  0.47643061  0.73641642  0.54859219  1  -0.536537  0.068748  2.093891  0.091  -0.51102  0.04941  2.368074  0.071  -0.555044  0.040354  2.359742  0.062  -0.315674  -0.481228  0.04678  2.374534  0.065
O  O50  1  0.52340208  0.26363435  0.45133061  1  -0.536479  -0.072088  2.093532  -0.091  -0.511001  -0.050664  2.367851  -0.071  -0.555029  -0.041829  2.359533  -0.062  -0.315493  -0.481201  -0.047543  2.374315  -0.065
O  O51  1  0.28917692  0.10596737  0.34858921  1  -0.537204  -0.075049  2.121069  -0.095  -0.513267  -0.050728  2.398579  -0.072  -0.558993  -0.04148  2.391017  -0.061  -0.312594  -0.482142  -0.049046  2.40422  -0.067
O  O52  1  0.71077030  0.89395612  0.65140194  1  -0.53698  0.071958  2.120856  0.095  -0.513056  0.049888  2.398446  0.072  -0.558796  0.040293  2.390893  0.062  -0.312445  -0.481939  0.048816  2.404079  0.067
O  O53  1  0.15006061  0.07979243  0.54521757  1  -0.528766  0.074355  2.12965  0.099  -0.504758  0.05115  2.407422  0.074  -0.549908  0.041461  2.399839  0.064  -0.310815  -0.474442  0.049708  2.413574  0.069
O  O54  1  0.84983769  0.92034336  0.45481259  1  -0.528748  -0.077784  2.129823  -0.098  -0.504719  -0.052323  2.407612  -0.074  -0.549851  -0.042875  2.400039  -0.063  -0.310723  -0.474403  -0.050345  2.413772  -0.069
