# generated using pymatgen
data_Eu2H20C28N2O17
_symmetry_space_group_name_H-M   'P 1'
_cell_length_a   10.24674771
_cell_length_b   12.04609043
_cell_length_c   12.94875628
_cell_angle_alpha   74.75099438
_cell_angle_beta   75.85590300
_cell_angle_gamma   72.03268457
_symmetry_Int_Tables_number   1
_chemical_formula_structural   Eu2H20C28N2O17
_chemical_formula_sum   'Eu4 H40 C56 N4 O34'
_cell_volume   1443.44569977
_cell_formula_units_Z   2
loop_
 _symmetry_equiv_pos_site_id
 _symmetry_equiv_pos_as_xyz
  1  'x, y, z'
loop_
 _atom_site_type_symbol
 _atom_site_label
 _atom_site_symmetry_multiplicity
 _atom_site_fract_x
 _atom_site_fract_y
 _atom_site_fract_z
 _atom_site_occupancy
 _atom_site_hle17_bader_spin_density
 _atom_site_hle17_ddec_charge
 _atom_site_hle17_ddec_spin_density
 _atom_site_hle17_ddec_sum_bond_order
 _atom_site_hle17_magmom
 _atom_site_hse06_10hf_bader_spin_density
 _atom_site_hse06_10hf_ddec_charge
 _atom_site_hse06_10hf_ddec_spin_density
 _atom_site_hse06_10hf_ddec_sum_bond_order
 _atom_site_hse06_10hf_magmom
 _atom_site_hse06_bader_spin_density
 _atom_site_hse06_ddec_charge
 _atom_site_hse06_ddec_spin_density
 _atom_site_hse06_ddec_sum_bond_order
 _atom_site_hse06_magmom
 _atom_site_pbe_bader_spin_density
 _atom_site_pbe_cm5_charge
 _atom_site_pbe_ddec_charge
 _atom_site_pbe_ddec_spin_density
 _atom_site_pbe_ddec_sum_bond_order
 _atom_site_pbe_magmom
Eu  Eu0  1  0.20169803  0.71750946  0.60293471  1  0  2.247756  0  1.644248  0  0  2.104236  0  2.114487  0  0  2.219371  0  1.943878  0  0  1.480357  2.06844  0  2.146823  0
Eu  Eu1  1  0.79830062  0.28249111  0.39706569  1  0  2.247777  0  1.644255  0  0  2.104243  0  2.114508  0  0  2.219393  0  1.943882  0  0  1.480382  2.068471  0  2.146821  0
Eu  Eu2  1  0.80838490  0.78230066  0.45003578  1  0  2.265277  0  1.606717  0  0  2.122025  0  2.07776  0  0  2.238585  0  1.903743  0  0  1.485756  2.089592  0  2.106985  0
Eu  Eu3  1  0.19161523  0.21769923  0.54996381  1  0  2.265289  0  1.6067  0  0  2.122019  0  2.077743  0  0  2.238586  0  1.903718  0  0  1.485775  2.089594  0  2.106948  0
H  H4  1  0.12442934  0.52950593  0.53809614  1  0  0.444751  0  0.83902  0  0  0.417171  0  0.902679  0  0  0.426792  0  0.888965  0  0  0.314299  0.410291  0  0.912725  0
H  H5  1  0.87556931  0.47049463  0.46190426  1  0  0.444778  0  0.838987  0  0  0.417201  0  0.902634  0  0  0.42682  0  0.888924  0  0  0.314307  0.41032  0  0.912683  0
H  H6  1  0.28310414  0.48423701  0.53164314  1  0  0.446305  0  0.843909  0  0  0.419288  0  0.901286  0  0  0.430062  0  0.885845  0  0  0.310646  0.411754  0  0.912268  0
H  H7  1  0.71689470  0.51576374  0.46835644  1  0  0.446349  0  0.843897  0  0  0.419337  0  0.901228  0  0  0.430112  0  0.885786  0  0  0.310648  0.411805  0  0.912208  0
H  H8  1  0.69283201  0.03752158  0.35641755  1  0  0.439284  0  0.862228  0  0  0.409244  0  0.924195  0  0  0.420916  0  0.90746  0  0  0.299182  0.401096  0  0.93601  0
H  H9  1  0.30716987  0.96247815  0.64358286  1  0  0.439282  0  0.862228  0  0  0.409245  0  0.924191  0  0  0.420917  0  0.907456  0  0  0.299201  0.401098  0  0.936005  0
H  H10  1  0.68479326  0.96672041  0.26910482  1  0  0.434262  0  0.868357  0  0  0.402939  0  0.932666  0  0  0.414998  0  0.9154  0  0  0.292005  0.39438  0  0.945079  0
H  H11  1  0.31520732  0.03328018  0.73089559  1  0  0.434262  0  0.868349  0  0  0.402941  0  0.93266  0  0  0.415004  0  0.915386  0  0  0.291997  0.394382  0  0.945073  0
H  H12  1  0.73357352  0.98919552  0.56879431  1  0  0.458026  0  0.801821  0  0  0.436423  0  0.857097  0  0  0.445641  0  0.843804  0  0  0.326635  0.430119  0  0.866332  0
H  H13  1  0.26642632  0.01080649  0.43120366  1  0  0.457914  0  0.80202  0  0  0.436329  0  0.857216  0  0  0.445542  0  0.843933  0  0  0.326607  0.430025  0  0.866453  0
H  H14  1  0.88893082  0.92255908  0.57716949  1  0  0.446065  0  0.854376  0  0  0.413497  0  0.92062  0  0  0.423902  0  0.905799  0  0  0.306206  0.406222  0  0.93117  0
H  H15  1  0.11106917  0.07744187  0.42282929  1  0  0.446061  0  0.854381  0  0  0.413484  0  0.920639  0  0  0.423887  0  0.905822  0  0  0.306209  0.40621  0  0.931187  0
H  H16  1  0.99490518  0.12829486  0.06735912  1  0  0.098823  0  0.971775  0  0  0.108462  0  1.036393  0  0  0.111289  0  1.034731  0  0  0.107816  0.106482  0  1.03751  0
H  H17  1  0.00509555  0.87170466  0.93264210  1  0  0.098788  0  0.971806  0  0  0.108424  0  1.036436  0  0  0.111252  0  1.034773  0  0  0.107801  0.106447  0  1.037546  0
H  H18  1  0.17428795  0.00865594  0.93968929  1  0  0.115115  0  0.934203  0  0  0.125642  0  0.989203  0  0  0.12912  0  0.987544  0  0  0.113412  0.123187  0  0.99044  0
H  H19  1  0.82571278  0.99134359  0.06031193  1  0  0.115107  0  0.934237  0  0  0.125633  0  0.989243  0  0  0.129111  0  0.987587  0  0  0.113397  0.123181  0  0.990471  0
H  H20  1  0.34130771  0.82330025  0.01770648  1  0  0.098596  0  0.978766  0  0  0.106564  0  1.044592  0  0  0.108852  0  1.044769  0  0  0.103974  0.104865  0  1.044637  0
H  H21  1  0.65869276  0.17669877  0.98229310  1  0  0.098595  0  0.978779  0  0  0.106566  0  1.044599  0  0  0.108855  0  1.044774  0  0  0.103988  0.104868  0  1.044645  0
H  H22  1  0.41121119  0.44317930  0.32376780  1  0  0.133573  0  0.957633  0  0  0.14111  0  1.020168  0  0  0.145166  0  1.018184  0  0  0.116416  0.138117  0  1.021692  0
H  H23  1  0.58878991  0.55682061  0.67623179  1  0  0.133557  0  0.957606  0  0  0.141096  0  1.020147  0  0  0.145152  0  1.018164  0  0  0.116428  0.138104  0  1.021672  0
H  H24  1  0.22499437  0.62526375  0.28601633  1  0  0.106292  0  0.943327  0  0  0.113507  0  1.008882  0  0  0.116  0  1.006396  0  0  0.129856  0.111838  0  1.010242  0
H  H25  1  0.77500655  0.37473596  0.71398408  1  0  0.106302  0  0.943328  0  0  0.113512  0  1.008878  0  0  0.116006  0  1.006394  0  0  0.129848  0.111844  0  1.010239  0
H  H26  1  0.50861901  0.83547208  0.17043012  1  0  0.108284  0  0.962752  0  0  0.112704  0  1.030969  0  0  0.11713  0  1.026178  0  0  0.123634  0.109321  0  1.034458  0
H  H27  1  0.49138269  0.16452746  0.82957110  1  0  0.108267  0  0.962785  0  0  0.112714  0  1.030976  0  0  0.117102  0  1.026228  0  0  0.123623  0.109332  0  1.034465  0
H  H28  1  0.70785920  0.66034908  0.20344343  1  0  0.137774  0  0.93662  0  0  0.148151  0  0.992404  0  0  0.151831  0  0.99149  0  0  0.118074  0.145792  0  0.992733  0
H  H29  1  0.29214055  0.33965043  0.79655778  1  0  0.137779  0  0.936628  0  0  0.148159  0  0.992409  0  0  0.151839  0  0.991496  0  0  0.118071  0.145801  0  0.992737  0
H  H30  1  0.02910757  0.25049664  0.91764381  1  0  0.103815  0  0.958866  0  0  0.114484  0  1.019608  0  0  0.118065  0  1.016917  0  0  0.106271  0.112004  0  1.02136  0
H  H31  1  0.97089178  0.74950343  0.08235496  1  0  0.103822  0  0.958876  0  0  0.114492  0  1.019614  0  0  0.118072  0  1.016923  0  0  0.106278  0.112011  0  1.021367  0
H  H32  1  0.87373884  0.32610731  0.08251151  1  0  0.119752  0  0.972575  0  0  0.126601  0  1.035743  0  0  0.131131  0  1.032415  0  0  0.108398  0.12335  0  1.038309  0
H  H33  1  0.12626246  0.67389278  0.91748726  1  0  0.119775  0  0.972542  0  0  0.126633  0  1.035699  0  0  0.131168  0  1.032364  0  0  0.108407  0.123364  0  1.038285  0
H  H34  1  0.71272481  0.53082696  0.05488774  1  0  0.106697  0  0.96952  0  0  0.115378  0  1.034178  0  0  0.118241  0  1.033014  0  0  0.105785  0.113315  0  1.035034  0
H  H35  1  0.28727727  0.46917295  0.94511186  1  0  0.106671  0  0.969517  0  0  0.115335  0  1.034197  0  0  0.118195  0  1.033034  0  0  0.105762  0.113273  0  1.035053  0
H  H36  1  0.66140273  0.96646785  0.87553049  1  0  0.111383  0  1.004618  0  0  0.11904  0  1.07077  0  0  0.120921  0  1.073518  0  0  0.102788  0.117695  0  1.069032  0
H  H37  1  0.33859722  0.03353186  0.12446991  1  0  0.111355  0  1.004572  0  0  0.119008  0  1.070739  0  0  0.120888  0  1.07349  0  0  0.102776  0.117662  0  1.069  0
H  H38  1  0.82451986  0.76305076  0.90002208  1  0  0.097323  0  0.931686  0  0  0.108969  0  0.991915  0  0  0.111085  0  0.990139  0  0  0.127839  0.107433  0  0.993094  0
H  H39  1  0.17548061  0.23694826  0.09997750  1  0  0.097309  0  0.931706  0  0  0.108949  0  0.99194  0  0  0.111067  0  0.990163  0  0  0.127829  0.107415  0  0.99312  0
H  H40  1  0.54189861  0.61534436  0.83749536  1  0  0.089149  0  0.956653  0  0  0.099428  0  1.020317  0  0  0.101559  0  1.018665  0  0  0.123332  0.097821  0  1.0216  0
H  H41  1  0.45810036  0.38465534  0.16250503  1  0  0.089173  0  0.956646  0  0  0.099457  0  1.020305  0  0  0.101586  0  1.018657  0  0  0.123358  0.097849  0  1.021587  0
H  H42  1  0.36829986  0.81188866  0.80561036  1  0  0.144141  0  0.939602  0  0  0.153734  0  0.995957  0  0  0.157965  0  0.994562  0  0  0.121088  0.150898  0  0.996804  0
H  H43  1  0.63169893  0.18811084  0.19439085  1  0  0.144142  0  0.939616  0  0  0.153731  0  0.995977  0  0  0.157963  0  0.99458  0  0  0.121082  0.150897  0  0.996824  0
C  C44  1  0.13817515  0.85031820  0.37514411  1  0  0.719727  0  3.888891  0  0  0.667619  0  4.191368  0  0  0.703606  0  4.184073  0  0  0.229652  0.643177  0  4.200036  0
C  C45  1  0.86182577  0.14968152  0.62485629  1  0  0.719758  0  3.888852  0  0  0.667592  0  4.191425  0  0  0.703575  0  4.184141  0  0  0.229643  0.643153  0  4.200097  0
C  C46  1  0.96272017  0.09746272  0.27867458  1  0  0.656452  0  3.900721  0  0  0.606816  0  4.195859  0  0  0.639926  0  4.194173  0  0  0.21003  0.583737  0  4.200686  0
C  C47  1  0.03728075  0.90253699  0.72132582  1  0  0.656418  0  3.900728  0  0  0.606795  0  4.195849  0  0  0.639907  0  4.194164  0  0  0.21001  0.583714  0  4.200673  0
C  C48  1  0.14824455  0.90230291  0.25527381  1  0  -0.092197  0  3.63497  0  0  -0.087396  0  3.874235  0  0  -0.088958  0  3.888916  0  0  0.013235  -0.086201  0  3.863645  0
C  C49  1  0.85175700  0.09769769  0.74472660  1  0  -0.092212  0  3.634961  0  0  -0.087394  0  3.874255  0  0  -0.088954  0  3.888938  0  0  0.013261  -0.0862  0  3.863668  0
C  C50  1  0.05818842  0.01004026  0.21104777  1  0  -0.054033  0  3.689023  0  0  -0.038771  0  3.921963  0  0  -0.044405  0  3.941356  0  0  -0.001181  -0.034935  0  3.908446  0
C  C51  1  0.94181365  0.98995965  0.78895182  1  0  -0.054062  0  3.689116  0  0  -0.038796  0  3.922049  0  0  -0.04443  0  3.941443  0  0  -0.001187  -0.034959  0  3.90853  0
C  C52  1  0.06731841  0.04545818  0.09809917  1  0  -0.064648  0  3.725075  0  0  -0.090478  0  3.974333  0  0  -0.090074  0  3.993491  0  0  -0.072351  -0.090661  0  3.961082  0
C  C53  1  0.93268251  0.95454154  0.90190123  1  0  -0.06456  0  3.72512  0  0  -0.090389  0  3.974374  0  0  -0.089985  0  3.993534  0  0  -0.07231  -0.09057  0  3.961118  0
C  C54  1  0.16630099  0.97893977  0.02754601  1  0  -0.050615  0  3.738999  0  0  -0.063577  0  3.991775  0  0  -0.065709  0  4.011027  0  0  -0.081438  -0.062186  0  3.978751  0
C  C55  1  0.83370026  0.02105907  0.97245439  1  0  -0.050594  0  3.739107  0  0  -0.063568  0  3.991886  0  0  -0.065703  0  4.011141  0  0  -0.081404  -0.062177  0  3.978863  0
C  C56  1  0.26009919  0.87572008  0.07066388  1  0  -0.118762  0  3.732393  0  0  -0.143461  0  3.988542  0  0  -0.144178  0  4.007026  0  0  -0.079462  -0.142878  0  3.976105  0
C  C57  1  0.73990108  0.12427875  0.92933652  1  0  -0.118774  0  3.732443  0  0  -0.143448  0  3.98858  0  0  -0.144164  0  4.007065  0  0  -0.079489  -0.142867  0  3.97615  0
C  C58  1  0.25184339  0.83887621  0.18310674  1  0  0.133984  0  3.723631  0  0  0.119997  0  3.977808  0  0  0.123374  0  3.99954  0  0  0.095284  0.117768  0  3.962733  0
C  C59  1  0.74815753  0.16112351  0.81689366  1  0  0.134005  0  3.723575  0  0  0.119988  0  3.977797  0  0  0.123365  0  3.999526  0  0  0.095288  0.117757  0  3.962726  0
C  C60  1  0.43964204  0.52647876  0.28653081  1  0  -0.242467  0  3.668621  0  0  -0.261688  0  3.92901  0  0  -0.274282  0  3.944546  0  0  -0.093175  -0.253504  0  3.918084  0
C  C61  1  0.56035906  0.47352114  0.71346878  1  0  -0.242398  0  3.668543  0  0  -0.261624  0  3.928937  0  0  -0.274221  0  3.944471  0  0  -0.093167  -0.253438  0  3.918013  0
C  C62  1  0.33376023  0.62709063  0.26630161  1  0  0.121009  0  3.632724  0  0  0.076682  0  3.889969  0  0  0.088867  0  3.904171  0  0  0.057349  0.068931  0  3.879889  0
C  C63  1  0.66624068  0.37290908  0.73369880  1  0  0.120972  0  3.632679  0  0  0.076673  0  3.889895  0  0  0.088856  0  3.904099  0  0  0.057382  0.068921  0  3.879818  0
C  C64  1  0.49419127  0.74556371  0.19934963  1  0  0.103185  0  3.626307  0  0  0.059029  0  3.883403  0  0  0.071111  0  3.894928  0  0  0.048841  0.051813  0  3.875161  0
C  C65  1  0.50580964  0.25443601  0.80065077  1  0  0.103162  0  3.626346  0  0  0.058976  0  3.883465  0  0  0.071093  0  3.894995  0  0  0.048823  0.051762  0  3.875223  0
C  C66  1  0.60360647  0.64766540  0.21836514  1  0  -0.228903  0  3.663907  0  0  -0.247491  0  3.92176  0  0  -0.259497  0  3.937365  0  0  -0.09079  -0.239857  0  3.910446  0
C  C67  1  0.39639497  0.35233363  0.78163444  1  0  -0.228924  0  3.663948  0  0  -0.247513  0  3.921823  0  0  -0.259526  0  3.937418  0  0  -0.09078  -0.239878  0  3.91051  0
C  C68  1  0.58241117  0.53079994  0.26094534  1  0  0.466205  0  3.851494  0  0  0.452774  0  4.111265  0  0  0.478064  0  4.11749  0  0  0.125015  0.436322  0  4.107645  0
C  C69  1  0.41759012  0.46920015  0.73905344  1  0  0.466202  0  3.851395  0  0  0.452753  0  4.111205  0  0  0.478056  0  4.117418  0  0  0.125028  0.436301  0  4.107587  0
C  C70  1  0.52367663  0.70022913  0.49273961  1  0  0.561148  0  3.928711  0  0  0.516582  0  4.226746  0  0  0.546122  0  4.223974  0  0  0.220911  0.496113  0  4.233364  0
C  C71  1  0.47632220  0.29977162  0.50725997  1  0  0.561115  0  3.928659  0  0  0.516566  0  4.226694  0  0  0.546106  0  4.223922  0  0  0.220938  0.496099  0  4.233312  0
C  C72  1  0.48260911  0.80888639  0.54737779  1  0  0.561579  0  3.914388  0  0  0.517216  0  4.211355  0  0  0.547028  0  4.208069  0  0  0.223918  0.496584  0  4.218398  0
C  C73  1  0.51739200  0.19111351  0.45262180  1  0  0.561593  0  3.914309  0  0  0.517183  0  4.211345  0  0  0.546997  0  4.20806  0  0  0.223908  0.496552  0  4.21839  0
C  C74  1  0.88809628  0.61803415  0.68401768  1  0  0.737126  0  3.880933  0  0  0.684896  0  4.184762  0  0  0.721498  0  4.174747  0  0  0.233098  0.66002  0  4.19448  0
C  C75  1  0.11190416  0.38196750  0.31598192  1  0  0.737005  0  3.881066  0  0  0.684756  0  4.184932  0  0  0.721361  0  4.174916  0  0  0.233032  0.659882  0  4.194648  0
C  C76  1  0.04927557  0.35476350  0.71266920  1  0  0.626268  0  3.943363  0  0  0.578344  0  4.240831  0  0  0.610915  0  4.240301  0  0  0.194635  0.555824  0  4.244875  0
C  C77  1  0.95072456  0.64523639  0.28733038  1  0  0.626205  0  3.943345  0  0  0.578282  0  4.24082  0  0  0.610853  0  4.24029  0  0  0.194594  0.555763  0  4.24486  0
C  C78  1  0.87714683  0.52937429  0.79091133  1  0  -0.093309  0  3.651927  0  0  -0.088129  0  3.889596  0  0  -0.0892  0  3.904356  0  0  0.010227  -0.087149  0  3.878563  0
C  C79  1  0.12285246  0.47062716  0.20908908  1  0  -0.093401  0  3.651996  0  0  -0.088227  0  3.889689  0  0  -0.089297  0  3.904448  0  0  0.010185  -0.087248  0  3.878654  0
C  C80  1  0.96298230  0.41198422  0.80580718  1  0  -0.068278  0  3.724556  0  0  -0.053319  0  3.960474  0  0  -0.059937  0  3.980494  0  0  -0.00976  -0.048453  0  3.945475  0
C  C81  1  0.03701977  0.58801570  0.19419241  1  0  -0.068243  0  3.724493  0  0  -0.053278  0  3.960404  0  0  -0.0599  0  3.980427  0  0  -0.009747  -0.048414  0  3.945406  0
C  C82  1  0.96083570  0.34061299  0.91063961  1  0  -0.068021  0  3.724521  0  0  -0.096849  0  3.978268  0  0  -0.096123  0  3.997539  0  0  -0.080265  -0.097041  0  3.964734  0
C  C83  1  0.03916540  0.65938691  0.08935998  1  0  -0.067987  0  3.724463  0  0  -0.09681  0  3.978198  0  0  -0.096087  0  3.997472  0  0  -0.080252  -0.097001  0  3.964658  0
C  C84  1  0.87404905  0.38215922  0.00117214  1  0  -0.062151  0  3.737542  0  0  -0.074587  0  3.989565  0  0  -0.077588  0  4.008558  0  0  -0.086334  -0.072698  0  3.976824  0
C  C85  1  0.12595205  0.61784069  0.99882745  1  0  -0.062175  0  3.737446  0  0  -0.074619  0  3.989459  0  0  -0.077624  0  4.00845  0  0  -0.086336  -0.072718  0  3.976726  0
C  C86  1  0.78387093  0.49630007  0.98617375  1  0  -0.112294  0  3.726382  0  0  -0.13758  0  3.979339  0  0  -0.13737  0  3.997139  0  0  -0.080728  -0.137554  0  3.967374  0
C  C87  1  0.21612999  0.50369964  0.01382665  1  0  -0.112282  0  3.726317  0  0  -0.137551  0  3.979297  0  0  -0.137336  0  3.997088  0  0  -0.0807  -0.137527  0  3.967329  0
C  C88  1  0.78563416  0.56750419  0.88208232  1  0  0.120528  0  3.770872  0  0  0.107756  0  4.025319  0  0  0.110108  0  4.048329  0  0  0.08607  0.106092  0  4.009601  0
C  C89  1  0.21436676  0.43249552  0.11791808  1  0  0.120605  0  3.77082  0  0  0.107821  0  4.02529  0  0  0.110173  0  4.048299  0  0  0.086067  0.106158  0  4.009572  0
C  C90  1  0.63192872  0.89158587  0.86480109  1  0  -0.246658  0  3.700773  0  0  -0.265873  0  3.958265  0  0  -0.278997  0  3.977674  0  0  -0.105793  -0.257354  0  3.945071  0
C  C91  1  0.36807071  0.10841452  0.13520013  1  0  -0.246613  0  3.700638  0  0  -0.26583  0  3.958145  0  0  -0.278954  0  3.977553  0  0  -0.10579  -0.257312  0  3.944949  0
C  C92  1  0.72212076  0.78089915  0.87951458  1  0  0.1061  0  3.674185  0  0  0.062386  0  3.928369  0  0  0.0742  0  3.943158  0  0  0.048428  0.054697  0  3.918425  0
C  C93  1  0.27787788  0.21910141  0.12048582  1  0  0.106106  0  3.674153  0  0  0.062402  0  3.928322  0  0  0.074209  0  3.943117  0  0  0.048438  0.05471  0  3.918381  0
C  C94  1  0.56154506  0.69714566  0.84301856  1  0  0.105585  0  3.673934  0  0  0.061165  0  3.929296  0  0  0.073579  0  3.942577  0  0  0.047468  0.053139  0  3.920228  0
C  C95  1  0.43845436  0.30285472  0.15698266  1  0  0.105605  0  3.673924  0  0  0.061168  0  3.929311  0  0  0.073589  0  3.942579  0  0  0.047444  0.053142  0  3.920243  0
C  C96  1  0.46772627  0.80588690  0.82594791  1  0  -0.249234  0  3.674888  0  0  -0.265241  0  3.930815  0  0  -0.277705  0  3.946652  0  0  -0.098751  -0.257063  0  3.91957  0
C  C97  1  0.53227315  0.19411349  0.17405331  1  0  -0.249295  0  3.674895  0  0  -0.265296  0  3.930832  0  0  -0.277764  0  3.946666  0  0  -0.098763  -0.257121  0  3.919588  0
C  C98  1  0.49970395  0.91188630  0.83337141  1  0  0.435427  0  3.868891  0  0  0.41956  0  4.131542  0  0  0.44438  0  4.136017  0  0  0.117595  0.403182  0  4.127509  0
C  C99  1  0.50029645  0.08811410  0.16662981  1  0  0.435462  0  3.868818  0  0  0.419577  0  4.131487  0  0  0.444402  0  4.135954  0  0  0.117594  0.403203  0  4.127447  0
N  N100  1  0.35985015  0.73568214  0.22073504  1  0  -0.08205  0  3.568292  0  0  0.008647  0  3.77844  0  0  -0.008298  0  3.804037  0  0  -0.215168  0.019601  0  3.760806  0
N  N101  1  0.64015077  0.26431758  0.77926536  1  0  -0.082011  0  3.568178  0  0  0.008688  0  3.778331  0  0  -0.008256  0  3.803922  0  0  -0.215178  0.019645  0  3.760694  0
N  N102  1  0.68860591  0.68395169  0.86794256  1  0  -0.096403  0  3.605545  0  0  -0.006281  0  3.817205  0  0  -0.023945  0  3.843443  0  0  -0.226018  0.005484  0  3.798891  0
N  N103  1  0.31139500  0.31604803  0.13205785  1  0  -0.096439  0  3.605543  0  0  -0.006312  0  3.817202  0  0  -0.023978  0  3.843445  0  0  -0.226011  0.005453  0  3.798888  0
O  O104  1  0.03894499  0.80222978  0.42329057  1  0  -0.770222  0  2.062424  0  0  -0.719631  0  2.334213  0  0  -0.761018  0  2.322361  0  0  -0.390749  -0.7012  0  2.341512  0
O  O105  1  0.96105514  0.19777011  0.57670902  1  0  -0.770229  0  2.062407  0  0  -0.719603  0  2.334209  0  0  -0.76099  0  2.32236  0  0  -0.390746  -0.701167  0  2.341489  0
O  O106  1  0.23537568  0.84656704  0.42115652  1  0  -0.685034  0  2.024037  0  0  -0.639174  0  2.267673  0  0  -0.670431  0  2.256543  0  0  -0.356617  -0.621884  0  2.273853  0
O  O107  1  0.76462505  0.15343249  0.57884470  1  0  -0.685055  0  2.024024  0  0  -0.639162  0  2.26769  0  0  -0.670428  0  2.256579  0  0  -0.356616  -0.621878  0  2.273878  0
O  O108  1  0.96750684  0.07991567  0.37985618  1  0  -0.68633  0  2.032772  0  0  -0.626517  0  2.265791  0  0  -0.656735  0  2.256059  0  0  -0.341004  -0.609686  0  2.272148  0
O  O109  1  0.03249374  0.92008492  0.62014423  1  0  -0.686334  0  2.032702  0  0  -0.626532  0  2.265716  0  0  -0.656753  0  2.255984  0  0  -0.341002  -0.6097  0  2.272072  0
O  O110  1  0.88321237  0.19189178  0.23259840  1  0  -0.683652  0  1.974398  0  0  -0.639444  0  2.220362  0  0  -0.670416  0  2.210042  0  0  -0.365168  -0.622804  0  2.226338  0
O  O111  1  0.11678739  0.80810774  0.76740281  1  0  -0.683643  0  1.974414  0  0  -0.63945  0  2.220391  0  0  -0.670413  0  2.210051  0  0  -0.365176  -0.622805  0  2.226362  0
O  O112  1  0.68512659  0.43739375  0.27383759  1  0  -0.717985  0  2.008829  0  0  -0.668053  0  2.26124  0  0  -0.702739  0  2.24713  0  0  -0.424459  -0.65087  0  2.26641  0
O  O113  1  0.31487425  0.56260564  0.72616037  1  0  -0.717983  0  2.008777  0  0  -0.668035  0  2.26119  0  0  -0.702719  0  2.247064  0  0  -0.42447  -0.650846  0  2.266359  0
O  O114  1  0.43359069  0.64551203  0.50332316  1  0  -0.610714  0  2.071745  0  0  -0.56717  0  2.320495  0  0  -0.597306  0  2.313276  0  0  -0.354002  -0.551148  0  2.324016  0
O  O115  1  0.56640852  0.35448909  0.49667480  1  0  -0.61072  0  2.071682  0  0  -0.567175  0  2.320419  0  0  -0.59731  0  2.313195  0  0  -0.354032  -0.551156  0  2.323942  0
O  O116  1  0.64966152  0.67281907  0.44335068  1  0  -0.691031  0  2.108654  0  0  -0.634698  0  2.349662  0  0  -0.668629  0  2.340436  0  0  -0.366259  -0.617341  0  2.354438  0
O  O117  1  0.35033797  0.32717994  0.55664890  1  0  -0.690996  0  2.108694  0  0  -0.634662  0  2.349693  0  0  -0.668594  0  2.340467  0  0  -0.36626  -0.617306  0  2.354469  0
O  O118  1  0.35784094  0.83458267  0.59956574  1  0  -0.684187  0  2.14116  0  0  -0.62798  0  2.384394  0  0  -0.661042  0  2.374203  0  0  -0.361083  -0.610271  0  2.389863  0
O  O119  1  0.64216012  0.16541599  0.40043547  1  0  -0.684182  0  2.141157  0  0  -0.627943  0  2.384392  0  0  -0.661008  0  2.374207  0  0  -0.361069  -0.610236  0  2.389862  0
O  O120  1  0.57402880  0.86153232  0.53884472  1  0  -0.620579  0  2.058722  0  0  -0.575191  0  2.302131  0  0  -0.605494  0  2.291851  0  0  -0.357584  -0.559913  0  2.307407  0
O  O121  1  0.42597050  0.13846650  0.46115567  1  0  -0.620609  0  2.058682  0  0  -0.575214  0  2.302119  0  0  -0.605518  0  2.291839  0  0  -0.357596  -0.559934  0  2.307392  0
O  O122  1  0.98649743  0.66763126  0.66574954  1  0  -0.762919  0  2.061696  0  0  -0.712995  0  2.328089  0  0  -0.750829  0  2.31477  0  0  -0.389901  -0.694444  0  2.336234  0
O  O123  1  0.01350036  0.33237086  0.33425169  1  0  -0.76284  0  2.061705  0  0  -0.712928  0  2.328131  0  0  -0.750762  0  2.314811  0  0  -0.389862  -0.69438  0  2.336277  0
O  O124  1  0.79839750  0.64173712  0.62416666  1  0  -0.694767  0  1.979696  0  0  -0.650812  0  2.233937  0  0  -0.684609  0  2.221072  0  0  -0.368124  -0.633639  0  2.240636  0
O  O125  1  0.20160230  0.35826365  0.37583294  1  0  -0.694747  0  1.979836  0  0  -0.650721  0  2.233981  0  0  -0.684519  0  2.221115  0  0  -0.368101  -0.633551  0  2.240676  0
O  O126  1  0.03783334  0.40757074  0.61421120  1  0  -0.685742  0  1.981673  0  0  -0.629639  0  2.215806  0  0  -0.659647  0  2.205453  0  0  -0.348037  -0.613516  0  2.22207  0
O  O127  1  0.96216680  0.59242915  0.38578839  1  0  -0.685735  0  1.981684  0  0  -0.629629  0  2.215816  0  0  -0.659637  0  2.205464  0  0  -0.348027  -0.613506  0  2.222079  0
O  O128  1  0.12727944  0.24962630  0.73514475  1  0  -0.671827  0  1.9707  0  0  -0.625132  0  2.210773  0  0  -0.656926  0  2.202106  0  0  -0.378548  -0.608431  0  2.215639  0
O  O129  1  0.87271972  0.75037358  0.26485484  1  0  -0.671795  0  1.970729  0  0  -0.62511  0  2.210815  0  0  -0.656902  0  2.202146  0  0  -0.378517  -0.608408  0  2.215682  0
O  O130  1  0.41725751  0.01575987  0.81539113  1  0  -0.561318  0  1.930964  0  0  -0.506673  0  2.131182  0  0  -0.529393  0  2.123284  0  0  -0.304692  -0.490555  0  2.135877  0
O  O131  1  0.58274076  0.98424032  0.18461090  1  0  -0.561359  0  1.930959  0  0  -0.506688  0  2.131167  0  0  -0.529407  0  2.123271  0  0  -0.304693  -0.490571  0  2.135861  0
O  O132  1  0.20827553  0.55932224  0.52020606  1  0  -0.90028  0  1.885863  0  0  -0.857902  0  2.090875  0  0  -0.885288  0  2.056651  0  0  -0.642431  -0.844327  0  2.11167  0
O  O133  1  0.79172311  0.44067832  0.47979434  1  0  -0.900363  0  1.885866  0  0  -0.857987  0  2.090859  0  0  -0.885375  0  2.056632  0  0  -0.642443  -0.844414  0  2.111652  0
O  O134  1  0.73555335  0.96184968  0.32890707  1  0  -0.941983  0  1.866344  0  0  -0.894026  0  2.072023  0  0  -0.924945  0  2.032501  0  0  -0.670195  -0.879599  0  2.095808  0
O  O135  1  0.26444678  0.03815021  0.67109252  1  0  -0.941986  0  1.86634  0  0  -0.894033  0  2.072013  0  0  -0.92495  0  2.032479  0  0  -0.670199  -0.879607  0  2.095792  0
O  O136  1  0.80186191  0.91291303  0.56375290  1  0  -0.908158  0  1.861493  0  0  -0.862316  0  2.067548  0  0  -0.889706  0  2.032524  0  0  -0.645481  -0.849364  0  2.087756  0
O  O137  1  0.19813726  0.08708685  0.43624668  1  0  -0.90804  0  1.86166  0  0  -0.862187  0  2.067701  0  0  -0.889581  0  2.032695  0  0  -0.64546  -0.849243  0  2.087902  0
