# generated using pymatgen
data_AlH16C17(NO)6
_symmetry_space_group_name_H-M   'P 1'
_cell_length_a   6.62773821
_cell_length_b   20.24668372
_cell_length_c   22.98346698
_cell_angle_alpha   87.37767589
_cell_angle_beta   89.99036555
_cell_angle_gamma   89.98381602
_symmetry_Int_Tables_number   1
_chemical_formula_structural   AlH16C17(NO)6
_chemical_formula_sum   'Al4 H64 C68 N24 O24'
_cell_volume   3080.91516500
_cell_formula_units_Z   4
loop_
 _symmetry_equiv_pos_site_id
 _symmetry_equiv_pos_as_xyz
  1  'x, y, z'
loop_
 _atom_site_type_symbol
 _atom_site_label
 _atom_site_symmetry_multiplicity
 _atom_site_fract_x
 _atom_site_fract_y
 _atom_site_fract_z
 _atom_site_occupancy
 _atom_site_pbe_bader_charge
 _atom_site_pbe_bader_spin_density
 _atom_site_pbe_cm5_charge
 _atom_site_pbe_ddec_charge
 _atom_site_pbe_ddec_spin_density
 _atom_site_pbe_ddec_sum_bond_order
 _atom_site_pbe_magmom
Al  Al0  1  0.20946808  0.24958996  0.75120217  1  2.502412  0  0.393728  1.631101  0  2.603346  0
Al  Al1  1  0.78837292  0.75024837  0.24916618  1  2.500612  0  0.39283  1.6329  0  2.60121  0
Al  Al2  1  0.70946559  0.25044472  0.74878861  1  2.502035  0  0.393844  1.631365  0  2.602938  0
Al  Al3  1  0.28838301  0.74978681  0.25082768  1  2.501155  0  0.392931  1.632833  0  2.601273  0
H  H4  1  0.57663927  0.65456050  0.43380746  1  0.467483  0  0.299807  0.297754  0  0.964312  0
H  H5  1  0.70248368  0.68803470  0.37517211  1  0.45755  0  0.299049  0.302864  0  0.996811  0
H  H6  1  0.29365522  0.31181604  0.62563677  1  0.473936  0  0.295198  0.294005  0  1.0037  0
H  H7  1  0.43535528  0.36075302  0.58306272  1  0.448936  0  0.290362  0.281656  0  0.986838  0
H  H8  1  0.07696637  0.84538495  0.06597902  1  0.467456  0  0.299865  0.298017  0  0.964149  0
H  H9  1  0.20243839  0.81197842  0.12473873  1  0.457041  0  0.298911  0.302858  0  0.996532  0
H  H10  1  0.79377034  0.18817432  0.87437366  1  0.473918  0  0.295262  0.294125  0  1.003541  0
H  H11  1  0.93535089  0.13927740  0.91703040  1  0.44898  0  0.290598  0.281931  0  0.986492  0
H  H12  1  0.37995620  0.61775251  0.33192926  1  0.492755  0  0.304965  0.314788  0  0.988224  0
H  H13  1  0.45387240  0.53911979  0.36258549  1  0.485965  0  0.306334  0.305351  0  0.980599  0
H  H14  1  0.54545803  0.46089419  0.63681773  1  0.474602  0  0.304343  0.300045  0  0.981854  0
H  H15  1  0.62028769  0.38358070  0.66827657  1  0.493786  0  0.304047  0.309404  0  0.989572  0
H  H16  1  0.95350908  0.96097353  0.13751985  1  0.485538  0  0.306149  0.305575  0  0.980694  0
H  H17  1  0.87969464  0.88234335  0.16816326  1  0.494393  0  0.305192  0.315114  0  0.987585  0
H  H18  1  0.04589036  0.03904720  0.86308665  1  0.47425  0  0.303981  0.299861  0  0.982023  0
H  H19  1  0.12043892  0.11638911  0.83168515  1  0.493196  0  0.303988  0.309601  0  0.988921  0
H  H20  1  0.16375758  0.46264256  0.32233875  1  0.038081  0  0.090941  0.087263  0  1.011864  0
H  H21  1  0.18496807  0.37998756  0.35400724  1  0.049479  0  0.093286  0.092873  0  1.003  0
H  H22  1  0.37221814  0.41111878  0.30300066  1  0.031949  0  0.096027  0.096726  0  0.987809  0
H  H23  1  0.63198369  0.57951550  0.70224142  1  0.050413  0  0.096587  0.098269  0  0.987958  0
H  H24  1  0.83197257  0.52628315  0.67984608  1  0.044572  0  0.093699  0.091932  0  1.0157  0
H  H25  1  0.83078182  0.61172407  0.65542953  1  0.022175  0  0.089729  0.083835  0  1.003128  0
H  H26  1  0.66293762  0.03740619  0.17771154  1  0.03629  0  0.0908  0.087321  0  1.012193  0
H  H27  1  0.68375809  0.12000635  0.14603809  1  0.054505  0  0.093705  0.093386  0  1.003067  0
H  H28  1  0.87111990  0.08900952  0.19707719  1  0.031298  0  0.096171  0.097014  0  0.987381  0
H  H29  1  0.13327728  0.92040191  0.79759446  1  0.05043  0  0.09648  0.098258  0  0.988091  0
H  H30  1  0.33283341  0.97371651  0.81999984  1  0.038214  0  0.09344  0.09179  0  1.01525  0
H  H31  1  0.33225129  0.88831664  0.84440831  1  0.02893  0  0.089532  0.083524  0  1.003463  0
H  H32  1  0.37478632  0.32167612  0.50338634  1  0.452782  0  0.284942  0.281055  0  1.028403  0
H  H33  1  0.47719752  0.35524367  0.43963034  1  0.446592  0  0.297169  0.289394  0  0.966209  0
H  H34  1  0.55554242  0.64709450  0.57045861  1  0.425306  0  0.293356  0.28168  0  0.983314  0
H  H35  1  0.67214215  0.68727369  0.51207002  1  0.442054  0  0.294255  0.283758  0  0.984667  0
H  H36  1  0.87428106  0.17839980  0.99668362  1  0.452348  0  0.284436  0.280486  0  1.028645  0
H  H37  1  0.97641738  0.14487202  0.06047737  1  0.443069  0  0.296892  0.289023  0  0.966264  0
H  H38  1  0.05683990  0.85275735  0.92931548  1  0.4256  0  0.293453  0.281854  0  0.982373  0
H  H39  1  0.17325477  0.81262817  0.98775379  1  0.437228  0  0.293982  0.283479  0  0.985434  0
H  H40  1  0.36420143  0.57037037  0.92680657  1  0.42971  0  0.283607  0.268386  0  1.006227  0
H  H41  1  0.23307537  0.63785572  0.94508102  1  0.40365  0  0.289374  0.274425  0  0.966592  0
H  H42  1  0.66090732  0.41534514  0.07827993  1  0.436748  0  0.292223  0.27268  0  0.977798  0
H  H43  1  0.77754009  0.35552640  0.04346940  1  0.434431  0  0.302619  0.294701  0  0.940235  0
H  H44  1  0.86409530  0.92947099  0.57323003  1  0.428878  0  0.28372  0.268403  0  1.006373  0
H  H45  1  0.73297202  0.86201559  0.55491110  1  0.401545  0  0.289444  0.274286  0  0.96764  0
H  H46  1  0.16153294  0.08495887  0.42170614  1  0.400188  0  0.292113  0.272571  0  0.97731  0
H  H47  1  0.27791934  0.14457817  0.45679104  1  0.433174  0  0.302554  0.295066  0  0.939377  0
H  H48  1  0.79881527  0.61190471  0.90588621  1  0.373625  0  0.288846  0.273971  0  0.966443  0
H  H49  1  0.85095160  0.54710212  0.86689696  1  0.393642  0  0.289315  0.275687  0  0.973132  0
H  H50  1  0.10117928  0.42488519  0.12938172  1  0.405577  0  0.29142  0.279364  0  0.962218  0
H  H51  1  0.32293859  0.44917483  0.10273365  1  0.433227  0  0.287712  0.274621  0  0.981997  0
H  H52  1  0.29874901  0.88810636  0.59412965  1  0.373767  0  0.288903  0.27408  0  0.966629  0
H  H53  1  0.35085789  0.95289719  0.63312642  1  0.393489  0  0.289361  0.275676  0  0.973425  0
H  H54  1  0.60229454  0.07490904  0.37060718  1  0.396491  0  0.291272  0.279388  0  0.961804  0
H  H55  1  0.82376321  0.05073194  0.39754120  1  0.430926  0  0.287584  0.274011  0  0.982883  0
H  H56  1  0.32058534  0.40657792  0.93338289  1  0.416247  0  0.284496  0.274738  0  0.984916  0
H  H57  1  0.46343237  0.43189159  0.98791018  1  0.453258  0  0.273582  0.272694  0  1.031592  0
H  H58  1  0.53353627  0.56576150  0.01177095  1  0.469042  0  0.272194  0.272996  0  1.037984  0
H  H59  1  0.67009475  0.58937319  0.06821914  1  0.412998  0  0.282408  0.274341  0  0.98732  0
H  H60  1  0.82076365  0.09325444  0.56668161  1  0.417339  0  0.284529  0.275071  0  0.984918  0
H  H61  1  0.96348764  0.06799797  0.51209110  1  0.453393  0  0.273535  0.272627  0  1.031465  0
H  H62  1  0.03364458  0.93426496  0.48827804  1  0.469418  0  0.272117  0.27283  0  1.037749  0
H  H63  1  0.17006911  0.91074059  0.43177614  1  0.412444  0  0.282404  0.274363  0  0.987358  0
H  H64  1  0.46076986  0.32764748  0.77664625  1  0.623679  0  0.353369  0.428289  0  0.856977  0
H  H65  1  0.53743767  0.67194466  0.22441639  1  0.630005  0  0.353044  0.428137  0  0.858435  0
H  H66  1  0.96090245  0.17238762  0.72335312  1  0.623717  0  0.353433  0.428314  0  0.857311  0
H  H67  1  0.03737476  0.82807969  0.27560326  1  0.629441  0  0.353153  0.428211  0  0.858073  0
C  C68  1  0.45723890  0.17302088  0.67200028  1  1.673426  0  0.27059  0.720287  0  4.172895  0
C  C69  1  0.54018694  0.82824306  0.32707002  1  1.666789  0  0.267556  0.719537  0  4.171914  0
C  C70  1  0.95713228  0.32700680  0.82799614  1  1.67393  0  0.27054  0.720318  0  4.172627  0
C  C71  1  0.04022168  0.67180617  0.17290780  1  1.668894  0  0.267773  0.719024  0  4.172433  0
C  C72  1  0.46366987  0.16873559  0.83294088  1  1.478284  0  0.257645  0.661946  0  4.06877  0
C  C73  1  0.53546487  0.83043033  0.16626413  1  1.477585  0  0.256016  0.663739  0  4.064267  0
C  C74  1  0.96358202  0.33129230  0.66705965  1  1.476179  0  0.257502  0.661716  0  4.068412  0
C  C75  1  0.03560421  0.66959081  0.33372813  1  1.475561  0  0.256046  0.663871  0  4.064213  0
C  C76  1  0.86593010  0.62397196  0.42510444  1  0.391523  0  0.097024  0.267118  0  4.040143  0
C  C77  1  0.13727929  0.37809500  0.57653632  1  0.355293  0  0.09192  0.255314  0  4.010687  0
C  C78  1  0.36608245  0.87601641  0.07483265  1  0.390982  0  0.096986  0.266779  0  4.041464  0
C  C79  1  0.63728236  0.12191406  0.92347414  1  0.354151  0  0.092147  0.255308  0  4.010429  0
C  C80  1  0.03087427  0.62354158  0.38501997  1  0.00936  0  -0.053605  -0.308415  0  3.931697  0
C  C81  1  0.96997780  0.37720166  0.61562126  1  0.008376  0  -0.050533  -0.298836  0  3.948653  0
C  C82  1  0.53085829  0.87647896  0.11497247  1  0.00857  0  -0.053838  -0.308498  0  3.931866  0
C  C83  1  0.47006730  0.12280794  0.88436980  1  0.009333  0  -0.050543  -0.298633  0  3.948319  0
C  C84  1  0.18815146  0.57544964  0.39291841  1  0.487106  0  0.109544  0.281326  0  4.067658  0
C  C85  1  0.81203725  0.42482289  0.60680822  1  0.453697  0  0.098846  0.258832  0  4.067784  0
C  C86  1  0.68801414  0.92458537  0.10712333  1  0.48888  0  0.109415  0.281301  0  4.06949  0
C  C87  1  0.31230743  0.07513396  0.89313035  1  0.398718  0  0.099095  0.258897  0  4.067634  0
C  C88  1  0.15933595  0.52122138  0.43420830  1  0.023369  0  -0.038789  -0.14853  0  4.064608  0
C  C89  1  0.84396006  0.47983033  0.56699657  1  0.009531  0  -0.038818  -0.144949  0  4.081829  0
C  C90  1  0.65920668  0.97880582  0.06582277  1  0.022812  0  -0.038918  -0.148649  0  4.065165  0
C  C91  1  0.34438988  0.02011712  0.93292068  1  0.064201  0  -0.039298  -0.145641  0  4.081612  0
C  C92  1  0.00722835  0.52599714  0.47761617  1  0.004791  0  -0.008823  0.029379  0  3.993177  0
C  C93  1  0.99659543  0.47570033  0.52360179  1  -0.039816  0  -0.006141  0.03155  0  3.99048  0
C  C94  1  0.50733278  0.97398965  0.02237095  1  0.005101  0  -0.008799  0.02951  0  3.992733  0
C  C95  1  0.49677557  0.02428653  0.97635895  1  -0.040209  0  -0.005979  0.031874  0  3.990744  0
C  C96  1  0.86645478  0.58002657  0.47511831  1  0.055383  0  -0.038847  -0.152795  0  3.999501  0
C  C97  1  0.13576220  0.42142700  0.52619409  1  0.076098  0  -0.03385  -0.138313  0  3.989485  0
C  C98  1  0.36673617  0.91993228  0.02480731  1  0.036619  0  -0.038872  -0.152856  0  4.000683  0
C  C99  1  0.63567168  0.07858487  0.97382123  1  0.075959  0  -0.034177  -0.138427  0  3.989704  0
C  C100  1  0.27650045  0.46188915  0.43354111  1  0.431685  0  0.039118  0.058992  0  4.01306  0
C  C101  1  0.72701874  0.53913423  0.56808971  1  0.399612  0  0.034028  0.050791  0  4.012861  0
C  C102  1  0.77618587  0.03816822  0.06651051  1  0.431016  0  0.038763  0.058321  0  4.012521  0
C  C103  1  0.22760998  0.96078168  0.93179609  1  0.406291  0  0.033845  0.05117  0  4.013502  0
C  C104  1  0.26472286  0.41203851  0.47644043  1  0.392879  0  0.076424  0.163135  0  4.118913  0
C  C105  1  0.73469002  0.58810320  0.52439092  1  0.397463  0  0.076007  0.163707  0  4.113732  0
C  C106  1  0.76440188  0.08800976  0.02360638  1  0.393047  0  0.076353  0.163152  0  4.118279  0
C  C107  1  0.23531500  0.91181850  0.97547717  1  0.409628  0  0.075953  0.163433  0  4.114598  0
C  C108  1  0.90481269  0.53222380  0.95368727  1  0.411658  0  0.088855  0.134837  0  3.743158  0
C  C109  1  0.09186003  0.46520271  0.04692435  1  0.416398  0  0.092016  0.136529  0  3.763206  0
C  C110  1  0.40475755  0.96776843  0.54634532  1  0.416807  0  0.088943  0.135379  0  3.743092  0
C  C111  1  0.59210629  0.03473686  0.45311998  1  0.414722  0  0.091777  0.136931  0  3.762271  0
C  C112  1  0.12519314  0.54825484  0.97868400  1  0.432304  0  0.08284  0.12435  0  3.774907  0
C  C113  1  0.87457678  0.44994302  0.02198822  1  0.437318  0  0.094919  0.147823  0  3.75189  0
C  C114  1  0.62517278  0.95167316  0.52134912  1  0.432541  0  0.082488  0.124696  0  3.773159  0
C  C115  1  0.37478299  0.05008176  0.47805554  1  0.43808  0  0.094973  0.147694  0  3.751474  0
C  C116  1  0.04377350  0.62648426  0.12701619  1  0.174757  0  -0.061631  -0.249347  0  4.001397  0
C  C117  1  0.95260722  0.37239388  0.87394946  1  0.125587  0  -0.053552  -0.240778  0  3.982609  0
C  C118  1  0.54367974  0.87356945  0.37295585  1  0.183292  0  -0.061454  -0.249195  0  4.001329  0
C  C119  1  0.45279559  0.12761601  0.62607102  1  0.125302  0  -0.053576  -0.241231  0  3.981305  0
C  C120  1  0.82055741  0.52562694  0.01801131  1  0.449987  0  0.088394  0.156101  0  3.775182  0
C  C121  1  0.17678630  0.47245436  0.98296501  1  0.449819  0  0.093766  0.158918  0  3.783195  0
C  C122  1  0.32061112  0.97439343  0.48202961  1  0.445929  0  0.08824  0.155606  0  3.775688  0
C  C123  1  0.67689740  0.02745752  0.51707968  1  0.451914  0  0.093959  0.159899  0  3.782438  0
C  C124  1  0.03354678  0.54381504  0.04277783  1  0.08992  0  -0.016649  -0.060406  0  3.857354  0
C  C125  1  0.96223621  0.45604778  0.95750920  1  0.101432  0  0.0016  -0.026541  0  3.833359  0
C  C126  1  0.53358583  0.95615452  0.45725568  1  0.08953  0  -0.01626  -0.059881  0  3.857702  0
C  C127  1  0.46233906  0.04392881  0.54253518  1  0.10263  0  0.001607  -0.028474  0  3.83502  0
C  C128  1  0.05097118  0.58864086  0.08711174  1  -0.544382  0  -0.030299  0.006387  0  4.136181  0
C  C129  1  0.94278404  0.41123643  0.91294101  1  -0.475145  0  -0.019461  0.018317  0  4.086989  0
C  C130  1  0.55092290  0.91136236  0.41289466  1  -0.552507  0  -0.030568  0.005788  0  4.136982  0
C  C131  1  0.44290013  0.08876153  0.58707806  1  -0.475358  0  -0.019393  0.019677  0  4.08581  0
C  C132  1  0.26997710  0.42400742  0.33829151  1  0.390889  0  -0.144384  -0.173443  0  3.936377  0
C  C133  1  0.73488335  0.56848283  0.66651248  1  0.392889  0  -0.146575  -0.179974  0  3.950892  0
C  C134  1  0.76904090  0.07605412  0.16175777  1  0.394215  0  -0.144856  -0.174526  0  3.937033  0
C  C135  1  0.23593488  0.93148919  0.83335625  1  0.393792  0  -0.146428  -0.179915  0  3.952129  0
N  N136  1  0.71174551  0.66986068  0.41716686  1  -1.222478  0  -0.611265  -0.627142  0  3.315757  0
N  N137  1  0.30170997  0.33525088  0.58545722  1  -1.219959  0  -0.611977  -0.619764  0  3.295002  0
N  N138  1  0.21193109  0.83014125  0.08274445  1  -1.2203  0  -0.610757  -0.626795  0  3.316687  0
N  N139  1  0.80168030  0.16475232  0.91455862  1  -1.219274  0  -0.612016  -0.619787  0  3.294915  0
N  N140  1  0.36088742  0.57896068  0.36097287  1  -1.292281  0  -0.59119  -0.604697  0  3.386255  0
N  N141  1  0.63145580  0.41939493  0.63593658  1  -1.27899  0  -0.592945  -0.605865  0  3.384188  0
N  N142  1  0.86058750  0.92113671  0.13912127  1  -1.293463  0  -0.590834  -0.604923  0  3.386455  0
N  N143  1  0.13176116  0.08054969  0.86399977  1  -1.277751  0  -0.592557  -0.605734  0  3.383209  0
N  N144  1  0.35718539  0.35179541  0.46703698  1  -1.250738  0  -0.616687  -0.623173  0  3.358871  0
N  N145  1  0.61584600  0.64441212  0.53003439  1  -1.217562  0  -0.608899  -0.611944  0  3.363379  0
N  N146  1  0.85653020  0.14829004  0.03303473  1  -1.247586  0  -0.615665  -0.622063  0  3.358251  0
N  N147  1  0.11676131  0.85547378  0.96978936  1  -1.212442  0  -0.608662  -0.611829  0  3.363356  0
N  N148  1  0.27887460  0.59150967  0.95815861  1  -1.20053  0  -0.60138  -0.611721  0  3.352519  0
N  N149  1  0.72669011  0.40310198  0.04010712  1  -1.221112  0  -0.593634  -0.604678  0  3.30638  0
N  N150  1  0.77878019  0.90836695  0.54187141  1  -1.198552  0  -0.601528  -0.611862  0  3.352863  0
N  N151  1  0.22699558  0.09700869  0.45997539  1  -1.183464  0  -0.593319  -0.604755  0  3.304768  0
N  N152  1  0.79615772  0.56149375  0.90585685  1  -1.121554  0  -0.61051  -0.624275  0  3.289757  0
N  N153  1  0.18724308  0.42870144  0.09254414  1  -1.196349  0  -0.616153  -0.627266  0  3.300474  0
N  N154  1  0.29607743  0.93851425  0.59417347  1  -1.121467  0  -0.610566  -0.624341  0  3.290254  0
N  N155  1  0.68782916  0.07119691  0.40754381  1  -1.183767  0  -0.615983  -0.626903  0  3.299826  0
N  N156  1  0.35206583  0.44537796  0.95871806  1  -1.206691  0  -0.618866  -0.628351  0  3.280543  0
N  N157  1  0.64104800  0.55123092  0.04185674  1  -1.228245  0  -0.62233  -0.639003  0  3.26  0
N  N158  1  0.85223073  0.05447449  0.54131133  1  -1.209829  0  -0.618944  -0.629102  0  3.280556  0
N  N159  1  0.14105382  0.94885879  0.45817921  1  -1.229024  0  -0.622081  -0.638754  0  3.260063  0
O  O160  1  0.63077937  0.18875073  0.80993714  1  -1.270965  0  -0.246036  -0.610513  0  2.399186  0
O  O161  1  0.36728571  0.81057109  0.18880543  1  -1.270671  0  -0.245888  -0.610681  0  2.392041  0
O  O162  1  0.13070538  0.31133904  0.69009655  1  -1.270814  0  -0.246083  -0.610494  0  2.398998  0
O  O163  1  0.86744273  0.68936169  0.31110872  1  -1.269571  0  -0.245849  -0.610617  0  2.391699  0
O  O164  1  0.28731385  0.19072925  0.69208058  1  -1.2506  0  -0.231307  -0.592733  0  2.31073  0
O  O165  1  0.71045758  0.80998825  0.30750198  1  -1.245456  0  -0.233428  -0.59502  0  2.309563  0
O  O166  1  0.78725963  0.30934768  0.80788514  1  -1.25107  0  -0.231329  -0.592654  0  2.310475  0
O  O167  1  0.21042317  0.68994531  0.19256201  1  -1.246398  0  -0.233506  -0.594623  0  2.309715  0
O  O168  1  0.29153633  0.18600831  0.81109915  1  -1.270096  0  -0.245408  -0.610882  0  2.375271  0
O  O169  1  0.70681994  0.81282595  0.18836983  1  -1.269471  0  -0.244991  -0.611683  0  2.376134  0
O  O170  1  0.79145033  0.31397715  0.68887084  1  -1.268982  0  -0.245312  -0.610584  0  2.374891  0
O  O171  1  0.20697384  0.68728892  0.31169852  1  -1.268621  0  -0.244977  -0.611764  0  2.375866  0
O  O172  1  0.12978166  0.30799995  0.81064085  1  -1.241687  0  -0.23252  -0.591098  0  2.281462  0
O  O173  1  0.86770351  0.69060674  0.19069179  1  -1.250175  0  -0.235101  -0.594049  0  2.281923  0
O  O174  1  0.62985032  0.19199004  0.68937723  1  -1.242249  0  -0.232458  -0.590962  0  2.281115  0
O  O175  1  0.36772794  0.80954773  0.30920583  1  -1.248972  0  -0.234912  -0.594276  0  2.282368  0
O  O176  1  0.45890938  0.29191916  0.74983707  1  -1.429277  0  -0.449258  -0.982804  0  2.184203  0
O  O177  1  0.53867043  0.70807567  0.25080900  1  -1.434049  0  -0.449294  -0.983645  0  2.186332  0
O  O178  1  0.95896374  0.20811988  0.75015671  1  -1.429171  0  -0.449214  -0.982721  0  2.184555  0
O  O179  1  0.03862400  0.79194968  0.24920886  1  -1.433285  0  -0.449341  -0.983654  0  2.185975  0
O  O180  1  0.39372603  0.44786649  0.38443133  1  -1.063702  0  -0.216128  -0.199957  0  2.529208  0
O  O181  1  0.61050979  0.55300948  0.61756568  1  -1.071232  0  -0.215294  -0.197719  0  2.529872  0
O  O182  1  0.89314272  0.05223194  0.11565296  1  -1.06905  0  -0.216044  -0.199595  0  2.52862  0
O  O183  1  0.11140606  0.94690606  0.88229194  1  -1.074806  0  -0.214776  -0.197547  0  2.531767  0
