# generated using pymatgen
data_Zr6H23C50N5(O21F)2
_symmetry_space_group_name_H-M   'P 1'
_cell_length_a   14.75693488
_cell_length_b   14.78862506
_cell_length_c   14.80428887
_cell_angle_alpha   60.14827237
_cell_angle_beta   59.98169190
_cell_angle_gamma   60.11329112
_symmetry_Int_Tables_number   1
_chemical_formula_structural   Zr6H23C50N5(O21F)2
_chemical_formula_sum   'Zr6 H23 C50 N5 O42 F2'
_cell_volume   2288.71514820
_cell_formula_units_Z   1
loop_
 _symmetry_equiv_pos_site_id
 _symmetry_equiv_pos_as_xyz
  1  'x, y, z'
loop_
 _atom_site_type_symbol
 _atom_site_label
 _atom_site_symmetry_multiplicity
 _atom_site_fract_x
 _atom_site_fract_y
 _atom_site_fract_z
 _atom_site_occupancy
 _atom_site_pbe_bader_charge
 _atom_site_pbe_bader_spin_density
 _atom_site_pbe_cm5_charge
 _atom_site_pbe_ddec_charge
 _atom_site_pbe_ddec_spin_density
 _atom_site_pbe_ddec_sum_bond_order
 _atom_site_pbe_magmom
Zr  Zr0  1  0.87703806  0.88286877  0.61682519  1  2.63716  0  1.627164  2.370137  0  2.756944  0
Zr  Zr1  1  0.11835504  0.12012718  0.37811315  1  2.641063  0  1.636831  2.38005  0  2.744777  0
Zr  Zr2  1  0.11689331  0.88187315  0.61684327  1  2.641601  0  1.635099  2.377552  0  2.754087  0
Zr  Zr3  1  0.87818428  0.12132777  0.37802471  1  2.633458  0  1.626648  2.371696  0  2.752645  0
Zr  Zr4  1  0.11656904  0.88181665  0.37772872  1  2.638153  0  1.629169  2.377585  0  2.741987  0
Zr  Zr5  1  0.87834039  0.12150105  0.61690641  1  2.637315  0  1.629203  2.377488  0  2.744499  0
H  H6  1  0.08976870  0.71969358  0.59208503  1  0.615006  0  0.33277  0.424534  0  0.856811  0
H  H7  1  0.09239829  0.09513413  0.21557313  1  0.62329  0  0.332875  0.425034  0  0.856939  0
H  H8  1  0.09327490  0.09452296  0.59145293  1  0.616959  0  0.333804  0.427476  0  0.851249  0
H  H9  1  0.71436711  0.09641363  0.59217053  1  0.609485  0  0.331413  0.422677  0  0.859379  0
H  H10  1  0.83985933  0.59468574  0.63250019  1  0.12199  0  0.113786  0.119671  0  0.987723  0
H  H11  1  0.14999679  0.58118713  0.36251177  1  0.167646  0  0.120939  0.143251  0  0.998619  0
H  H12  1  0.84623264  0.42279126  0.63054839  1  0.113125  0  0.116263  0.127805  0  0.989327  0
H  H13  1  0.59148030  0.84525888  0.92423197  1  0.083564  0  0.112963  0.118099  0  0.993847  0
H  H14  1  0.59508917  0.13659916  0.91996083  1  0.159406  0  0.122045  0.145117  0  0.99129  0
H  H15  1  0.42233731  0.84713674  0.09487679  1  0.148388  0  0.114828  0.129041  0  0.997567  0
H  H16  1  0.13319334  0.84600322  0.09017779  1  0.123332  0  0.119775  0.129893  0  0.972089  0
H  H17  1  0.85256400  0.14617052  0.08462136  1  0.143949  0  0.121211  0.136506  0  0.983696  0
H  H18  1  0.13158679  0.84967297  0.91962427  1  0.131048  0  0.120096  0.133614  0  0.983827  0
H  H19  1  0.59097668  0.43066966  0.63245485  1  0.118998  0  0.119322  0.128733  0  0.973764  0
H  H20  1  0.58593603  0.41445716  0.35284652  1  0.127817  0  0.121648  0.137226  0  0.983523  0
H  H21  1  0.42122126  0.59998184  0.62912910  1  0.143001  0  0.118446  0.13402  0  0.992565  0
H  H22  1  0.74034779  0.62905065  0.95576599  1  0.065075  0  0.099219  0.109735  0  0.98465  0
H  H23  1  0.83436806  0.54418182  0.87050887  1  0.072934  0  0.099727  0.110562  0  0.981327  0
H  H24  1  0.83381949  0.37446944  0.03983767  1  0.065282  0  0.097976  0.108622  0  0.98524  0
H  H25  1  0.74044625  0.45924783  0.12530121  1  0.060495  0  0.098388  0.1099  0  0.984346  0
H  H26  1  0.58881841  0.13821263  0.34265473  1  0.122099  0  0.11706  0.125416  0  0.975243  0
H  H27  1  0.58546170  0.85734039  0.64151438  1  0.133141  0  0.121516  0.1389  0  0.978209  0
H  H28  1  0.41906976  0.13417023  0.34663616  1  0.152972  0  0.116704  0.132361  0  1.015651  0
C  C29  1  0.99159160  0.70170117  0.49562801  1  1.577338  0  0.23943  0.640953  0  4.095864  0
C  C30  1  0.30764409  0.99548925  0.19938656  1  1.569914  0  0.23929  0.645914  0  4.104293  0
C  C31  1  0.99836842  0.30589890  0.49586089  1  1.600278  0  0.239737  0.646189  0  4.102832  0
C  C32  1  0.69910355  0.99577797  0.80601473  1  1.552924  0  0.240414  0.641964  0  4.093695  0
C  C33  1  0.99138129  0.70584885  0.80517072  1  1.549279  0  0.239066  0.666173  0  4.100686  0
C  C34  1  0.69687933  0.99993976  0.49256899  1  1.553837  0  0.23951  0.640864  0  4.098788  0
C  C35  1  0.99310154  0.30812944  0.20062062  1  1.569788  0  0.238584  0.66531  0  4.097638  0
C  C36  1  0.30572254  0.99523538  0.49465325  1  1.59333  0  0.241457  0.649438  0  4.099531  0
C  C37  1  0.30458674  0.70118973  0.49325499  1  1.55534  0  0.23983  0.645156  0  4.105104  0
C  C38  1  0.99405974  0.99868972  0.80441317  1  1.602215  0  0.238993  0.643822  0  4.107889  0
C  C39  1  0.69846953  0.31010721  0.49438971  1  1.552848  0  0.240119  0.639449  0  4.099849  0
C  C40  1  0.99414491  0.99681311  0.19757882  1  1.56097  0  0.238925  0.638137  0  4.101151  0
C  C41  1  0.00080792  0.40523494  0.49698570  1  0.001494  0  -0.003093  -0.078879  0  3.917216  0
C  C42  1  0.99331134  0.59939001  0.49644835  1  -0.008585  0  -0.006146  -0.015728  0  3.952566  0
C  C43  1  0.08660134  0.45042731  0.42365887  1  0.155242  0  0.091229  0.07132  0  3.915178  0
C  C44  1  0.90836501  0.55409653  0.57313907  1  -0.018432  0  -0.072865  -0.086972  0  3.94929  0
C  C45  1  0.08291207  0.54729646  0.42093180  1  -0.001125  0  -0.069017  -0.138943  0  3.913375  0
C  C46  1  0.91189821  0.45879577  0.57228727  1  0.031644  0  -0.068936  -0.066534  0  3.936359  0
C  C47  1  0.41248114  0.99312672  0.10207313  1  -0.003847  0  -0.003985  -0.079832  0  3.919271  0
C  C48  1  0.60208196  0.99179029  0.91089521  1  -0.024413  0  -0.005892  -0.013674  0  3.952861  0
C  C49  1  0.46382921  0.07289198  0.05201737  1  0.214187  0  0.09099  0.069722  0  3.923589  0
C  C50  1  0.55463726  0.90912683  0.96090026  1  -0.023633  0  -0.074222  -0.088518  0  3.950319  0
C  C51  1  0.55706810  0.07356972  0.95753951  1  0.046537  0  -0.069199  -0.140327  0  3.917553  0
C  C52  1  0.46085943  0.91021704  0.05522010  1  -0.014146  0  -0.069904  -0.069384  0  3.936312  0
C  C53  1  0.99166040  0.99860445  0.90666828  1  0.018533  0  -0.002756  -0.078219  0  3.915608  0
C  C54  1  0.99311171  0.99580188  0.09744843  1  0.023026  0  -0.004425  -0.012944  0  3.950072  0
C  C55  1  0.91382415  0.08140227  0.95471756  1  0.114757  0  0.088132  0.06676  0  3.925449  0
C  C56  1  0.07162663  0.91190155  0.05145625  1  -0.001832  0  -0.067285  -0.080274  0  3.926104  0
C  C57  1  0.91346125  0.08106925  0.04873542  1  0.010223  0  -0.072639  -0.148145  0  3.939299  0
C  C58  1  0.07058681  0.91366416  0.95714390  1  0.000668  0  -0.062627  -0.059728  0  3.915328  0
C  C59  1  0.40719111  0.60164423  0.49095655  1  0.02509  0  -0.002778  -0.078662  0  3.919351  0
C  C60  1  0.59854846  0.41255106  0.49291358  1  -0.045403  0  -0.004218  -0.011974  0  3.94888  0
C  C61  1  0.45566985  0.54820965  0.41343353  1  0.174418  0  0.088187  0.065669  0  3.933175  0
C  C62  1  0.55234360  0.46455658  0.57092106  1  0.001017  0  -0.068117  -0.080623  0  3.9293  0
C  C63  1  0.55000993  0.45515456  0.41322569  1  0.042484  0  -0.072426  -0.148439  0  3.939893  0
C  C64  1  0.45791903  0.55811723  0.56948511  1  0.025876  0  -0.064179  -0.062536  0  3.916038  0
C  C65  1  0.98920779  0.60949619  0.90856749  1  -0.002223  0  -0.017987  -0.173878  0  3.985595  0
C  C66  1  0.99046001  0.41159943  0.10417939  1  0.012358  0  -0.017379  -0.173666  0  3.978741  0
C  C67  1  0.91239600  0.55529280  0.95769040  1  -0.018668  0  -0.00837  0.060972  0  3.915994  0
C  C68  1  0.06727447  0.46659829  0.05673992  1  0.616534  0  0.106072  0.165058  0  4.043891  0
C  C69  1  0.91277868  0.46102270  0.05112648  1  0.014202  0  -0.007065  0.063345  0  3.910033  0
C  C70  1  0.06625103  0.56214212  0.96286409  1  0.551599  0  0.102864  0.161322  0  4.039227  0
C  C71  1  0.81533898  0.55657223  0.94618572  1  -0.062547  0  -0.147187  -0.188973  0  3.870739  0
C  C72  1  0.81534906  0.44980658  0.05255511  1  -0.002951  0  -0.147254  -0.189035  0  3.870512  0
C  C73  1  0.40733558  0.99392868  0.49489743  1  0.048846  0  -0.001962  -0.078504  0  3.913118  0
C  C74  1  0.59721499  0.99793281  0.49157283  1  0.0519  0  -0.006503  -0.018508  0  3.963116  0
C  C75  1  0.45555825  0.91661083  0.57735433  1  0.155204  0  0.087732  0.065022  0  3.93526  0
C  C76  1  0.55079036  0.07597327  0.40830608  1  -0.056804  0  -0.068233  -0.077469  0  3.921381  0
C  C77  1  0.54932417  0.91747054  0.57671152  1  -0.020033  0  -0.074455  -0.149507  0  3.945399  0
C  C78  1  0.45675489  0.07380451  0.41023728  1  0.004874  0  -0.062112  -0.049744  0  3.89995  0
N  N79  1  0.18974756  0.39631931  0.34766305  1  0.425572  0  0.062057  0.522682  0  4.231039  0
N  N80  1  0.42328597  0.16247045  0.09519117  1  0.4119  0  0.062257  0.523312  0  4.238291  0
N  N81  1  0.82719983  0.17570053  0.90822994  1  0.431417  0  0.062028  0.523761  0  4.238758  0
N  N82  1  0.40893215  0.58602379  0.32735413  1  0.419506  0  0.064136  0.527573  0  4.239237  0
N  N83  1  0.40939269  0.82980413  0.67174896  1  0.432634  0  0.062209  0.526246  0  4.235157  0
O  O84  1  0.91466935  0.74066926  0.57283183  1  -1.185002  0  -0.352945  -0.618512  0  2.276829  0
O  O85  1  0.26549829  0.07420566  0.23692017  1  -1.172988  0  -0.348952  -0.609024  0  2.319161  0
O  O86  1  0.07339368  0.26739327  0.41811634  1  -1.173208  0  -0.346639  -0.60508  0  2.309336  0
O  O87  1  0.73532584  0.92149359  0.76434921  1  -1.173478  0  -0.354856  -0.618778  0  2.285273  0
O  O88  1  0.06945471  0.74481935  0.76208383  1  -1.161357  0  -0.36065  -0.617006  0  2.324384  0
O  O89  1  0.73521226  0.07777151  0.41690948  1  -1.175239  0  -0.352784  -0.615641  0  2.279086  0
O  O90  1  0.91709554  0.26820871  0.23614721  1  -1.171751  0  -0.354379  -0.614576  0  2.25364  0
O  O91  1  0.26501797  0.91946682  0.57190839  1  -1.175435  0  -0.353566  -0.617388  0  2.323938  0
O  O92  1  0.26436999  0.74008201  0.41736181  1  -1.165459  0  -0.35092  -0.615197  0  2.31815  0
O  O93  1  0.91830158  0.07605759  0.76399027  1  -1.17934  0  -0.351312  -0.614873  0  2.322888  0
O  O94  1  0.73672085  0.27019096  0.57202607  1  -1.17569  0  -0.349827  -0.612237  0  2.269267  0
O  O95  1  0.07188629  0.92086002  0.23573136  1  -1.17615  0  -0.349943  -0.611598  0  2.275265  0
O  O96  1  0.07185152  0.92277597  0.76483804  1  -1.17774  0  -0.341144  -0.597025  0  2.280412  0
O  O97  1  0.73630104  0.26965872  0.41881273  1  -1.180425  0  -0.351139  -0.615687  0  2.283474  0
O  O98  1  0.91821557  0.07466743  0.23586363  1  -1.178417  0  -0.35074  -0.615732  0  2.279417  0
O  O99  1  0.26453321  0.73843694  0.57150461  1  -1.170219  0  -0.342965  -0.598471  0  2.276332  0
O  O100  1  0.91575305  0.74101440  0.76544928  1  -1.170997  0  -0.348742  -0.608704  0  2.255102  0
O  O101  1  0.26647871  0.07227976  0.41858931  1  -1.170471  0  -0.342494  -0.596276  0  2.295559  0
O  O102  1  0.07054741  0.26547691  0.23981366  1  -1.160374  0  -0.352779  -0.60578  0  2.314308  0
O  O103  1  0.73499827  0.92433904  0.57034661  1  -1.182413  0  -0.353264  -0.615505  0  2.286327  0
O  O104  1  0.73670393  0.07436899  0.76484736  1  -1.173522  0  -0.349553  -0.609543  0  2.281454  0
O  O105  1  0.06847273  0.74120120  0.41878478  1  -1.185222  0  -0.350331  -0.608972  0  2.28397  0
O  O106  1  0.26682997  0.92052530  0.23591344  1  -1.171308  0  -0.346533  -0.607099  0  2.272603  0
O  O107  1  0.92071555  0.26758473  0.57271597  1  -1.178393  0  -0.349216  -0.610518  0  2.281238  0
O  O108  1  0.79479218  0.06995760  0.56488946  1  -1.236265  0  -0.692848  -1.068875  0  2.35943  0
O  O109  1  0.06581561  0.06824847  0.56479698  1  -1.242491  0  -0.694129  -1.073993  0  2.359522  0
O  O110  1  0.06538165  0.06770106  0.29571398  1  -1.250366  0  -0.69435  -1.072323  0  2.366383  0
O  O111  1  0.06384437  0.79981093  0.56438878  1  -1.243483  0  -0.694212  -1.071635  0  2.36386  0
O  O112  1  0.14655563  0.95108349  0.44774327  1  -1.202141  0  -0.790181  -1.152013  0  2.125422  0
O  O113  1  0.94711565  0.95231692  0.44770021  1  -1.204229  0  -0.790349  -1.148538  0  2.12253  0
O  O114  1  0.94828226  0.14998470  0.44829986  1  -1.198701  0  -0.791147  -1.152452  0  2.130781  0
O  O115  1  0.94724221  0.95263451  0.64616171  1  -1.199595  0  -0.791  -1.151444  0  2.13085  0
O  O116  1  0.25637593  0.31264540  0.39060806  1  -0.446001  0  -0.12638  -0.326803  0  1.917833  0
O  O117  1  0.20402303  0.44274000  0.24798562  1  -0.414396  0  -0.112928  -0.302634  0  1.903558  0
O  O118  1  0.36471960  0.25354268  0.05077935  1  -0.410328  0  -0.116967  -0.308445  0  1.8935  0
O  O119  1  0.45769319  0.13998789  0.16723255  1  -0.439911  0  -0.116687  -0.314031  0  1.926316  0
O  O120  1  0.85065904  0.26065982  0.84162893  1  -0.449728  0  -0.127967  -0.329326  0  1.889679  0
O  O121  1  0.73642105  0.16434683  0.94479560  1  -0.431422  0  -0.11791  -0.314147  0  1.912515  0
O  O122  1  0.33777270  0.54862309  0.35283963  1  -0.445422  0  -0.119477  -0.318592  0  1.914867  0
O  O123  1  0.44977011  0.64646418  0.23500528  1  -0.440399  0  -0.123257  -0.324648  0  1.897684  0
O  O124  1  0.33992843  0.85390164  0.75576747  1  -0.438372  0  -0.123485  -0.322417  0  1.890369  0
O  O125  1  0.44916884  0.73822384  0.66136948  1  -0.448597  0  -0.123415  -0.323356  0  1.892341  0
F  F126  1  0.14619406  0.43044864  0.09854494  1  -0.603967  0  -0.071197  -0.077325  0  1.473513  0
F  F127  1  0.14432518  0.60579026  0.92721542  1  -0.6125  0  -0.08336  -0.096995  0  1.393723  0
