# generated using pymatgen
data_Gd2H37C36N7O22
_symmetry_space_group_name_H-M   'P 1'
_cell_length_a   13.68675663
_cell_length_b   13.68675492
_cell_length_c   16.31012031
_cell_angle_alpha   67.05360918
_cell_angle_beta   67.05359542
_cell_angle_gamma   75.71513410
_symmetry_Int_Tables_number   1
_chemical_formula_structural   Gd2H37C36N7O22
_chemical_formula_sum   'Gd4 H74 C72 N14 O44'
_cell_volume   2574.70309964
_cell_formula_units_Z   2
loop_
 _symmetry_equiv_pos_site_id
 _symmetry_equiv_pos_as_xyz
  1  'x, y, z'
loop_
 _atom_site_type_symbol
 _atom_site_label
 _atom_site_symmetry_multiplicity
 _atom_site_fract_x
 _atom_site_fract_y
 _atom_site_fract_z
 _atom_site_occupancy
 _atom_site_pbe_bader_charge
 _atom_site_pbe_bader_spin_density
 _atom_site_pbe_cm5_charge
 _atom_site_pbe_ddec_charge
 _atom_site_pbe_ddec_spin_density
 _atom_site_pbe_ddec_sum_bond_order
 _atom_site_pbe_magmom
Gd  Gd0  1  0.54846142  0.83012040  0.00160414  1  2.205037  0  1.480271  2.060231  0  2.234412  0
Gd  Gd1  1  0.16987934  0.45153905  0.49839623  1  2.205036  0  1.480261  2.060224  0  2.234454  0
Gd  Gd2  1  0.45153820  0.16987966  0.99839639  1  2.205032  0  1.480262  2.060232  0  2.234414  0
Gd  Gd3  1  0.83012028  0.54846022  0.50160395  1  2.205032  0  1.480263  2.060239  0  2.234428  0
H  H4  1  0.75939260  0.24060689  0.75000005  1  0.125266  0  0.116314  0.120444  0  1.027558  0
H  H5  1  0.24060702  0.75939237  0.25000013  1  0.125261  0  0.11633  0.120509  0  1.027519  0
H  H6  1  0.65562915  0.91658079  0.44480448  1  0.154105  0  0.120013  0.132419  0  0.995391  0
H  H7  1  0.08341916  0.34437112  0.05519528  1  0.154108  0  0.120024  0.132435  0  0.995362  0
H  H8  1  0.34437128  0.08341918  0.55519521  1  0.154109  0  0.120029  0.132435  0  0.995355  0
H  H9  1  0.91658127  0.65562885  0.94480441  1  0.154115  0  0.120022  0.132433  0  0.995379  0
H  H10  1  0.86841858  0.90736410  0.85479006  1  0.17128  0  0.123047  0.141722  0  0.996268  0
H  H11  1  0.09263552  0.13158117  0.64520998  1  0.171288  0  0.123055  0.141744  0  0.996252  0
H  H12  1  0.13158185  0.09263586  0.14520963  1  0.171279  0  0.123043  0.141709  0  0.996273  0
H  H13  1  0.90736411  0.86841809  0.35479019  1  0.171277  0  0.123044  0.141716  0  0.996271  0
H  H14  1  0.66867252  0.76982248  0.25006899  1  0.126654  0  0.1177  0.128432  0  0.994323  0
H  H15  1  0.23017818  0.33132689  0.24993080  1  0.126684  0  0.117704  0.128428  0  0.994356  0
H  H16  1  0.33132711  0.23017758  0.74993093  1  0.126689  0  0.117724  0.128463  0  0.99432  0
H  H17  1  0.76982145  0.66867317  0.75006912  1  0.126677  0  0.117738  0.128473  0  0.994318  0
H  H18  1  0.53507304  0.09792426  0.21330373  1  0.150494  0  0.124117  0.136053  0  1.006443  0
H  H19  1  0.90207629  0.46492648  0.28669722  1  0.150482  0  0.124127  0.136089  0  1.006417  0
H  H20  1  0.46492739  0.90207571  0.78669596  1  0.150489  0  0.124129  0.136069  0  1.00643  0
H  H21  1  0.09792413  0.53507349  0.71330247  1  0.150475  0  0.124119  0.136064  0  1.006416  0
H  H22  1  0.41177810  0.74600375  0.23533300  1  0.117553  0  0.1142  0.133857  0  1.05354  0
H  H23  1  0.25399621  0.58822259  0.26466662  1  0.117552  0  0.114197  0.133862  0  1.053516  0
H  H24  1  0.58822153  0.25399631  0.76466691  1  0.117569  0  0.114227  0.133875  0  1.053527  0
H  H25  1  0.74600342  0.41177747  0.73533330  1  0.117549  0  0.114225  0.133895  0  1.053507  0
H  H26  1  0.45458036  0.74934220  0.32439583  1  0.043185  0  0.10013  0.109869  0  1.011978  0
H  H27  1  0.25065851  0.54541982  0.17560432  1  0.043031  0  0.100134  0.109865  0  1.011968  0
H  H28  1  0.54541927  0.25065865  0.67560444  1  0.042987  0  0.100132  0.109837  0  1.011987  0
H  H29  1  0.74934111  0.45457945  0.82439586  1  0.043195  0  0.100138  0.109849  0  1.011987  0
H  H30  1  0.36866330  0.65249610  0.35307186  1  0.113149  0  0.109243  0.130195  0  1.024835  0
H  H31  1  0.34750500  0.63133806  0.14692778  1  0.113112  0  0.10923  0.13016  0  1.02485  0
H  H32  1  0.63133633  0.34750475  0.64692841  1  0.113142  0  0.109236  0.130172  0  1.02485  0
H  H33  1  0.65249543  0.36866191  0.85307252  1  0.113122  0  0.109234  0.130173  0  1.024842  0
H  H34  1  0.63756672  0.55300862  0.17731249  1  0.115636  0  0.126587  0.054715  0  0.998192  0
H  H35  1  0.44699235  0.36243371  0.32268745  1  0.115682  0  0.12658  0.054693  0  0.998197  0
H  H36  1  0.36243291  0.44699143  0.82268804  1  0.115629  0  0.126586  0.054711  0  0.998191  0
H  H37  1  0.55300887  0.63756617  0.67731262  1  0.115643  0  0.126584  0.054694  0  0.998217  0
H  H38  1  0.30235123  0.87403758  0.96975889  1  0.096676  0  0.126678  0.047467  0  0.998922  0
H  H39  1  0.12596195  0.69764869  0.53024119  1  0.096668  0  0.126672  0.047466  0  0.998923  0
H  H40  1  0.69764919  0.12596239  0.03024141  1  0.096595  0  0.126676  0.047469  0  0.998915  0
H  H41  1  0.87403847  0.30235048  0.46975876  1  0.096582  0  0.126669  0.047468  0  0.998908  0
H  H42  1  0.63969035  0.50032715  0.31845484  1  0.062342  0  0.111477  0.132268  0  1.012592  0
H  H43  1  0.49967312  0.36030915  0.18154563  1  0.062338  0  0.111462  0.132231  0  1.012586  0
H  H44  1  0.36030928  0.49967370  0.68154544  1  0.062335  0  0.111461  0.132214  0  1.012589  0
H  H45  1  0.50032730  0.63969002  0.81845493  1  0.062354  0  0.111468  0.132239  0  1.012595  0
H  H46  1  0.51004038  0.50704450  0.40524036  1  0.044971  0  0.106558  0.122646  0  1.001401  0
H  H47  1  0.49295641  0.48996047  0.09475948  1  0.046007  0  0.106554  0.122636  0  1.001395  0
H  H48  1  0.48996005  0.49295547  0.59475994  1  0.046013  0  0.106564  0.122666  0  1.001378  0
H  H49  1  0.50704322  0.51003959  0.90524105  1  0.046022  0  0.106546  0.122615  0  1.001419  0
H  H50  1  0.60164559  0.60132237  0.37094341  1  0.091941  0  0.106277  0.132598  0  1.015512  0
H  H51  1  0.39867732  0.39835447  0.12905647  1  0.091939  0  0.106303  0.132631  0  1.015517  0
H  H52  1  0.39835403  0.39867769  0.62905651  1  0.091939  0  0.106279  0.132596  0  1.015521  0
H  H53  1  0.60132310  0.60164550  0.87094322  1  0.091931  0  0.106257  0.132543  0  1.015501  0
H  H54  1  0.30328365  0.62330112  0.90197422  1  0.073182  0  0.106368  0.120877  0  0.994788  0
H  H55  1  0.37669848  0.69671736  0.59802545  1  0.073191  0  0.106373  0.12088  0  0.994797  0
H  H56  1  0.69671678  0.37669964  0.09802521  1  0.073164  0  0.106376  0.120883  0  0.994787  0
H  H57  1  0.62330114  0.30328270  0.40197447  1  0.073192  0  0.106381  0.120896  0  0.994772  0
H  H58  1  0.22418616  0.58220820  0.02262142  1  0.073398  0  0.105513  0.120813  0  1.00018  0
H  H59  1  0.41779156  0.77581366  0.47737855  1  0.073403  0  0.105513  0.12081  0  1.000186  0
H  H60  1  0.77581346  0.41779185  0.97737850  1  0.073404  0  0.105484  0.120786  0  1.000182  0
H  H61  1  0.58220887  0.22418630  0.52262114  1  0.073405  0  0.105507  0.120809  0  1.000191  0
H  H62  1  0.36273431  0.59628452  0.99034622  1  0.07584  0  0.112444  0.126332  0  1.02489  0
H  H63  1  0.40371553  0.63726578  0.50965359  1  0.07584  0  0.112444  0.126333  0  1.024886  0
H  H64  1  0.63726611  0.40371545  0.00965346  1  0.075838  0  0.112477  0.12638  0  1.024858  0
H  H65  1  0.59628489  0.36273418  0.49034610  1  0.075841  0  0.112439  0.126328  0  1.024898  0
H  H66  1  0.15503078  0.87683921  0.95136266  1  0.034611  0  0.109274  0.118165  0  0.989572  0
H  H67  1  0.12316072  0.84496967  0.54863713  1  0.034611  0  0.10927  0.118164  0  0.989584  0
H  H68  1  0.84496884  0.12316084  0.04863787  1  0.034615  0  0.109272  0.118173  0  0.989574  0
H  H69  1  0.87683970  0.15503030  0.45136256  1  0.034603  0  0.109271  0.118155  0  0.989571  0
H  H70  1  0.09625192  0.75368838  0.00862519  1  0.078177  0  0.109718  0.128095  0  0.967708  0
H  H71  1  0.24631198  0.90374814  0.49137455  1  0.078176  0  0.109717  0.128099  0  0.967704  0
H  H72  1  0.90374850  0.24631159  0.99137450  1  0.078177  0  0.109719  0.128112  0  0.967678  0
H  H73  1  0.75368844  0.09625183  0.50862575  1  0.078303  0  0.109721  0.128096  0  0.967701  0
H  H74  1  0.16429579  0.79530490  0.88473471  1  0.095311  0  0.101173  0.118826  0  1.029257  0
H  H75  1  0.20469479  0.83570376  0.61526605  1  0.0953  0  0.101187  0.11885  0  1.029242  0
H  H76  1  0.83570383  0.20469515  0.11526582  1  0.095283  0  0.101187  0.118853  0  1.029237  0
H  H77  1  0.79530483  0.16429550  0.38473474  1  0.095294  0  0.101172  0.118822  0  1.029262  0
C  C78  1  0.80223586  0.07240932  0.81059384  1  -0.00432  0  -0.009378  -0.023592  0  3.935636  0
C  C79  1  0.92759045  0.19776401  0.68940604  1  -0.004313  0  -0.009407  -0.023613  0  3.935589  0
C  C80  1  0.19776457  0.92759065  0.18940585  1  -0.004299  0  -0.009409  -0.02365  0  3.93566  0
C  C81  1  0.07240917  0.80223526  0.31059414  1  -0.004329  0  -0.009398  -0.023626  0  3.935629  0
C  C82  1  0.82409568  0.17590377  0.75000006  1  -0.062134  0  -0.058659  -0.077085  0  3.869665  0
C  C83  1  0.17590394  0.82409549  0.25000012  1  -0.062107  0  -0.058674  -0.077162  0  3.86971  0
C  C84  1  0.63942947  0.92122919  0.38318718  1  -0.002335  0  -0.060505  -0.105449  0  3.918293  0
C  C85  1  0.07877237  0.36056956  0.11681307  1  -0.001851  0  -0.060517  -0.105478  0  3.918289  0
C  C86  1  0.36057015  0.07877166  0.61681309  1  -0.002326  0  -0.060514  -0.105467  0  3.918253  0
C  C87  1  0.92122805  0.63942962  0.88318688  1  -0.001893  0  -0.060492  -0.105449  0  3.918342  0
C  C88  1  0.69053275  0.05040812  0.87728583  1  1.622513  0  0.234579  0.644584  0  4.17107  0
C  C89  1  0.94959149  0.30946694  0.62271355  1  1.622504  0  0.234662  0.6447  0  4.170993  0
C  C90  1  0.30946767  0.94959185  0.12271386  1  1.622413  0  0.23462  0.644663  0  4.171057  0
C  C91  1  0.05040814  0.69053232  0.37728602  1  1.622487  0  0.234621  0.644672  0  4.171107  0
C  C92  1  0.57120949  0.93930217  0.14054304  1  1.605914  0  0.232833  0.641028  0  4.169969  0
C  C93  1  0.06069869  0.42878980  0.35945736  1  1.605908  0  0.232826  0.640997  0  4.169979  0
C  C94  1  0.42879013  0.06069789  0.85945688  1  1.605938  0  0.23283  0.641007  0  4.169929  0
C  C95  1  0.93930174  0.57121017  0.64054232  1  1.605907  0  0.232811  0.640978  0  4.170014  0
C  C96  1  0.88474458  0.98859674  0.80942527  1  0.038889  0  -0.064452  -0.121309  0  3.904308  0
C  C97  1  0.01140284  0.11525531  0.69057414  1  0.039085  0  -0.064459  -0.121346  0  3.904306  0
C  C98  1  0.11525505  0.01140332  0.19057465  1  0.038897  0  -0.064439  -0.121255  0  3.904269  0
C  C99  1  0.98859678  0.88474475  0.30942517  1  0.038894  0  -0.064446  -0.12128  0  3.904275  0
C  C100  1  0.64602067  0.83860454  0.27417068  1  -0.014284  0  -0.057597  -0.081452  0  3.876499  0
C  C101  1  0.16139541  0.35397859  0.22583001  1  -0.014327  0  -0.057607  -0.081477  0  3.876547  0
C  C102  1  0.35397895  0.16139552  0.72582985  1  -0.014336  0  -0.057616  -0.081498  0  3.876502  0
C  C103  1  0.83860422  0.64602147  0.77416991  1  -0.014331  0  -0.057631  -0.081534  0  3.876541  0
C  C104  1  0.59708758  0.93338995  0.22419406  1  0.051218  0  -0.011851  -0.034216  0  3.950336  0
C  C105  1  0.06661006  0.40291153  0.27580668  1  0.051218  0  -0.011827  -0.034148  0  3.950273  0
C  C106  1  0.40291205  0.06661011  0.77580586  1  0.051213  0  -0.011838  -0.034187  0  3.950283  0
C  C107  1  0.93338956  0.59708774  0.72419350  1  0.051226  0  -0.011837  -0.034167  0  3.950239  0
C  C108  1  0.66632171  0.83199254  0.35401997  1  0.005423  0  -0.008375  -0.014889  0  3.941513  0
C  C109  1  0.16800795  0.33367855  0.14598021  1  0.005405  0  -0.008397  -0.014899  0  3.941552  0
C  C110  1  0.33367872  0.16800743  0.64598033  1  0.005417  0  -0.008389  -0.014887  0  3.941513  0
C  C111  1  0.83199248  0.66632063  0.85401973  1  0.00541  0  -0.008394  -0.014895  0  3.941547  0
C  C112  1  0.71876744  0.73165486  0.40896651  1  1.562966  0  0.18795  0.562066  0  4.25987  0
C  C113  1  0.26834500  0.28123190  0.09103355  1  1.563063  0  0.187947  0.562051  0  4.259898  0
C  C114  1  0.28123219  0.26834520  0.59103341  1  1.563066  0  0.187942  0.562076  0  4.259844  0
C  C115  1  0.73165543  0.71876807  0.90896614  1  1.563068  0  0.187952  0.562075  0  4.259857  0
C  C116  1  0.57225195  0.02365965  0.25191950  1  -0.032765  0  -0.064316  -0.126922  0  3.918974  0
C  C117  1  0.97634093  0.42774750  0.24808145  1  -0.03271  0  -0.064338  -0.127  0  3.91897  0
C  C118  1  0.42774847  0.97634032  0.74808080  1  -0.032698  0  -0.064329  -0.126954  0  3.919004  0
C  C119  1  0.02365949  0.57225246  0.75191824  1  -0.032707  0  -0.064273  -0.126903  0  3.918933  0
C  C120  1  0.98781507  0.01218443  0.75000003  1  0.089415  0  0.071382  0.048831  0  3.979541  0
C  C121  1  0.01218455  0.98781563  0.24999989  1  0.089591  0  0.07138  0.048803  0  3.979541  0
C  C122  1  0.43440289  0.69717195  0.29781166  1  0.21835  0  -0.137429  -0.278073  0  3.848416  0
C  C123  1  0.30282903  0.56559831  0.20218745  1  0.218531  0  -0.137417  -0.278012  0  3.848357  0
C  C124  1  0.56559753  0.30282801  0.70218802  1  0.218545  0  -0.137457  -0.278009  0  3.848381  0
C  C125  1  0.69717139  0.43440166  0.79781224  1  0.218367  0  -0.137466  -0.278094  0  3.848395  0
C  C126  1  0.59520586  0.01587264  0.33040703  1  0.166314  0  0.076519  0.062105  0  3.961285  0
C  C127  1  0.98412817  0.40479342  0.16959390  1  0.165813  0  0.076541  0.062128  0  3.961262  0
C  C128  1  0.40479457  0.98412733  0.66959327  1  0.16625  0  0.076506  0.062088  0  3.961287  0
C  C129  1  0.01587146  0.59520663  0.83040602  1  0.165841  0  0.076507  0.062128  0  3.961384  0
C  C130  1  0.56673594  0.61243034  0.18717848  1  1.387158  0  0.191449  0.334091  0  4.067661  0
C  C131  1  0.38756986  0.43326506  0.31282154  1  1.387099  0  0.19149  0.33422  0  4.067636  0
C  C132  1  0.43326449  0.38756963  0.81282182  1  1.387107  0  0.191452  0.334117  0  4.067663  0
C  C133  1  0.61242976  0.56673500  0.68717838  1  1.387143  0  0.191479  0.334157  0  4.067572  0
C  C134  1  0.33176885  0.79020397  0.97351226  1  1.371611  0  0.184525  0.314657  0  4.108245  0
C  C135  1  0.20979628  0.66823158  0.52648680  1  1.371623  0  0.184509  0.314612  0  4.108215  0
C  C136  1  0.66823157  0.20979600  0.02648743  1  1.37169  0  0.18452  0.314629  0  4.108179  0
C  C137  1  0.79020414  0.33176918  0.47351263  1  1.371702  0  0.184502  0.314595  0  4.108286  0
C  C138  1  0.57207572  0.55392364  0.34628822  1  0.291037  0  -0.132814  -0.296213  0  3.894385  0
C  C139  1  0.44607646  0.42792445  0.15371149  1  0.29008  0  -0.132788  -0.29614  0  3.894347  0
C  C140  1  0.42792470  0.44607633  0.65371147  1  0.290009  0  -0.132781  -0.296132  0  3.894332  0
C  C141  1  0.55392396  0.57207472  0.84628846  1  0.289988  0  -0.132748  -0.29608  0  3.894309  0
C  C142  1  0.29039027  0.62852410  0.97106163  1  0.268165  0  -0.132603  -0.273892  0  3.885564  0
C  C143  1  0.37147596  0.70960985  0.52893819  1  0.268155  0  -0.132605  -0.273905  0  3.885572  0
C  C144  1  0.70960936  0.37147675  0.02893803  1  0.268169  0  -0.132618  -0.273926  0  3.885531  0
C  C145  1  0.62852366  0.29039021  0.47106235  1  0.268148  0  -0.13261  -0.27392  0  3.885581  0
C  C146  1  0.16416288  0.79446482  0.95242000  1  0.27628  0  -0.130429  -0.27503  0  3.915231  0
C  C147  1  0.20553510  0.83583721  0.54758052  1  0.276493  0  -0.130419  -0.275055  0  3.915274  0
C  C148  1  0.83583675  0.20553524  0.04758054  1  0.276308  0  -0.130424  -0.275072  0  3.915199  0
C  C149  1  0.79446532  0.16416276  0.45241978  1  0.276179  0  -0.130422  -0.275011  0  3.915206  0
N  N150  1  0.07507292  0.92492658  0.75000013  1  0.357937  0  0.055362  0.511899  0  4.202254  0
N  N151  1  0.92492671  0.07507348  0.24999979  1  0.35795  0  0.055351  0.511921  0  4.20229  0
N  N152  1  0.52727474  0.62232113  0.27248701  1  -1.220158  0  -0.272624  0.047221  0  3.723911  0
N  N153  1  0.37767979  0.47272560  0.22751299  1  -1.220424  0  -0.272652  0.047082  0  3.72398  0
N  N154  1  0.47272488  0.37767893  0.72751291  1  -1.220111  0  -0.272639  0.04714  0  3.723969  0
N  N155  1  0.62232063  0.52727358  0.77248757  1  -1.220378  0  -0.272613  0.047235  0  3.723813  0
N  N156  1  0.57561096  0.11134325  0.35708766  1  0.354251  0  0.061898  0.526458  0  4.187908  0
N  N157  1  0.88865713  0.42438844  0.14291338  1  0.354366  0  0.061954  0.526571  0  4.18782  0
N  N158  1  0.42438946  0.88865672  0.64291264  1  0.354382  0  0.061906  0.526486  0  4.187903  0
N  N159  1  0.11134329  0.57561153  0.85708631  1  0.354366  0  0.061898  0.526511  0  4.18798  0
N  N160  1  0.26382792  0.73916983  0.96825061  1  -1.209373  0  -0.279503  0.033522  0  3.71137  0
N  N161  1  0.26083010  0.73617263  0.53174912  1  -1.209577  0  -0.279499  0.033576  0  3.71137  0
N  N162  1  0.73617171  0.26083023  0.03174931  1  -1.209365  0  -0.279498  0.033557  0  3.711331  0
N  N163  1  0.73916953  0.26382822  0.46825115  1  -1.209351  0  -0.279488  0.033561  0  3.711337  0
O  O164  1  0.62433403  0.13042179  0.89081665  1  -1.203245  0  -0.374013  -0.66763  0  2.338917  0
O  O165  1  0.86957834  0.37566623  0.60918300  1  -1.203241  0  -0.374015  -0.667643  0  2.338925  0
O  O166  1  0.37566639  0.86957897  0.10918339  1  -1.203213  0  -0.37401  -0.667646  0  2.338984  0
O  O167  1  0.13042129  0.62433382  0.39081631  1  -1.203222  0  -0.374011  -0.667657  0  2.338998  0
O  O168  1  0.52808645  0.66409207  0.12179607  1  -1.191554  0  -0.386586  -0.571234  0  2.412786  0
O  O169  1  0.33590810  0.47191424  0.37820346  1  -1.191548  0  -0.386615  -0.571302  0  2.412835  0
O  O170  1  0.47191397  0.33590790  0.87820362  1  -1.191546  0  -0.386592  -0.571249  0  2.412793  0
O  O171  1  0.66409153  0.52808502  0.62179672  1  -1.191549  0  -0.386623  -0.571295  0  2.412823  0
O  O172  1  0.42116303  0.74886752  0.98210630  1  -1.169142  0  -0.346001  -0.524845  0  2.363148  0
O  O173  1  0.25113201  0.57883723  0.51789302  1  -1.169141  0  -0.346019  -0.524865  0  2.36315  0
O  O174  1  0.57883659  0.25113254  0.01789423  1  -1.169147  0  -0.346017  -0.524872  0  2.363108  0
O  O175  1  0.74886761  0.42116282  0.48210690  1  -1.169156  0  -0.345997  -0.524822  0  2.363237  0
O  O176  1  0.67316240  0.95356248  0.91478471  1  -1.189478  0  -0.38826  -0.654378  0  2.343464  0
O  O177  1  0.04643759  0.32683730  0.58521523  1  -1.189469  0  -0.388318  -0.65446  0  2.343477  0
O  O178  1  0.32683802  0.04643828  0.08521533  1  -1.189407  0  -0.38828  -0.65441  0  2.34344  0
O  O179  1  0.95356283  0.67316188  0.41478471  1  -1.189477  0  -0.388282  -0.65442  0  2.343508  0
O  O180  1  0.59031470  0.85462594  0.12027138  1  -1.177368  0  -0.37337  -0.629746  0  2.284378  0
O  O181  1  0.14537469  0.40968531  0.37972885  1  -1.177383  0  -0.37338  -0.629732  0  2.284362  0
O  O182  1  0.40968492  0.14537411  0.87972915  1  -1.177371  0  -0.373374  -0.629743  0  2.28433  0
O  O183  1  0.85462493  0.59031474  0.62027107  1  -1.177383  0  -0.373391  -0.629761  0  2.284357  0
O  O184  1  0.53173087  0.02931857  0.09612029  1  -1.215762  0  -0.398917  -0.70028  0  2.391761  0
O  O185  1  0.97068202  0.46826895  0.40387993  1  -1.215735  0  -0.398897  -0.700247  0  2.391748  0
O  O186  1  0.46826875  0.97068228  0.90387937  1  -1.215775  0  -0.3989  -0.700233  0  2.391716  0
O  O187  1  0.02931761  0.53173111  0.59611999  1  -1.215743  0  -0.398881  -0.700217  0  2.391788  0
O  O188  1  0.72935377  0.72937991  0.48368110  1  -1.162845  0  -0.366647  -0.603738  0  2.172297  0
O  O189  1  0.27061943  0.27064624  0.01631952  1  -1.16294  0  -0.366651  -0.60373  0  2.172311  0
O  O190  1  0.27064585  0.27061936  0.51631969  1  -1.162938  0  -0.36664  -0.603721  0  2.172288  0
O  O191  1  0.72938019  0.72935382  0.98368101  1  -1.16294  0  -0.366649  -0.60375  0  2.172296  0
O  O192  1  0.75182148  0.65184467  0.37865100  1  -1.178821  0  -0.387855  -0.640678  0  2.168347  0
O  O193  1  0.34815567  0.24817817  0.12134940  1  -1.178826  0  -0.387859  -0.640666  0  2.168334  0
O  O194  1  0.24817814  0.34815538  0.62134892  1  -1.178822  0  -0.387853  -0.64069  0  2.168341  0
O  O195  1  0.65184396  0.75182189  0.87865113  1  -1.178818  0  -0.38785  -0.640658  0  2.168324  0
O  O196  1  0.05193039  0.83164680  0.79210296  1  -0.482456  0  -0.130457  -0.346811  0  1.976547  0
O  O197  1  0.16835250  0.94806813  0.70789707  1  -0.482424  0  -0.130432  -0.346803  0  1.976571  0
O  O198  1  0.94806924  0.16835247  0.20789722  1  -0.48244  0  -0.130438  -0.346821  0  1.976593  0
O  O199  1  0.83164713  0.05193114  0.29210311  1  -0.482438  0  -0.130442  -0.34682  0  1.976566  0
O  O200  1  0.57779731  0.09942128  0.43574683  1  -0.465382  0  -0.12145  -0.336884  0  1.971427  0
O  O201  1  0.90057947  0.42220356  0.06425361  1  -0.465434  0  -0.121484  -0.336951  0  1.971451  0
O  O202  1  0.42220311  0.90057790  0.56425373  1  -0.465455  0  -0.121468  -0.336903  0  1.971403  0
O  O203  1  0.09942015  0.57779650  0.93574631  1  -0.465476  0  -0.121501  -0.33698  0  1.971484  0
O  O204  1  0.55940016  0.19967332  0.29872639  1  -0.479634  0  -0.137318  -0.356095  0  1.93376  0
O  O205  1  0.80032663  0.44059762  0.20127533  1  -0.479655  0  -0.137336  -0.35613  0  1.93372  0
O  O206  1  0.44060186  0.80032726  0.70127318  1  -0.479634  0  -0.137302  -0.356085  0  1.933784  0
O  O207  1  0.19967299  0.55940243  0.79872520  1  -0.479646  0  -0.137312  -0.356112  0  1.933801  0
