# generated using pymatgen
data_CdH24C22N4O5F4
_symmetry_space_group_name_H-M   'P 1'
_cell_length_a   8.89892808
_cell_length_b   10.92437621
_cell_length_c   12.49000000
_cell_angle_alpha   96.44248398
_cell_angle_beta   91.33784944
_cell_angle_gamma   97.75899192
_symmetry_Int_Tables_number   1
_chemical_formula_structural   CdH24C22N4O5F4
_chemical_formula_sum   'Cd2 H48 C44 N8 O10 F8'
_cell_volume   1194.59007786
_cell_formula_units_Z   2
loop_
 _symmetry_equiv_pos_site_id
 _symmetry_equiv_pos_as_xyz
  1  'x, y, z'
loop_
 _atom_site_type_symbol
 _atom_site_label
 _atom_site_symmetry_multiplicity
 _atom_site_fract_x
 _atom_site_fract_y
 _atom_site_fract_z
 _atom_site_occupancy
 _atom_site_hle17_bader_spin_density
 _atom_site_hle17_ddec_charge
 _atom_site_hle17_ddec_spin_density
 _atom_site_hle17_ddec_sum_bond_order
 _atom_site_hle17_magmom
 _atom_site_hse06_10hf_bader_spin_density
 _atom_site_hse06_10hf_ddec_charge
 _atom_site_hse06_10hf_ddec_spin_density
 _atom_site_hse06_10hf_ddec_sum_bond_order
 _atom_site_hse06_10hf_magmom
 _atom_site_hse06_bader_spin_density
 _atom_site_hse06_ddec_charge
 _atom_site_hse06_ddec_spin_density
 _atom_site_hse06_ddec_sum_bond_order
 _atom_site_hse06_magmom
 _atom_site_pbe_bader_charge
 _atom_site_pbe_bader_spin_density
 _atom_site_pbe_cm5_charge
 _atom_site_pbe_ddec_charge
 _atom_site_pbe_ddec_spin_density
 _atom_site_pbe_ddec_sum_bond_order
 _atom_site_pbe_magmom
Cd  Cd0  1  0.51752001  0.24697809  0.21343999  1  0  1.147859  0  1.638309  0  0  0.955871  0  2.081311  0  0  1.011396  0  2.031458  0  1.275592  0  0.790073  0.916444  0  2.115225  0
Cd  Cd1  1  0.48247959  0.75302092  0.78656055  1  0  1.147802  0  1.638331  0  0  0.955816  0  2.081341  0  0  1.011343  0  2.031486  0  1.275599  0  0.79006  0.916388  0  2.115254  0
H  H2  1  0.40782630  0.97761631  0.12907563  1  0  0.38742  0  0.91572  0  0  0.359176  0  0.988042  0  0  0.370607  0  0.971643  0  0.680961  0  0.29069  0.35123  0  0.999419  0
H  H3  1  0.59217218  0.02238271  0.87092329  1  0  0.387382  0  0.915722  0  0  0.359133  0  0.988094  0  0  0.370564  0  0.971695  0  0.681018  0  0.290683  0.351186  0  0.999472  0
H  H4  1  0.38414067  0.16910696  0.95300484  1  0  0.113445  0  0.972771  0  0  0.121374  0  1.036226  0  0  0.124206  0  1.03429  0  0.144777  0  0.113982  0.11925  0  1.037922  0
H  H5  1  0.61586262  0.83089391  0.04699434  1  0  0.11345  0  0.972804  0  0  0.121377  0  1.036256  0  0  0.124207  0  1.034321  0  0.145084  0  0.113978  0.119248  0  1.037956  0
H  H6  1  0.22095498  0.32094530  0.84208531  1  0  0.119412  0  0.938047  0  0  0.130172  0  0.996145  0  0  0.133909  0  0.993245  0  0.133432  0  0.123771  0.127559  0  0.998247  0
H  H7  1  0.77904702  0.67905465  0.15791456  1  0  0.119424  0  0.938013  0  0  0.130184  0  0.996105  0  0  0.133921  0  0.993206  0  0.133426  0  0.123781  0.127573  0  0.998207  0
H  H8  1  0.28225086  0.53683800  0.22099259  1  0  0.129941  0  0.963622  0  0  0.140027  0  1.03869  0  0  0.143195  0  1.03603  0  0.085078  0  0.090003  0.13773  0  1.040645  0
H  H9  1  0.71775115  0.46316194  0.77900728  1  0  0.12992  0  0.963616  0  0  0.140006  0  1.038687  0  0  0.143175  0  1.036025  0  0.085052  0  0.089994  0.137711  0  1.04064  0
H  H10  1  0.40987150  0.62936956  0.14540323  1  0  0.129799  0  0.949375  0  0  0.149488  0  1.009324  0  0  0.15131  0  1.009476  0  0.075665  0  0.098497  0.148443  0  1.008841  0
H  H11  1  0.59012938  0.37063038  0.85459662  1  0  0.129821  0  0.9494  0  0  0.149514  0  1.009337  0  0  0.151336  0  1.009487  0  0.075662  0  0.098508  0.148468  0  1.008854  0
H  H12  1  0.47845035  0.52178318  0.22510072  1  0  0.143951  0  0.958102  0  0  0.164717  0  1.016414  0  0  0.167128  0  1.015014  0  0.118286  0  0.101366  0.163158  0  1.017208  0
H  H13  1  0.52155069  0.47821769  0.77489922  1  0  0.143963  0  0.958091  0  0  0.164729  0  1.016404  0  0  0.167139  0  1.015004  0  0.118318  0  0.101373  0.16317  0  1.017198  0
H  H14  1  0.19614948  0.54501607  0.87313232  1  0  0.090393  0  0.94091  0  0  0.102691  0  1.007392  0  0  0.104224  0  1.006272  0  0.091229  0  0.10886  0.101617  0  1.008176  0
H  H15  1  0.80384996  0.45498202  0.12686732  1  0  0.090368  0  0.940952  0  0  0.102669  0  1.007431  0  0  0.104202  0  1.006313  0  0.091276  0  0.108852  0.101596  0  1.008216  0
H  H16  1  0.28819292  0.63727322  0.98692180  1  0  0.077397  0  0.951029  0  0  0.089421  0  1.021083  0  0  0.089921  0  1.021554  0  0.0846  0  0.108529  0.08915  0  1.02006  0
H  H17  1  0.71180668  0.36272579  0.01307793  1  0  0.07743  0  0.951007  0  0  0.089416  0  1.0211  0  0  0.089917  0  1.021569  0  0.084557  0  0.108527  0.089149  0  1.020074  0
H  H18  1  0.07473448  0.57845014  0.10213283  1  0  0.070398  0  0.944366  0  0  0.086948  0  1.008399  0  0  0.087699  0  1.00862  0  0.028539  0  0.087399  0.086329  0  1.008363  0
H  H19  1  0.92526609  0.42154795  0.89786843  1  0  0.070408  0  0.944315  0  0  0.086965  0  1.00835  0  0  0.087714  0  1.008574  0  0.028569  0  0.087403  0.086346  0  1.008317  0
H  H20  1  0.01132162  0.63939029  0.98720839  1  0  0.073491  0  0.937234  0  0  0.093337  0  0.996813  0  0  0.09351  0  0.998133  0  0.034523  0  0.091015  0.093095  0  0.996176  0
H  H21  1  0.98867798  0.36060872  0.01279374  1  0  0.073522  0  0.937301  0  0  0.093363  0  0.996882  0  0  0.093534  0  0.998202  0  0.03449  0  0.09102  0.093123  0  0.996246  0
H  H22  1  0.15938922  0.03527953  0.55395926  1  0  0.06738  0  0.937196  0  0  0.087587  0  0.997064  0  0  0.088119  0  0.997516  0  0.035056  0  0.093202  0.087064  0  0.996879  0
H  H23  1  0.84061038  0.96471949  0.44603887  1  0  0.067363  0  0.937184  0  0  0.087552  0  0.997074  0  0  0.088095  0  0.997509  0  0.034986  0  0.093201  0.087031  0  0.996887  0
H  H24  1  0.98860528  0.03962994  0.62170697  1  0  0.079189  0  0.94305  0  0  0.095152  0  1.007826  0  0  0.096268  0  1.007704  0  0.034123  0  0.094298  0.09436  0  1.007847  0
H  H25  1  0.01139432  0.96036908  0.37829277  1  0  0.079167  0  0.943055  0  0  0.095128  0  1.00783  0  0  0.096241  0  1.007712  0  0.034121  0  0.094295  0.094335  0  1.007852  0
H  H26  1  0.91269920  0.19588566  0.50485139  1  0  0.085226  0  0.92799  0  0  0.100158  0  0.992675  0  0  0.101193  0  0.992114  0  0.092757  0  0.112145  0.099296  0  0.993329  0
H  H27  1  0.08729943  0.80411429  0.49514922  1  0  0.085212  0  0.928023  0  0  0.100145  0  0.99269  0  0  0.101178  0  0.992132  0  0.092824  0  0.11214  0.099283  0  0.993345  0
H  H28  1  0.08077210  0.24957885  0.58549722  1  0  0.071522  0  0.922149  0  0  0.089343  0  0.980457  0  0  0.089472  0  0.980868  0  0.046941  0  0.108895  0.089077  0  0.980464  0
H  H29  1  0.91922750  0.75042016  0.41450332  1  0  0.071561  0  0.922113  0  0  0.089364  0  0.980431  0  0  0.089495  0  0.980839  0  0.046936  0  0.108913  0.0891  0  0.980439  0
H  H30  1  0.15714913  0.22922392  0.16475168  1  0  0.095973  0  0.967499  0  0  0.105382  0  1.030241  0  0  0.106884  0  1.031121  0  0.079717  0  0.109259  0.104206  0  1.029872  0
H  H31  1  0.84285175  0.77077603  0.83524897  1  0  0.095962  0  0.967476  0  0  0.105385  0  1.030203  0  0  0.106887  0  1.031083  0  0.079696  0  0.109261  0.104208  0  1.029836  0
H  H32  1  0.92345475  0.17589535  0.30233586  1  0  0.133091  0  0.965012  0  0  0.138276  0  1.032123  0  0  0.142153  0  1.029376  0  0.198694  0  0.119469  0.135441  0  1.034515  0
H  H33  1  0.07654404  0.82410553  0.69766405  1  0  0.133104  0  0.964988  0  0  0.138273  0  1.032115  0  0  0.14215  0  1.029368  0  0.198699  0  0.119473  0.135439  0  1.034506  0
H  H34  1  0.48823771  0.28094329  0.48228865  1  0  0.145259  0  0.971406  0  0  0.161599  0  1.034246  0  0  0.164182  0  1.033091  0  0.11354  0  0.099941  0.159633  0  1.035332  0
H  H35  1  0.51176093  0.71905666  0.51771196  1  0  0.14528  0  0.971414  0  0  0.161623  0  1.034229  0  0  0.164206  0  1.033075  0  0.113527  0  0.099964  0.159657  0  1.035316  0
H  H36  1  0.35822820  0.19314444  0.55975671  1  0  0.117892  0  0.949515  0  0  0.138817  0  1.00933  0  0  0.140599  0  1.008883  0  0.019602  0  0.09691  0.137421  0  1.00974  0
H  H37  1  0.64177140  0.80685457  0.44024383  1  0  0.117911  0  0.949456  0  0  0.13881  0  1.009286  0  0  0.140593  0  1.008839  0  0.019621  0  0.096904  0.137413  0  1.009697  0
H  H38  1  0.35419368  0.35504909  0.56121555  1  0  0.133735  0  0.93453  0  0  0.151172  0  0.997747  0  0  0.153534  0  0.99666  0  0.073419  0  0.095743  0.149528  0  0.998604  0
H  H39  1  0.64580527  0.64495272  0.43878685  1  0  0.133761  0  0.934508  0  0  0.151163  0  0.997757  0  0  0.153526  0  0.99667  0  0.073465  0  0.095732  0.149519  0  0.998615  0
H  H40  1  0.56761000  0.02378075  0.33418513  1  0  0.041282  0  0.922581  0  0  0.059425  0  0.984523  0  0  0.059596  0  0.983696  0  0.058583  0  0.095507  0.059117  0  0.985244  0
H  H41  1  0.43239073  0.97621826  0.66581303  1  0  0.041268  0  0.922587  0  0  0.05943  0  0.984523  0  0  0.059602  0  0.983696  0  0.058563  0  0.09551  0.059121  0  0.985246  0
H  H42  1  0.53579474  0.88324208  0.24551167  1  0  0.030691  0  0.923525  0  0  0.04788  0  0.985999  0  0  0.047871  0  0.985633  0  0.035288  0  0.091779  0.047717  0  0.986471  0
H  H43  1  0.46420599  0.11675693  0.75448648  1  0  0.030705  0  0.923518  0  0  0.047904  0  0.985992  0  0  0.047894  0  0.985625  0  0.035318  0  0.091789  0.047739  0  0.986466  0
H  H44  1  0.28996611  0.99651831  0.37763142  1  0  0.100251  0  0.973344  0  0  0.121167  0  1.035188  0  0  0.121766  0  1.037116  0  0.030462  0  0.083974  0.120682  0  1.033854  0
H  H45  1  0.71003543  0.00347884  0.62236816  1  0  0.100233  0  0.973372  0  0  0.121145  0  1.035216  0  0  0.121761  0  1.037128  0  0.030446  0  0.08402  0.12066  0  1.033882  0
H  H46  1  0.38151572  0.87123078  0.41478247  1  0  0.104481  0  0.961812  0  0  0.123916  0  1.026779  0  0  0.12515  0  1.027069  0  0.032837  0  0.086563  0.122976  0  1.026623  0
H  H47  1  0.61848726  0.12876823  0.58521652  1  0  0.10452  0  0.961783  0  0  0.123953  0  1.026736  0  0  0.125183  0  1.027035  0  0.032842  0  0.086582  0.123015  0  1.026578  0
H  H48  1  0.26275428  0.85068981  0.29562204  1  0  0.107299  0  0.957441  0  0  0.123789  0  1.022438  0  0  0.125933  0  1.021266  0  0.027701  0  0.082064  0.122135  0  1.023363  0
H  H49  1  0.73724613  0.14930734  0.70437752  1  0  0.107333  0  0.957428  0  0  0.12379  0  1.022456  0  0  0.125946  0  1.021273  0  0.027723  0  0.082054  0.122134  0  1.023382  0
C  C50  1  0.35584194  0.26127482  0.97669721  1  0  -0.020674  0  3.808484  0  0  -0.061022  0  4.092476  0  0  -0.058302  0  4.112383  0  0.391207  0  -0.018995  -0.062993  0  4.079209  0
C  C51  1  0.64416022  0.73872605  0.02330275  1  0  -0.020647  0  3.808541  0  0  -0.060989  0  4.092509  0  0  -0.058267  0  4.112418  0  0.391019  0  -0.018977  -0.062956  0  4.079237  0
C  C52  1  0.27669348  0.33506715  0.92138163  1  0  -0.064967  0  3.704307  0  0  -0.11073  0  3.977021  0  0  -0.109669  0  3.99565  0  0.257564  0  -0.003667  -0.111596  0  3.965004  0
C  C53  1  0.72330740  0.66493279  0.07861822  1  0  -0.065031  0  3.704303  0  0  -0.110785  0  3.977015  0  0  -0.109726  0  3.995647  0  0.257563  0  -0.003692  -0.111651  0  3.964997  0
C  C54  1  0.36007337  0.43813941  0.08018448  1  0  0.379434  0  3.677432  0  0  0.355531  0  3.941451  0  0  0.372053  0  3.956401  0  0.984717  0  0.217436  0.344896  0  3.931706  0
C  C55  1  0.63992735  0.56185960  0.91981608  1  0  0.37947  0  3.677377  0  0  0.35553  0  3.941446  0  0  0.372053  0  3.956395  0  0.984714  0  0.217412  0.344894  0  3.9317  0
C  C56  1  0.38386637  0.53711240  0.17281077  1  0  -0.402299  0  3.708609  0  0  -0.482413  0  3.9481  0  0  -0.48705  0  3.953589  0  -0.09793  0  -0.239397  -0.479283  0  3.944252  0
C  C57  1  0.61613435  0.46288661  0.82718899  1  0  -0.402331  0  3.708643  0  0  -0.482424  0  3.948121  0  0  -0.487068  0  3.953622  0  -0.097938  0  -0.239398  -0.479296  0  3.944271  0
C  C58  1  0.20903930  0.55257929  0.96120109  1  0  -0.002789  0  3.617334  0  0  -0.063716  0  3.874159  0  0  -0.06006  0  3.886059  0  0.296227  0  -0.057918  -0.065959  0  3.865682  0
C  C59  1  0.79096030  0.44741973  0.03879945  1  0  -0.002838  0  3.617445  0  0  -0.063748  0  3.874296  0  0  -0.06009  0  3.886191  0  0.296207  0  -0.057921  -0.065991  0  3.865825  0
C  C60  1  0.05691251  0.55877237  0.01408211  1  0  -0.124595  0  3.681619  0  0  -0.169252  0  3.948451  0  0  -0.170486  0  3.962548  0  -0.021246  0  -0.16826  -0.16826  0  3.938934  0
C  C61  1  0.94308581  0.44122572  0.98591991  1  0  -0.12463  0  3.681708  0  0  -0.169291  0  3.948532  0  0  -0.170522  0  3.962625  0  0.004722  0  -0.168275  -0.168313  0  3.939029  0
C  C62  1  0.03987072  0.04935860  0.54327115  1  0  -0.129776  0  3.683395  0  0  -0.173855  0  3.949907  0  0  -0.175004  0  3.963076  0  -0.009446  0  -0.164223  -0.172856  0  3.940782  0
C  C63  1  0.96012920  0.95064228  0.45672878  1  0  -0.129637  0  3.683451  0  0  -0.173703  0  3.949937  0  0  -0.174855  0  3.963102  0  -0.031766  0  -0.164168  -0.172702  0  3.940814  0
C  C64  1  0.03143380  0.18200192  0.51792834  1  0  0.006565  0  3.628869  0  0  -0.055883  0  3.889124  0  0  -0.051905  0  3.901778  0  0.300629  0  -0.053391  -0.058586  0  3.880733  0
C  C65  1  0.96856643  0.81800081  0.48207017  1  0  0.006508  0  3.628981  0  0  -0.055902  0  3.889185  0  0  -0.051924  0  3.901841  0  0.300446  0  -0.053417  -0.058613  0  3.880807  0
C  C66  1  0.16143146  0.22777285  0.25135545  1  0  -0.001644  0  3.794185  0  0  -0.039113  0  4.072779  0  0  -0.036908  0  4.093649  0  0.418661  0  -0.019802  -0.040393  0  4.058573  0
C  C67  1  0.83856830  0.77222709  0.74864518  1  0  -0.001663  0  3.794212  0  0  -0.039143  0  4.072796  0  0  -0.036938  0  4.093667  0  0.418411  0  -0.019826  -0.040422  0  4.058591  0
C  C68  1  0.04482026  0.19968447  0.31802491  1  0  -0.068884  0  3.688182  0  0  -0.114691  0  3.961158  0  0  -0.113466  0  3.979408  0  0.238876  0  -0.009615  -0.115716  0  3.949421  0
C  C69  1  0.95517966  0.80031640  0.68197501  1  0  -0.068909  0  3.688173  0  0  -0.114697  0  3.961151  0  0  -0.113473  0  3.979403  0  0.239299  0  -0.00963  -0.115721  0  3.949409  0
C  C70  1  0.26387533  0.24520240  0.41433299  1  0  0.363562  0  3.701527  0  0  0.341517  0  3.969683  0  0  0.356886  0  3.985759  0  0.963403  0  0.210068  0.331355  0  3.958317  0
C  C71  1  0.73612443  0.75479755  0.58566764  1  0  0.363585  0  3.701482  0  0  0.341515  0  3.969659  0  0  0.356883  0  3.985738  0  0.963394  0  0.210077  0.331352  0  3.958293  0
C  C72  1  0.37161921  0.26996727  0.50941964  1  0  -0.392594  0  3.704909  0  0  -0.468973  0  3.938365  0  0  -0.473224  0  3.944077  0  -0.044898  0  -0.234438  -0.465951  0  3.934681  0
C  C73  1  0.62838039  0.73003174  0.49058090  1  0  -0.392665  0  3.7049  0  0  -0.468968  0  3.93834  0  0  -0.473222  0  3.944053  0  -0.044941  0  -0.234448  -0.465946  0  3.934658  0
C  C74  1  0.73318120  0.12516754  0.05225306  1  0  0.688755  0  3.913131  0  0  0.63484  0  4.219374  0  0  0.670084  0  4.208708  0  1.659902  0  0.210601  0.610969  0  4.225936  0
C  C75  1  0.26681774  0.87483427  0.94774694  1  0  0.688712  0  3.913  0  0  0.634838  0  4.219146  0  0  0.670086  0  4.208484  0  1.659865  0  0.210572  0.610968  0  4.225708  0
C  C76  1  0.87027978  0.06030764  0.02488485  1  0  -0.210595  0  3.755488  0  0  -0.216708  0  4.027999  0  0  -0.221332  0  4.041115  0  0.121465  0  -0.02739  -0.21378  0  4.019627  0
C  C77  1  0.12971948  0.93969602  0.97511533  1  0  -0.210699  0  3.755504  0  0  -0.216736  0  4.027871  0  0  -0.221377  0  4.041003  0  0.121453  0  -0.027355  -0.213809  0  4.019498  0
C  C78  1  0.92203656  0.97932038  0.09168622  1  0  0.193727  0  3.808617  0  0  0.155531  0  4.117311  0  0  0.16412  0  4.127328  0  0.525962  0  0.090266  0.149255  0  4.1112  0
C  C79  1  0.07796383  0.02068328  0.90831478  1  0  0.19394  0  3.808498  0  0  0.155738  0  4.117137  0  0  0.164334  0  4.127156  0  0.525999  0  0.090323  0.149461  0  4.11103  0
C  C80  1  0.04845471  0.92065728  0.06744667  1  0  0.194099  0  3.797618  0  0  0.154086  0  4.108867  0  0  0.163527  0  4.116774  0  0.47514  0  0.089041  0.147437  0  4.103889  0
C  C81  1  0.95154567  0.07934638  0.93255434  1  0  0.193971  0  3.797551  0  0  0.153967  0  4.108826  0  0  0.1634  0  4.11673  0  0.475101  0  0.088991  0.147317  0  4.103849  0
C  C82  1  0.73646315  0.37599561  0.36451738  1  0  0.668442  0  3.938171  0  0  0.619489  0  4.235156  0  0  0.654071  0  4.226619  0  1.643915  0  0.197549  0.595998  0  4.240516  0
C  C83  1  0.26353451  0.62400526  0.63548170  1  0  0.66847  0  3.938296  0  0  0.619524  0  4.235266  0  0  0.654105  0  4.22673  0  1.643768  0  0.197575  0.596033  0  4.240626  0
C  C84  1  0.87054541  0.44275120  0.43418398  1  0  -0.200811  0  3.754448  0  0  -0.208785  0  4.032215  0  0  -0.213639  0  4.045809  0  0.118759  0  -0.024867  -0.205958  0  4.023954  0
C  C85  1  0.12945435  0.55724875  0.56581665  1  0  -0.200816  0  3.754532  0  0  -0.208809  0  4.032299  0  0  -0.213665  0  4.045896  0  0.11887  0  -0.024887  -0.205989  0  4.024043  0
C  C86  1  0.00023426  0.50036506  0.38962091  1  0  0.196382  0  3.789765  0  0  0.156599  0  4.102055  0  0  0.16653  0  4.109067  0  0.501712  0  0.090797  0.149611  0  4.09789  0
C  C87  1  0.99976565  0.49963581  0.61037982  1  0  0.19642  0  3.789818  0  0  0.156672  0  4.102085  0  0  0.166602  0  4.109098  0  0.501466  0  0.090834  0.149686  0  4.097921  0
C  C88  1  0.87348338  0.44447853  0.54613176  1  0  0.1969  0  3.787253  0  0  0.155805  0  4.09924  0  0  0.165506  0  4.106474  0  0.506485  0  0.091905  0.148959  0  4.094719  0
C  C89  1  0.12651541  0.55552235  0.45386895  1  0  0.196906  0  3.787178  0  0  0.155832  0  4.099159  0  0  0.165535  0  4.106393  0  0.50648  0  0.091931  0.14899  0  4.094637  0
C  C90  1  0.48122997  0.96194758  0.28184382  1  0  0.203784  0  3.653126  0  0  0.147586  0  3.929803  0  0  0.156249  0  3.93663  0  0.426363  0  -0.078707  0.141647  0  3.925179  0
C  C91  1  0.51876963  0.03805144  0.71815511  1  0  0.203765  0  3.653144  0  0  0.147521  0  3.929873  0  0  0.156185  0  3.936704  0  0.426379  0  -0.078735  0.141584  0  3.925247  0
C  C92  1  0.34596595  0.91700636  0.34628323  1  0  -0.341142  0  3.707787  0  0  -0.414416  0  3.953304  0  0  -0.41802  0  3.963187  0  -0.061099  0  -0.257289  -0.41157  0  3.946519  0
C  C93  1  0.65403462  0.08299172  0.65371643  1  0  -0.341201  0  3.707835  0  0  -0.414427  0  3.953351  0  0  -0.418054  0  3.963216  0  -0.061112  0  -0.257343  -0.411582  0  3.946569  0
N  N94  1  0.40763670  0.32631424  0.07496825  1  0  -0.4639  0  3.226352  0  0  -0.386706  0  3.506261  0  0  -0.409745  0  3.522021  0  -1.229561  0  -0.364904  -0.371004  0  3.494716  0
N  N95  1  0.59236531  0.67368570  0.92503161  1  0  -0.463906  0  3.226355  0  0  -0.386702  0  3.506285  0  0  -0.409735  0  3.522028  0  -1.229645  0  -0.36487  -0.371  0  3.494742  0
N  N96  1  0.28089899  0.44626166  0.98710329  1  0  -0.109012  0  3.515176  0  0  -0.015738  0  3.726931  0  0  -0.031402  0  3.753194  0  -1.21907  0  -0.242986  -0.005293  0  3.709788  0
N  N97  1  0.71910189  0.55373828  0.01289736  1  0  -0.108965  0  3.515131  0  0  -0.015682  0  3.726882  0  0  -0.031346  0  3.753145  0  -1.219103  0  -0.242988  -0.005238  0  3.70974  0
N  N98  1  0.29688739  0.25588262  0.31143551  1  0  -0.461422  0  3.190454  0  0  -0.39284  0  3.467632  0  0  -0.415065  0  3.484867  0  -1.202466  0  -0.360553  -0.377337  0  3.455379  0
N  N99  1  0.70311221  0.74411639  0.68856582  1  0  -0.461388  0  3.190393  0  0  -0.392798  0  3.467592  0  0  -0.415022  0  3.484825  0  -1.202652  0  -0.360555  -0.377294  0  3.45534  0
N  N100  1  0.11086317  0.21097582  0.42076249  1  0  -0.13138  0  3.53441  0  0  -0.037642  0  3.750018  0  0  -0.054506  0  3.778392  0  -1.215576  0  -0.248464  -0.0264  0  3.730744  0
N  N101  1  0.88913771  0.78902412  0.57923735  1  0  -0.131431  0  3.534394  0  0  -0.037701  0  3.750014  0  0  -0.054567  0  3.77839  0  -1.215545  0  -0.248479  -0.026457  0  3.730742  0
O  O102  1  0.62573804  0.11357203  0.98281695  1  0  -0.605977  0  1.981284  0  0  -0.558924  0  2.211393  0  0  -0.583739  0  2.201035  0  -1.179726  0  -0.305837  -0.541839  0  2.217869  0
O  O103  1  0.37426156  0.88642699  0.01718359  1  0  -0.605962  0  1.981262  0  0  -0.558931  0  2.211342  0  0  -0.583745  0  2.200983  0  -1.179638  0  -0.305824  -0.541845  0  2.217814  0
O  O104  1  0.74075866  0.18714205  0.14494252  1  0  -0.621139  0  1.994811  0  0  -0.55975  0  2.245655  0  0  -0.589097  0  2.23593  0  -1.14784  0  -0.317404  -0.538979  0  2.251244  0
O  O105  1  0.25923916  0.81285976  0.85505666  1  0  -0.62111  0  1.994624  0  0  -0.559785  0  2.245499  0  0  -0.589134  0  2.235777  0  -1.147799  0  -0.317416  -0.539015  0  2.251086  0
O  O106  1  0.69206106  0.26383093  0.37809349  1  0  -0.619806  0  1.9239  0  0  -0.569477  0  2.15848  0  0  -0.596215  0  2.148714  0  -1.153838  0  -0.318345  -0.5504  0  2.164691  0
O  O107  1  0.30794111  0.73616994  0.62190647  1  0  -0.619835  0  1.923865  0  0  -0.569506  0  2.158445  0  0  -0.596244  0  2.14868  0  -1.153845  0  -0.31838  -0.55043  0  2.164653  0
O  O108  1  0.67928204  0.43628465  0.29652783  1  0  -0.629144  0  1.93837  0  0  -0.577461  0  2.174372  0  0  -0.604394  0  2.163825  0  -1.162951  0  -0.323711  -0.558836  0  2.181086  0
O  O109  1  0.32071691  0.56371716  0.70347137  1  0  -0.629157  0  1.938522  0  0  -0.577472  0  2.174516  0  0  -0.604405  0  2.163969  0  -1.162893  0  -0.323709  -0.558845  0  2.181232  0
O  O110  1  0.43820856  0.03269086  0.19854831  1  0  -0.606122  0  2.146914  0  0  -0.52993  0  2.395778  0  0  -0.552093  0  2.379399  0  -1.195134  0  -0.419735  -0.5145  0  2.406737  0
O  O111  1  0.56178991  0.96730815  0.80145061  1  0  -0.606037  0  2.146911  0  0  -0.529834  0  2.395804  0  0  -0.551997  0  2.37943  0  -1.195176  0  -0.419701  -0.514402  0  2.406762  0
F  F112  1  0.84667111  0.95360115  0.18164661  1  0  -0.172629  0  1.238893  0  0  -0.116246  0  1.403407  0  0  -0.12485  0  1.395115  0  -0.626237  0  -0.07989  -0.109957  0  1.409178  0
F  F113  1  0.15332912  0.04640158  0.81835350  1  0  -0.1727  0  1.238859  0  0  -0.116321  0  1.403371  0  0  -0.124926  0  1.395076  0  -0.626259  0  -0.079916  -0.110033  0  1.409145  0
F  F114  1  0.08980211  0.84091558  0.13510440  1  0  -0.17266  0  1.241089  0  0  -0.118198  0  1.406519  0  0  -0.126077  0  1.396623  0  -0.633836  0  -0.081469  -0.112375  0  1.413094  0
F  F115  1  0.91019843  0.15908902  0.86489750  1  0  -0.172658  0  1.241108  0  0  -0.118179  0  1.406512  0  0  -0.126055  0  1.396622  0  -0.633878  0  -0.081455  -0.112354  0  1.413088  0
F  F116  1  0.00642755  0.50300396  0.28143608  1  0  -0.168218  0  1.250002  0  0  -0.112137  0  1.414761  0  0  -0.12041  0  1.404964  0  -0.635138  0  -0.07746  -0.106237  0  1.421585  0
F  F117  1  0.99357526  0.49699412  0.71856442  1  0  -0.168194  0  1.249951  0  0  -0.112159  0  1.41474  0  0  -0.12043  0  1.404942  0  -0.634846  0  -0.077473  -0.106259  0  1.421564  0
F  F118  1  0.75117746  0.39030908  0.59467690  1  0  -0.166219  0  1.246628  0  0  -0.103259  0  1.403154  0  0  -0.112188  0  1.39402  0  -0.628165  0  -0.07287  -0.096715  0  1.409195  0
F  F119  1  0.24882373  0.60969272  0.40532394  1  0  -0.166242  0  1.246559  0  0  -0.103285  0  1.403077  0  0  -0.112217  0  1.393944  0  -0.628166  0  -0.072903  -0.096742  0  1.409117  0
