# generated using pymatgen
data_CuPH19C23IN
_symmetry_space_group_name_H-M   'P 1'
_cell_length_a   9.10461282
_cell_length_b   9.28194472
_cell_length_c   12.99366962
_cell_angle_alpha   107.87771112
_cell_angle_beta   106.96839925
_cell_angle_gamma   92.65217350
_symmetry_Int_Tables_number   1
_chemical_formula_structural   CuPH19C23IN
_chemical_formula_sum   'Cu2 P2 H38 C46 I2 N2'
_cell_volume   988.36194820
_cell_formula_units_Z   2
loop_
 _symmetry_equiv_pos_site_id
 _symmetry_equiv_pos_as_xyz
  1  'x, y, z'
loop_
 _atom_site_type_symbol
 _atom_site_label
 _atom_site_symmetry_multiplicity
 _atom_site_fract_x
 _atom_site_fract_y
 _atom_site_fract_z
 _atom_site_occupancy
 _atom_site_pbe_bader_spin_density
 _atom_site_pbe_cm5_charge
 _atom_site_pbe_ddec_charge
 _atom_site_pbe_ddec_spin_density
 _atom_site_pbe_ddec_sum_bond_order
 _atom_site_pbe_magmom
Cu  Cu0  1  0.05910103  0.99473919  0.90554788  1  0  0.33397  0.082695  0  2.786595  0
Cu  Cu1  1  0.94089518  0.00526129  0.09445567  1  0  0.334  0.082756  0  2.786498  0
P  P2  1  0.01091026  0.79746239  0.74625316  1  0  -0.039277  0.223906  0  4.227737  0
P  P3  1  0.98909089  0.20254035  0.25375035  1  0  -0.039292  0.223899  0  4.227775  0
H  H4  1  0.05437832  0.29299675  0.86126586  1  0  0.104301  0.076123  0  1.035496  0
H  H5  1  0.94562478  0.70700370  0.13873755  1  0  0.104305  0.076128  0  1.035404  0
H  H6  1  0.24036301  0.51782302  0.89714190  1  0  0.101966  0.108846  0  1.041398  0
H  H7  1  0.75963019  0.48217280  0.10285311  1  0  0.101967  0.108825  0  1.041477  0
H  H8  1  0.60150641  0.29941772  0.06533164  1  0  0.097104  0.107647  0  1.055501  0
H  H9  1  0.39849083  0.70057456  0.93465420  1  0  0.097048  0.107534  0  1.055599  0
H  H10  1  0.39992633  0.08500093  0.02105723  1  0  0.100766  0.077247  0  1.040941  0
H  H11  1  0.60006774  0.91500060  0.97893764  1  0  0.100731  0.077213  0  1.040919  0
H  H12  1  0.30048268  0.96721009  0.78137314  1  0  0.094131  0.088183  0  1.050983  0
H  H13  1  0.69951644  0.03278690  0.21862641  1  0  0.094118  0.088152  0  1.051007  0
H  H14  1  0.54786798  0.89747229  0.75057647  1  0  0.081296  0.084958  0  1.069924  0
H  H15  1  0.45212900  0.10252578  0.24941672  1  0  0.081275  0.084927  0  1.069957  0
H  H16  1  0.58214917  0.62303952  0.68458246  1  0  0.094557  0.093812  0  1.056136  0
H  H17  1  0.41784667  0.37695859  0.31541281  1  0  0.094585  0.093869  0  1.056033  0
H  H18  1  0.36845981  0.41983290  0.65177214  1  0  0.09541  0.091183  0  1.033361  0
H  H19  1  0.63153833  0.58016524  0.34822746  1  0  0.095402  0.091166  0  1.033389  0
H  H20  1  0.11865474  0.48949766  0.67650703  1  0  0.094231  0.091111  0  1.060415  0
H  H21  1  0.88134340  0.51050048  0.32349257  1  0  0.094233  0.091095  0  1.060416  0
H  H22  1  0.94335404  0.66656638  0.90677085  1  0  0.08047  0.083239  0  1.094873  0
H  H23  1  0.05664923  0.33343520  0.09323130  1  0  0.080443  0.083227  0  1.094914  0
H  H24  1  0.79179808  0.42159453  0.88308041  1  0  0.084169  0.086818  0  1.059109  0
H  H25  1  0.20820271  0.57840589  0.11691944  1  0  0.084141  0.086802  0  1.059111  0
H  H26  1  0.65238866  0.23822141  0.68988002  1  0  0.093697  0.090275  0  1.020622  0
H  H27  1  0.34761283  0.76178357  0.31011942  1  0  0.093701  0.090265  0  1.020634  0
H  H28  1  0.66247761  0.30057514  0.51729430  1  0  0.09658  0.093362  0  1.027991  0
H  H29  1  0.33752503  0.69942983  0.48270537  1  0  0.096539  0.093329  0  1.028019  0
H  H30  1  0.81598142  0.54137532  0.54046770  1  0  0.095353  0.094427  0  1.053871  0
H  H31  1  0.18402485  0.45863081  0.45953450  1  0  0.095315  0.094431  0  1.053831  0
H  H32  1  0.74102770  0.93660155  0.67262830  1  0  0.086039  0.085857  0  1.063806  0
H  H33  1  0.25897407  0.06339776  0.32737536  1  0  0.086047  0.08591  0  1.063771  0
H  H34  1  0.60279197  0.97565857  0.48943213  1  0  0.095211  0.087454  0  1.032785  0
H  H35  1  0.39721148  0.02434417  0.51057261  1  0  0.095238  0.087427  0  1.032792  0
H  H36  1  0.70556238  0.89691761  0.32640747  1  0  0.097704  0.094744  0  1.021604  0
H  H37  1  0.29444177  0.10308971  0.67359840  1  0  0.097678  0.094685  0  1.02168  0
H  H38  1  0.95272928  0.78635486  0.34868359  1  0  0.098607  0.093948  0  1.013774  0
H  H39  1  0.04727231  0.21364331  0.65131979  1  0  0.098611  0.093953  0  1.013829  0
H  H40  1  0.08676925  0.74152902  0.52836176  1  0  0.096197  0.093009  0  1.055735  0
H  H41  1  0.91323067  0.25846572  0.47164131  1  0  0.096218  0.093058  0  1.055765  0
C  C42  1  0.17780239  0.29847839  0.90487311  1  0  0.034408  0.080153  0  3.928108  0
C  C43  1  0.82219425  0.70151746  0.09512492  1  0  0.034405  0.080173  0  3.928099  0
C  C44  1  0.28370737  0.42515013  0.92641525  1  0  -0.080926  -0.160143  0  3.928118  0
C  C45  1  0.71628811  0.57484565  0.07357637  1  0  -0.08084  -0.160017  0  3.928379  0
C  C46  1  0.44191249  0.43288897  0.98625905  1  0  0.009529  0.100229  0  3.946858  0
C  C47  1  0.55808564  0.56710907  0.01373129  1  0  0.009358  0.099866  0  3.946998  0
C  C48  1  0.48256919  0.30567750  0.01933261  1  0  -0.082922  -0.158511  0  3.940911  0
C  C49  1  0.51742778  0.69432052  0.98065595  1  0  -0.082776  -0.158199  0  3.940739  0
C  C50  1  0.36984426  0.18298612  0.99402802  1  0  0.034766  0.084507  0  3.93199  0
C  C51  1  0.63015652  0.81701428  0.00597029  1  0  0.034802  0.084504  0  3.932037  0
C  C52  1  0.19169324  0.73326112  0.72878773  1  0  -0.029213  -0.04636  0  3.981105  0
C  C53  1  0.80830720  0.26673703  0.27121310  1  0  -0.029141  -0.046286  0  3.981096  0
C  C54  1  0.31458952  0.84713525  0.75023756  1  0  -0.09067  -0.103795  0  3.984833  0
C  C55  1  0.68541092  0.15286288  0.24976173  1  0  -0.09068  -0.103795  0  3.984912  0
C  C56  1  0.45315593  0.80760743  0.73254949  1  0  -0.097436  -0.083197  0  4.007176  0
C  C57  1  0.54684203  0.19238951  0.26744442  1  0  -0.097418  -0.083139  0  4.007219  0
C  C58  1  0.47310811  0.65375049  0.69701662  1  0  -0.089184  -0.071875  0  3.973299  0
C  C59  1  0.52689118  0.34624763  0.30298167  1  0  -0.089199  -0.071955  0  3.973298  0
C  C60  1  0.35347902  0.54005993  0.67885992  1  0  -0.090217  -0.072761  0  3.986196  0
C  C61  1  0.64652028  0.45993823  0.32114146  1  0  -0.090197  -0.072709  0  3.986243  0
C  C62  1  0.21273104  0.57927903  0.69363361  1  0  -0.092879  -0.112568  0  3.985979  0
C  C63  1  0.78726940  0.42071912  0.30636800  1  0  -0.092939  -0.112609  0  3.985981  0
C  C64  1  0.89168818  0.61984694  0.72545138  1  0  -0.026823  -0.042022  0  3.953441  0
C  C65  1  0.10830873  0.38015808  0.27455021  1  0  -0.026759  -0.041897  0  3.95344  0
C  C66  1  0.88261637  0.58555439  0.82155456  1  0  -0.091523  -0.093446  0  3.956998  0
C  C67  1  0.11738345  0.41444719  0.17844688  1  0  -0.091534  -0.093414  0  3.95714  0
C  C68  1  0.79726291  0.44844828  0.80818977  1  0  -0.096232  -0.078222  0  3.996019  0
C  C69  1  0.20273921  0.55155328  0.19181060  1  0  -0.096267  -0.078346  0  3.996114  0
C  C70  1  0.71882695  0.34488954  0.69911188  1  0  -0.08945  -0.077585  0  3.996621  0
C  C71  1  0.28117534  0.65511314  0.30088723  1  0  -0.089404  -0.077538  0  3.99662  0
C  C72  1  0.72539460  0.37918228  0.60297849  1  0  -0.092081  -0.081857  0  3.993862  0
C  C73  1  0.27460804  0.62082271  0.39702195  1  0  -0.092009  -0.08165  0  3.993856  0
C  C74  1  0.81191594  0.51571455  0.61604151  1  0  -0.088229  -0.099927  0  3.968051  0
C  C75  1  0.18808458  0.48429160  0.38396029  1  0  -0.088254  -0.100145  0  3.9682  0
C  C76  1  0.92087623  0.83233085  0.61182818  1  0  -0.025664  -0.039193  0  3.950233  0
C  C77  1  0.07912642  0.16767419  0.38817689  1  0  -0.02568  -0.039314  0  3.950271  0
C  C78  1  0.78488766  0.90028709  0.60034367  1  0  -0.089669  -0.097065  0  3.974995  0
C  C79  1  0.21511331  0.09971451  0.39966032  1  0  -0.089742  -0.097227  0  3.975032  0
C  C80  1  0.70807190  0.92263236  0.49788683  1  0  -0.093855  -0.083665  0  4.01822  0
C  C81  1  0.29192775  0.07736810  0.50211587  1  0  -0.093914  -0.083561  0  4.01814  0
C  C82  1  0.76637370  0.87951272  0.40630128  1  0  -0.090084  -0.081616  0  4.007411  0
C  C83  1  0.23363222  0.12049116  0.59370421  1  0  -0.090017  -0.081572  0  4.00745  0
C  C84  1  0.90388582  0.81642671  0.41846258  1  0  -0.088155  -0.069746  0  3.998193  0
C  C85  1  0.09611825  0.18357259  0.58154155  1  0  -0.088171  -0.069781  0  3.99816  0
C  C86  1  0.98036563  0.79223768  0.52038766  1  0  -0.087183  -0.097484  0  3.97045  0
C  C87  1  0.01963386  0.20776166  0.47961785  1  0  -0.087123  -0.097363  0  3.970339  0
I  I88  1  0.80588490  0.11584574  0.92489860  1  0  -0.19157  -0.368696  0  1.861157  0
I  I89  1  0.19410999  0.88415359  0.07510366  1  0  -0.191565  -0.368667  0  1.861102  0
N  N90  1  0.21812409  0.17746728  0.93827475  1  0  -0.357218  -0.173997  0  3.624955  0
N  N91  1  0.78187291  0.82253087  0.06172538  1  0  -0.357238  -0.174017  0  3.624976  0
