# generated using pymatgen
data_Zn4C20O13F8
_symmetry_space_group_name_H-M   'P 1'
_cell_length_a   17.25070966
_cell_length_b   17.25052632
_cell_length_c   17.25063062
_cell_angle_alpha   99.26413151
_cell_angle_beta   114.80356442
_cell_angle_gamma   114.80373635
_symmetry_Int_Tables_number   1
_chemical_formula_structural   Zn4C20O13F8
_chemical_formula_sum   'Zn8 C40 O26 F16'
_cell_volume   3860.19016182
_cell_formula_units_Z   2
loop_
 _symmetry_equiv_pos_site_id
 _symmetry_equiv_pos_as_xyz
  1  'x, y, z'
loop_
 _atom_site_type_symbol
 _atom_site_label
 _atom_site_symmetry_multiplicity
 _atom_site_fract_x
 _atom_site_fract_y
 _atom_site_fract_z
 _atom_site_occupancy
 _atom_site_pbe_bader_charge
 _atom_site_pbe_bader_spin_density
 _atom_site_pbe_cm5_charge
 _atom_site_pbe_ddec_charge
 _atom_site_pbe_ddec_spin_density
 _atom_site_pbe_ddec_sum_bond_order
 _atom_site_pbe_magmom
Zn  Zn0  1  0.58890492  0.70179898  0.29070468  1  1.318378  0  0.683055  0.97351  0  2.342982  0
Zn  Zn1  1  0.41109508  0.29820101  0.70929604  1  1.318349  0  0.683067  0.973561  0  2.342981  0
Zn  Zn2  1  0.41109492  0.11289682  0.70179813  1  1.317229  0  0.683083  0.97355  0  2.342912  0
Zn  Zn3  1  0.58890488  0.88710437  0.29820037  1  1.317259  0  0.683061  0.973499  0  2.342967  0
Zn  Zn4  1  0.41109387  0.70179820  0.11289451  1  1.317234  0  0.683049  0.973508  0  2.342943  0
Zn  Zn5  1  0.58890549  0.29820115  0.88710468  1  1.317209  0  0.683068  0.973544  0  2.342949  0
Zn  Zn6  1  0.58890663  0.29070411  0.70180043  1  1.318384  0  0.683089  0.973526  0  2.343  0
Zn  Zn7  1  0.41109379  0.70929560  0.29820041  1  1.318374  0  0.683126  0.973611  0  2.342889  0
C  C8  1  0.49999872  0.52714210  0.02714234  1  -0.323821  0  -0.011573  -0.102177  0  3.906435  0
C  C9  1  0.49999951  0.09189089  0.59189078  1  1.685845  0  0.245224  0.675532  0  4.224066  0
C  C10  1  0.50000367  0.40811244  0.90811091  1  1.68583  0  0.245295  0.67563  0  4.223771  0
C  C11  1  0.49999802  0.59188855  0.09189068  1  1.68581  0  0.245272  0.675612  0  4.22375  0
C  C12  1  0.50000215  0.90810798  0.40811220  1  1.68584  0  0.245236  0.675468  0  4.223795  0
C  C13  1  0.49999854  0.61150950  0.38849395  1  1.607556  0  0.235581  0.643971  0  4.157309  0
C  C14  1  0.50000276  0.38849393  0.61151190  1  1.608358  0  0.235595  0.644004  0  4.157245  0
C  C15  1  0.22301491  0.11150671  0.61150733  1  1.624957  0  0.235526  0.644092  0  4.157336  0
C  C16  1  0.50000253  0.47285705  0.97286052  1  0.123426  0  -0.011412  -0.102028  0  3.906411  0
C  C17  1  0.77698298  0.88849259  0.38849471  1  1.624976  0  0.235578  0.64417  0  4.157174  0
C  C18  1  0.49999980  0.88849151  0.11150943  1  1.637539  0  0.235647  0.644163  0  4.15718  0
C  C19  1  0.50000042  0.11150941  0.88849094  1  1.637544  0  0.23557  0.644009  0  4.157266  0
C  C20  1  0.77698381  0.38849213  0.88848946  1  1.624684  0  0.23555  0.644042  0  4.157338  0
C  C21  1  0.22301658  0.61150545  0.11150989  1  1.624704  0  0.235555  0.644031  0  4.157421  0
C  C22  1  0.50000121  0.02714056  0.52714632  1  0.122816  0  -0.011512  -0.102173  0  3.906491  0
C  C23  1  0.94692151  0.90681534  0.44048858  1  0.547911  0  0.100961  0.168588  0  4.06988  0
C  C24  1  0.05307849  0.09318468  0.55951620  1  0.547695  0  0.100926  0.168511  0  4.06987  0
C  C25  1  0.46633043  0.95989757  0.90681533  1  0.584313  0  0.101044  0.168761  0  4.069774  0
C  C26  1  0.53366979  0.04010333  0.09318330  1  0.4472  0  0.100956  0.168559  0  4.069997  0
C  C27  1  0.05307630  0.49355707  0.95989695  1  0.509339  0  0.10088  0.168465  0  4.070064  0
C  C28  1  0.94692054  0.50644185  0.04010111  1  0.509163  0  0.100937  0.168682  0  4.069965  0
C  C29  1  0.53366709  0.44048575  0.49356596  1  0.622546  0  0.100993  0.168669  0  4.069846  0
C  C30  1  0.50000422  0.97285790  0.47286052  1  -0.323154  0  -0.011419  -0.10197  0  3.90637  0
C  C31  1  0.46633423  0.55951980  0.50643849  1  0.622927  0  0.100919  0.168661  0  4.069917  0
C  C32  1  0.53367086  0.09318406  0.04010274  1  0.584289  0  0.100995  0.168678  0  4.06993  0
C  C33  1  0.46632914  0.90681591  0.95989450  1  0.447365  0  0.100901  0.168496  0  4.069939  0
C  C34  1  0.94691783  0.04010274  0.50643456  1  0.573011  0  0.100992  0.168702  0  4.069776  0
C  C35  1  0.05308070  0.95989721  0.49356900  1  0.57277  0  0.10095  0.1686  0  4.069859  0
C  C36  1  0.46633400  0.50643850  0.55951757  1  0.485844  0  0.100771  0.168401  0  4.070072  0
C  C37  1  0.53366647  0.49356548  0.44048570  1  0.486803  0  0.10098  0.168615  0  4.069988  0
C  C38  1  0.05308016  0.55952344  0.09318282  1  0.611771  0  0.10085  0.168497  0  4.070069  0
C  C39  1  0.94691707  0.44047307  0.90681560  1  0.611959  0  0.100973  0.16871  0  4.069792  0
C  C40  1  0.10884701  0.05442661  0.55442654  1  0.080952  0  -0.021598  -0.207039  0  3.976458  0
C  C41  1  0.89115193  0.94557305  0.44557774  1  0.080911  0  -0.02168  -0.207141  0  3.976378  0
C  C42  1  0.49999945  0.94557503  0.05442272  1  0.18417  0  -0.021643  -0.20709  0  3.976486  0
C  C43  1  0.50000182  0.05442622  0.94557583  1  0.184368  0  -0.021649  -0.20712  0  3.976467  0
C  C44  1  0.89115259  0.44557594  0.94557525  1  0.080615  0  -0.021627  -0.20708  0  3.976359  0
C  C45  1  0.10884591  0.55442185  0.05442391  1  0.080694  0  -0.021611  -0.20703  0  3.976435  0
C  C46  1  0.50000141  0.55442639  0.44557947  1  0.114392  0  -0.021617  -0.207086  0  3.976492  0
C  C47  1  0.50000139  0.44557924  0.55442678  1  0.114414  0  -0.021614  -0.207072  0  3.97633  0
O  O48  1  0.49999936  0.74999929  0.25000072  1  -1.223443  0  -0.570678  -1.04472  0  2.519013  0
O  O49  1  0.56170856  0.17841937  0.61671072  1  -1.133485  0  -0.298585  -0.52486  0  2.274583  0
O  O50  1  0.43829345  0.38328976  0.82158349  1  -1.133437  0  -0.298668  -0.525003  0  2.274419  0
O  O51  1  0.56170696  0.61670995  0.17841852  1  -1.133474  0  -0.298629  -0.524925  0  2.274536  0
O  O52  1  0.56170900  0.94499783  0.38329255  1  -1.132642  0  -0.298626  -0.524933  0  2.274454  0
O  O53  1  0.43829203  0.05500041  0.61671006  1  -1.132705  0  -0.29859  -0.524875  0  2.274552  0
O  O54  1  0.56171017  0.38329216  0.94500090  1  -1.132716  0  -0.298622  -0.524918  0  2.274534  0
O  O55  1  0.43829130  0.61670791  0.05500103  1  -1.132683  0  -0.298605  -0.524921  0  2.274506  0
O  O56  1  0.43829058  0.82157906  0.38328939  1  -1.133538  0  -0.29865  -0.524891  0  2.274492  0
O  O57  1  0.50000022  0.25000098  0.74999929  1  -1.22344  0  -0.570709  -1.044778  0  2.519118  0
O  O58  1  0.42994549  0.62792260  0.36190347  1  -1.14536  0  -0.305843  -0.530007  0  2.334485  0
O  O59  1  0.57005645  0.37208146  0.63810101  1  -1.145628  0  -0.305844  -0.529972  0  2.334397  0
O  O60  1  0.26601994  0.19798015  0.62792433  1  -1.141154  0  -0.305847  -0.530075  0  2.334325  0
O  O61  1  0.73398048  0.80201957  0.37207884  1  -1.141201  0  -0.305908  -0.530138  0  2.334338  0
O  O62  1  0.57005059  0.93195420  0.19797525  1  -1.159474  0  -0.305864  -0.530024  0  2.334422  0
O  O63  1  0.42994749  0.06804388  0.80202494  1  -1.159462  0  -0.305868  -0.53002  0  2.334382  0
O  O64  1  0.73398129  0.36190630  0.93195743  1  -1.142969  0  -0.305867  -0.530038  0  2.334319  0
O  O65  1  0.26601890  0.63809248  0.06804202  1  -1.142982  0  -0.305856  -0.530001  0  2.334355  0
O  O66  1  0.73398044  0.37207413  0.80202164  1  -1.141225  0  -0.30587  -0.530032  0  2.334565  0
O  O67  1  0.26601869  0.62792430  0.19797789  1  -1.141213  0  -0.305837  -0.530006  0  2.334543  0
O  O68  1  0.42994177  0.80201927  0.06803993  1  -1.159531  0  -0.305867  -0.530104  0  2.334359  0
O  O69  1  0.57005698  0.19798157  0.93195981  1  -1.159562  0  -0.305832  -0.530023  0  2.334374  0
O  O70  1  0.26601923  0.06804549  0.63809525  1  -1.143268  0  -0.305892  -0.530066  0  2.334442  0
O  O71  1  0.73397761  0.93195343  0.36190339  1  -1.143292  0  -0.305842  -0.530028  0  2.334446  0
O  O72  1  0.57005537  0.63809754  0.37208013  1  -1.14524  0  -0.305865  -0.529977  0  2.33421  0
O  O73  1  0.42994632  0.36190349  0.62792668  1  -1.145755  0  -0.305846  -0.530006  0  2.334361  0
F  F74  1  0.89972092  0.81761987  0.38180481  1  -0.605956  0  -0.081392  -0.094133  0  1.377451  0
F  F75  1  0.43581536  0.81761929  0.91789602  1  -0.603079  0  -0.081387  -0.094118  0  1.377462  0
F  F76  1  0.89972113  0.08210140  0.51791912  1  -0.607829  0  -0.081405  -0.094161  0  1.37746  0
F  F77  1  0.10027718  0.91789761  0.48208247  1  -0.60776  0  -0.081385  -0.094135  0  1.377467  0
F  F78  1  0.43582328  0.51792387  0.61820170  1  -0.60602  0  -0.081303  -0.094059  0  1.377539  0
F  F79  1  0.56417591  0.48207883  0.38180025  1  -0.606175  0  -0.081405  -0.094163  0  1.37754  0
F  F80  1  0.10028125  0.61821229  0.18237765  1  -0.605951  0  -0.081362  -0.094125  0  1.37749  0
F  F81  1  0.89971853  0.38178678  0.81762225  1  -0.605933  0  -0.081392  -0.094175  0  1.377489  0
F  F82  1  0.10027783  0.18238099  0.61819783  1  -0.605903  0  -0.081411  -0.094119  0  1.377492  0
F  F83  1  0.43581771  0.91789784  0.81762064  1  -0.603072  0  -0.081408  -0.094169  0  1.377431  0
F  F84  1  0.56418439  0.08210285  0.18237933  1  -0.603037  0  -0.081395  -0.094133  0  1.377485  0
F  F85  1  0.10027711  0.48206618  0.91790521  1  -0.6079  0  -0.081388  -0.094128  0  1.377618  0
F  F86  1  0.89971950  0.51793183  0.08209435  1  -0.607956  0  -0.081409  -0.094201  0  1.377498  0
F  F87  1  0.56417650  0.38180042  0.48207863  1  -0.6062  0  -0.081413  -0.094179  0  1.377488  0
F  F88  1  0.43582311  0.61820201  0.51792577  1  -0.606044  0  -0.081335  -0.094125  0  1.377515  0
F  F89  1  0.56418610  0.18238076  0.08210242  1  -0.603057  0  -0.081398  -0.094158  0  1.377454  0
