# generated using pymatgen
data_HgH3C5BrN6
_symmetry_space_group_name_H-M   'P 1'
_cell_length_a   6.51796037
_cell_length_b   11.63098800
_cell_length_c   23.85500000
_cell_angle_alpha   90.00000000
_cell_angle_beta   90.00000000
_cell_angle_gamma   90.00000000
_symmetry_Int_Tables_number   1
_chemical_formula_structural   HgH3C5BrN6
_chemical_formula_sum   'Hg8 H24 C40 Br8 N48'
_cell_volume   1808.45515510
_cell_formula_units_Z   8
loop_
 _symmetry_equiv_pos_site_id
 _symmetry_equiv_pos_as_xyz
  1  'x, y, z'
loop_
 _atom_site_type_symbol
 _atom_site_label
 _atom_site_symmetry_multiplicity
 _atom_site_fract_x
 _atom_site_fract_y
 _atom_site_fract_z
 _atom_site_occupancy
 _atom_site_hle17_bader_spin_density
 _atom_site_hle17_ddec_charge
 _atom_site_hle17_ddec_spin_density
 _atom_site_hle17_ddec_sum_bond_order
 _atom_site_hle17_magmom
 _atom_site_hse06_10hf_bader_spin_density
 _atom_site_hse06_10hf_ddec_charge
 _atom_site_hse06_10hf_ddec_spin_density
 _atom_site_hse06_10hf_ddec_sum_bond_order
 _atom_site_hse06_10hf_magmom
 _atom_site_hse06_bader_spin_density
 _atom_site_hse06_ddec_charge
 _atom_site_hse06_ddec_spin_density
 _atom_site_hse06_ddec_sum_bond_order
 _atom_site_hse06_magmom
 _atom_site_pbe_bader_charge
 _atom_site_pbe_bader_spin_density
 _atom_site_pbe_cm5_charge
 _atom_site_pbe_ddec_charge
 _atom_site_pbe_ddec_spin_density
 _atom_site_pbe_ddec_sum_bond_order
 _atom_site_pbe_magmom
Hg  Hg0  1  0.67842542  0.21415120  0.61483672  1  0  0.735014  0  1.98993  0  0  0.549641  0  2.469769  0  0  0.603777  0  2.434619  0  0.836151  0  0.571811  0.512274  0  2.493527  0
Hg  Hg1  1  0.17841624  0.28585018  0.38516244  1  0  0.735006  0  1.989961  0  0  0.549654  0  2.469797  0  0  0.603794  0  2.434645  0  0.836193  0  0.571805  0.51229  0  2.493555  0
Hg  Hg2  1  0.32157452  0.71414913  0.88516286  1  0  0.735008  0  1.989964  0  0  0.549641  0  2.469802  0  0  0.60378  0  2.434648  0  0.836146  0  0.571808  0.512275  0  2.493559  0
Hg  Hg3  1  0.82158217  0.78584984  0.11483840  1  0  0.735021  0  1.989881  0  0  0.549672  0  2.469711  0  0  0.60381  0  2.43456  0  0.836182  0  0.571816  0.512305  0  2.493471  0
Hg  Hg4  1  0.32157759  0.78585069  0.38516286  1  0  0.73502  0  1.989941  0  0  0.549653  0  2.46978  0  0  0.603792  0  2.434627  0  0.83615  0  0.571821  0.512288  0  2.493537  0
Hg  Hg5  1  0.82158523  0.71415085  0.61483672  1  0  0.735027  0  1.989938  0  0  0.549658  0  2.46978  0  0  0.603795  0  2.434629  0  0.836297  0  0.571811  0.512291  0  2.49354  0
Hg  Hg6  1  0.67841928  0.28584932  0.11483840  1  0  0.735007  0  1.989947  0  0  0.549637  0  2.469782  0  0  0.603773  0  2.434632  0  0.836142  0  0.571805  0.512272  0  2.493539  0
Hg  Hg7  1  0.17841624  0.21414690  0.88516370  1  0  0.735027  0  1.98997  0  0  0.549652  0  2.469808  0  0  0.603791  0  2.434654  0  0.83626  0  0.571828  0.512287  0  2.493566  0
H  H8  1  0.05319149  0.91840779  0.54718088  1  0  0.105279  0  0.972627  0  0  0.101535  0  1.053649  0  0  0.105638  0  1.049734  0  0.17806  0  0.118654  0.098568  0  1.056581  0
H  H9  1  0.55318992  0.58159376  0.45281786  1  0  0.105333  0  0.972602  0  0  0.10154  0  1.053687  0  0  0.105647  0  1.049766  0  0.177984  0  0.118664  0.098573  0  1.05662  0
H  H10  1  0.94680846  0.41840985  0.95281744  1  0  0.105295  0  0.972654  0  0  0.101532  0  1.053711  0  0  0.105635  0  1.049795  0  0.177651  0  0.118673  0.098565  0  1.056644  0
H  H11  1  0.44681616  0.08159152  0.04718382  1  0  0.105271  0  0.972655  0  0  0.101555  0  1.053639  0  0  0.105658  0  1.04972  0  0.177667  0  0.118652  0.098587  0  1.056571  0
H  H12  1  0.94680999  0.08159324  0.45281618  1  0  0.105301  0  0.972655  0  0  0.101579  0  1.05365  0  0  0.105682  0  1.049734  0  0.17751  0  0.118679  0.098612  0  1.056583  0
H  H13  1  0.44682076  0.41840900  0.54718256  1  0  0.105251  0  0.972667  0  0  0.10151  0  1.053693  0  0  0.105611  0  1.049775  0  0.178159  0  0.118646  0.098543  0  1.056625  0
H  H14  1  0.05319302  0.58158946  0.04718130  1  0  0.105264  0  0.972656  0  0  0.101531  0  1.05367  0  0  0.105634  0  1.049758  0  0.177626  0  0.118652  0.098565  0  1.056602  0
H  H15  1  0.55317612  0.91840865  0.95281744  1  0  0.105293  0  0.972633  0  0  0.101506  0  1.053687  0  0  0.105613  0  1.049767  0  0.178138  0  0.118639  0.098539  0  1.056619  0
H  H16  1  0.13390845  0.84169548  0.71642381  1  0  0.084672  0  0.971698  0  0  0.089157  0  1.043781  0  0  0.092532  0  1.040882  0  0.123708  0  0.100737  0.086743  0  1.045952  0
H  H17  1  0.63390076  0.65830263  0.28357577  1  0  0.084617  0  0.971838  0  0  0.089075  0  1.043936  0  0  0.09245  0  1.041037  0  0.123755  0  0.100705  0.086676  0  1.046091  0
H  H18  1  0.86609456  0.34169496  0.78357619  1  0  0.084616  0  0.971783  0  0  0.089078  0  1.043877  0  0  0.092453  0  1.040978  0  0.123698  0  0.100696  0.086664  0  1.046046  0
H  H19  1  0.36608845  0.15830555  0.21642507  1  0  0.084612  0  0.971714  0  0  0.089069  0  1.043819  0  0  0.092445  0  1.04092  0  0.123668  0  0.100698  0.086678  0  1.045968  0
H  H20  1  0.86608689  0.15830555  0.28357409  1  0  0.084648  0  0.971688  0  0  0.089129  0  1.043774  0  0  0.092506  0  1.040868  0  0.123656  0  0.100706  0.086721  0  1.045939  0
H  H21  1  0.36609765  0.34169410  0.71642381  1  0  0.08459  0  0.971845  0  0  0.089046  0  1.043945  0  0  0.09242  0  1.041047  0  0.123682  0  0.100678  0.086626  0  1.046119  0
H  H22  1  0.13390845  0.65830693  0.21642255  1  0  0.084648  0  0.971752  0  0  0.089123  0  1.043834  0  0  0.092499  0  1.040933  0  0.123726  0  0.100718  0.08671  0  1.046003  0
H  H23  1  0.63390076  0.84169204  0.78357619  1  0  0.084635  0  0.971738  0  0  0.089046  0  1.043883  0  0  0.092419  0  1.040984  0  0.123664  0  0.100705  0.086647  0  1.046036  0
H  H24  1  0.40656890  0.99592915  0.72302746  1  0  0.085293  0  0.946585  0  0  0.092276  0  1.011503  0  0  0.095034  0  1.009929  0  0.117303  0  0.107822  0.09028  0  1.012819  0
H  H25  1  0.90656274  0.50407154  0.27697254  1  0  0.08536  0  0.94656  0  0  0.092305  0  1.011522  0  0  0.095061  0  1.009948  0  0.11733  0  0.10784  0.090308  0  1.012837  0
H  H26  1  0.59343104  0.49592692  0.77697212  1  0  0.085352  0  0.946562  0  0  0.0923  0  1.011515  0  0  0.095056  0  1.009942  0  0.11731  0  0.107832  0.090302  0  1.012832  0
H  H27  1  0.09343107  0.00406930  0.22302830  1  0  0.085357  0  0.946464  0  0  0.092312  0  1.01142  0  0  0.09507  0  1.009843  0  0.117281  0  0.107827  0.090317  0  1.012733  0
H  H28  1  0.59342490  0.00407274  0.27697128  1  0  0.085431  0  0.946387  0  0  0.092307  0  1.011416  0  0  0.095064  0  1.00984  0  0.117263  0  0.107822  0.090302  0  1.01274  0
H  H29  1  0.09343414  0.49592692  0.72302704  1  0  0.085354  0  0.946529  0  0  0.092323  0  1.011457  0  0  0.09508  0  1.009883  0  0.117338  0  0.107849  0.090326  0  1.012773  0
H  H30  1  0.40656737  0.50407240  0.22302788  1  0  0.08531  0  0.946574  0  0  0.092289  0  1.011508  0  0  0.095047  0  1.009933  0  0.11731  0  0.107827  0.090292  0  1.012825  0
H  H31  1  0.90656274  0.99592657  0.77697338  1  0  0.085328  0  0.946556  0  0  0.092317  0  1.011467  0  0  0.095074  0  1.009894  0  0.116902  0  0.107852  0.090319  0  1.012784  0
C  C32  1  0.34713467  0.08455945  0.54118005  1  0  0.232185  0  3.8098  0  0  0.201406  0  4.082618  0  0  0.211579  0  4.100103  0  1.009074  0  0.215256  0.194758  0  4.070774  0
C  C33  1  0.84713310  0.41544278  0.45881995  1  0  0.232158  0  3.809856  0  0  0.201377  0  4.082686  0  0  0.21155  0  4.100173  0  1.009058  0  0.215222  0.194729  0  4.070841  0
C  C34  1  0.65286374  0.58455911  0.95881995  1  0  0.232159  0  3.809769  0  0  0.201363  0  4.082604  0  0  0.211538  0  4.100087  0  1.009119  0  0.215233  0.194715  0  4.070759  0
C  C35  1  0.15286224  0.91544244  0.04118047  1  0  0.23222  0  3.809839  0  0  0.201426  0  4.082691  0  0  0.211603  0  4.10017  0  1.009031  0  0.215255  0.194777  0  4.070847  0
C  C36  1  0.65286374  0.91544244  0.45881912  1  0  0.232188  0  3.809802  0  0  0.201401  0  4.082645  0  0  0.211575  0  4.100133  0  1.00903  0  0.21531  0.194754  0  4.070799  0
C  C37  1  0.15287144  0.58455997  0.54117963  1  0  0.23216  0  3.809954  0  0  0.201491  0  4.082599  0  0  0.211668  0  4.100075  0  1.009091  0  0.215274  0.194843  0  4.070754  0
C  C38  1  0.34713467  0.41543934  0.04118005  1  0  0.23218  0  3.809882  0  0  0.201438  0  4.082643  0  0  0.211616  0  4.100122  0  1.009098  0  0.215279  0.19479  0  4.070799  0
C  C39  1  0.84712850  0.08455773  0.95882037  1  0  0.232368  0  3.809631  0  0  0.201527  0  4.082511  0  0  0.211702  0  4.099989  0  1.009683  0  0.215287  0.194879  0  4.070666  0
C  C40  1  0.28693792  0.01823749  0.59030811  1  0  0.133829  0  3.775403  0  0  0.135808  0  4.021543  0  0  0.137842  0  4.040421  0  0.557247  0  0.130444  0.134062  0  4.009037  0
C  C41  1  0.78693789  0.48176303  0.40969063  1  0  0.133827  0  3.775346  0  0  0.1358  0  4.021488  0  0  0.137836  0  4.040363  0  0.557314  0  0.130442  0.134054  0  4.008982  0
C  C42  1  0.71305742  0.51823628  0.90969063  1  0  0.13392  0  3.775329  0  0  0.13589  0  4.021484  0  0  0.137923  0  4.040363  0  0.557271  0  0.130484  0.134144  0  4.008977  0
C  C43  1  0.21306358  0.98176354  0.09030937  1  0  0.133882  0  3.775358  0  0  0.135852  0  4.021501  0  0  0.137887  0  4.040378  0  0.557334  0  0.130444  0.134106  0  4.008992  0
C  C44  1  0.71306202  0.98176268  0.40968979  1  0  0.133919  0  3.775359  0  0  0.135874  0  4.021514  0  0  0.13791  0  4.04039  0  0.55718  0  0.130472  0.134128  0  4.009009  0
C  C45  1  0.21306819  0.51823714  0.59030811  1  0  0.133848  0  3.775504  0  0  0.135826  0  4.021555  0  0  0.137862  0  4.040429  0  0.557135  0  0.130458  0.13408  0  4.009048  0
C  C46  1  0.28694099  0.48176303  0.09030811  1  0  0.133909  0  3.77543  0  0  0.135877  0  4.021533  0  0  0.13791  0  4.040414  0  0.557244  0  0.130478  0.134131  0  4.009026  0
C  C47  1  0.78692715  0.01823577  0.90969189  1  0  0.133744  0  3.77557  0  0  0.135758  0  4.021595  0  0  0.137798  0  4.040467  0  0.557183  0  0.13044  0.134011  0  4.00909  0
C  C48  1  0.13355252  0.93418031  0.58650052  1  0  0.07537  0  3.614152  0  0  0.037672  0  3.867101  0  0  0.041449  0  3.882955  0  0.532886  0  0.059439  0.03508  0  3.856604  0
C  C49  1  0.63355095  0.56582124  0.41350031  1  0  0.075318  0  3.613989  0  0  0.037636  0  3.866933  0  0  0.041407  0  3.882793  0  0.532951  0  0.059443  0.035045  0  3.856437  0
C  C50  1  0.86644743  0.43418066  0.91350031  1  0  0.07535  0  3.614121  0  0  0.037654  0  3.867063  0  0  0.041433  0  3.882916  0  0.533294  0  0.059451  0.035062  0  3.856568  0
C  C51  1  0.36645206  0.06581900  0.08650136  1  0  0.075361  0  3.614111  0  0  0.037655  0  3.867037  0  0  0.04143  0  3.882896  0  0.533301  0  0.059467  0.035065  0  3.856539  0
C  C52  1  0.86644589  0.06581986  0.41349780  1  0  0.075356  0  3.614187  0  0  0.03766  0  3.867116  0  0  0.04144  0  3.882964  0  0.533583  0  0.059451  0.035068  0  3.85662  0
C  C53  1  0.36645820  0.43418152  0.58650010  1  0  0.075442  0  3.613975  0  0  0.037708  0  3.866923  0  0  0.041481  0  3.88279  0  0.532801  0  0.059482  0.035117  0  3.856425  0
C  C54  1  0.13355558  0.56581694  0.08649969  1  0  0.075329  0  3.614084  0  0  0.037625  0  3.86704  0  0  0.041403  0  3.882891  0  0.533269  0  0.059443  0.035034  0  3.856543  0
C  C55  1  0.63353868  0.93418031  0.91350031  1  0  0.075372  0  3.614112  0  0  0.037781  0  3.866899  0  0  0.041534  0  3.882792  0  0.532774  0  0.059486  0.035191  0  3.856402  0
C  C56  1  0.17665956  0.89343399  0.68008552  1  0  0.075299  0  3.681196  0  0  0.045308  0  3.936098  0  0  0.049305  0  3.952664  0  0.500031  0  0.045897  0.042587  0  3.925004  0
C  C57  1  0.67665186  0.60656756  0.31991532  1  0  0.075333  0  3.681402  0  0  0.045389  0  3.936256  0  0  0.049384  0  3.952823  0  0.5  0  0.045979  0.042656  0  3.925157  0
C  C58  1  0.82334499  0.39343175  0.81991490  1  0  0.075317  0  3.681253  0  0  0.045362  0  3.936104  0  0  0.049358  0  3.952672  0  0.500018  0  0.045972  0.042643  0  3.925009  0
C  C59  1  0.32334502  0.10656618  0.18008636  1  0  0.075326  0  3.681306  0  0  0.045377  0  3.936188  0  0  0.049373  0  3.952755  0  0.500018  0  0.045951  0.042636  0  3.925089  0
C  C60  1  0.82333885  0.10656790  0.31991239  1  0  0.075272  0  3.681318  0  0  0.045292  0  3.936174  0  0  0.04929  0  3.952742  0  0.499966  0  0.045909  0.042567  0  3.925074  0
C  C61  1  0.32334808  0.39343089  0.68008510  1  0  0.07534  0  3.681324  0  0  0.045384  0  3.936185  0  0  0.049381  0  3.95275  0  0.500042  0  0.045975  0.042667  0  3.925096  0
C  C62  1  0.17665342  0.60656584  0.18008468  1  0  0.075318  0  3.681249  0  0  0.045367  0  3.936134  0  0  0.049365  0  3.952698  0  0.500054  0  0.045955  0.042646  0  3.925041  0
C  C63  1  0.67665032  0.89343055  0.81991490  1  0  0.075259  0  3.681294  0  0  0.045354  0  3.936198  0  0  0.049354  0  3.95276  0  0.500031  0  0.04594  0.042622  0  3.9251  0
C  C64  1  0.32889737  0.97778882  0.68346426  1  0  0.08982  0  3.712528  0  0  0.063817  0  3.973615  0  0  0.065938  0  3.989852  0  0.525443  0  0.05013  0.062218  0  3.962807  0
C  C65  1  0.82889120  0.52221359  0.31653490  1  0  0.08969  0  3.712404  0  0  0.063691  0  3.973497  0  0  0.065813  0  3.98973  0  0.525442  0  0.050003  0.062092  0  3.962694  0
C  C66  1  0.67110411  0.47778658  0.81653490  1  0  0.089711  0  3.71242  0  0  0.063737  0  3.973476  0  0  0.065858  0  3.989712  0  0.525457  0  0.050035  0.06214  0  3.962669  0
C  C67  1  0.17110567  0.02221049  0.18346510  1  0  0.089752  0  3.712422  0  0  0.063751  0  3.973515  0  0  0.065873  0  3.989749  0  0.525474  0  0.050065  0.062149  0  3.962714  0
C  C68  1  0.67109951  0.02221393  0.31653448  1  0  0.089701  0  3.712473  0  0  0.063801  0  3.973523  0  0  0.065922  0  3.989756  0  0.525456  0  0.050107  0.062208  0  3.962719  0
C  C69  1  0.17111181  0.47778658  0.68346468  1  0  0.089757  0  3.712438  0  0  0.063731  0  3.973543  0  0  0.065853  0  3.989777  0  0.52548  0  0.050033  0.062133  0  3.962735  0
C  C70  1  0.32889737  0.52221187  0.18346384  1  0  0.089825  0  3.712538  0  0  0.063805  0  3.973605  0  0  0.065927  0  3.98984  0  0.525484  0  0.050134  0.062207  0  3.962796  0
C  C71  1  0.82888660  0.97778538  0.81653574  1  0  0.089784  0  3.712488  0  0  0.063741  0  3.97358  0  0  0.065864  0  3.989813  0  0.525924  0  0.050023  0.062143  0  3.962778  0
Br  Br72  1  0.91050109  0.18924532  0.69605114  1  0  -0.389685  0  1.056537  0  0  -0.333569  0  1.359539  0  0  -0.355534  0  1.341598  0  -0.38362  0  -0.208354  -0.318583  0  1.372023  0
Br  Br73  1  0.41049805  0.31075520  0.30394886  1  0  -0.389668  0  1.056541  0  0  -0.333559  0  1.359555  0  0  -0.355528  0  1.341621  0  -0.383596  0  -0.208345  -0.318575  0  1.372044  0
Br  Br74  1  0.08950039  0.68924583  0.80394886  1  0  -0.389692  0  1.056576  0  0  -0.333585  0  1.359593  0  0  -0.355549  0  1.341649  0  -0.383622  0  -0.208355  -0.318598  0  1.372079  0
Br  Br75  1  0.58954485  0.81075915  0.19606036  1  0  -0.389692  0  1.056524  0  0  -0.333574  0  1.359535  0  0  -0.355542  0  1.341602  0  -0.383693  0  -0.208357  -0.318588  0  1.372023  0
Br  Br76  1  0.08949886  0.81075486  0.30394928  1  0  -0.389694  0  1.056577  0  0  -0.333582  0  1.359594  0  0  -0.35555  0  1.34166  0  -0.383578  0  -0.208357  -0.318596  0  1.372079  0
Br  Br77  1  0.58950497  0.68924411  0.69605030  1  0  -0.389675  0  1.056546  0  0  -0.333553  0  1.359557  0  0  -0.35552  0  1.341619  0  -0.383705  0  -0.20834  -0.318569  0  1.372045  0
Br  Br78  1  0.91049955  0.31075520  0.19605114  1  0  -0.389695  0  1.056569  0  0  -0.333581  0  1.359579  0  0  -0.355546  0  1.341636  0  -0.383576  0  -0.208354  -0.318593  0  1.372065  0
Br  Br79  1  0.41049651  0.18924532  0.80394970  1  0  -0.389692  0  1.056569  0  0  -0.333586  0  1.359594  0  0  -0.35555  0  1.34165  0  -0.383701  0  -0.208355  -0.318598  0  1.372078  0
N  N80  1  0.49648047  0.16504187  0.54104464  1  0  -0.246817  0  3.267627  0  0  -0.166548  0  3.555924  0  0  -0.189256  0  3.577452  0  -0.700543  0  -0.208577  -0.151354  0  3.541161  0
N  N81  1  0.99647583  0.33495865  0.45895494  1  0  -0.246911  0  3.267771  0  0  -0.166662  0  3.556103  0  0  -0.189375  0  3.577635  0  -0.700535  0  -0.208614  -0.151468  0  3.541341  0
N  N82  1  0.50351948  0.66504153  0.95895536  1  0  -0.246914  0  3.267595  0  0  -0.166625  0  3.555878  0  0  -0.189332  0  3.5774  0  -0.700548  0  -0.208613  -0.151432  0  3.541117  0
N  N83  1  0.00351797  0.83496088  0.04104506  1  0  -0.246943  0  3.267594  0  0  -0.166694  0  3.555934  0  0  -0.189406  0  3.577464  0  -0.700605  0  -0.208586  -0.151501  0  3.541175  0
N  N84  1  0.50352101  0.83496002  0.45895494  1  0  -0.246842  0  3.267625  0  0  -0.166577  0  3.555939  0  0  -0.189289  0  3.57747  0  -0.700576  0  -0.208591  -0.151384  0  3.541176  0
N  N85  1  0.00352718  0.66504067  0.54104464  1  0  -0.246886  0  3.267716  0  0  -0.166648  0  3.555977  0  0  -0.18936  0  3.577512  0  -0.700514  0  -0.208615  -0.151454  0  3.541216  0
N  N86  1  0.49648047  0.33495521  0.04104548  1  0  -0.246917  0  3.267628  0  0  -0.166652  0  3.555896  0  0  -0.189363  0  3.577424  0  -0.700905  0  -0.208622  -0.151458  0  3.541133  0
N  N87  1  0.99647277  0.16503843  0.95895536  1  0  -0.246868  0  3.26753  0  0  -0.166558  0  3.555812  0  0  -0.18927  0  3.577346  0  -0.701147  0  -0.208594  -0.151365  0  3.541051  0
N  N88  1  0.50726298  0.20795310  0.48912555  1  0  -0.06591  0  2.924399  0  0  -0.071316  0  3.215508  0  0  -0.068385  0  3.231918  0  -0.097488  0  -0.091709  -0.073039  0  3.204263  0
N  N89  1  0.00726147  0.29204914  0.51087487  1  0  -0.065866  0  2.924341  0  0  -0.071279  0  3.215474  0  0  -0.068346  0  3.231884  0  -0.097417  0  -0.091699  -0.073003  0  3.204231  0
N  N90  1  0.49273696  0.70795190  0.01087529  1  0  -0.06581  0  2.924212  0  0  -0.071224  0  3.215317  0  0  -0.068291  0  3.231726  0  -0.097465  0  -0.091672  -0.072946  0  3.204074  0
N  N91  1  0.99273387  0.79205137  0.98912513  1  0  -0.065774  0  2.924347  0  0  -0.071186  0  3.21547  0  0  -0.068253  0  3.231879  0  -0.097424  0  -0.091648  -0.072909  0  3.204226  0
N  N92  1  0.49274157  0.79204965  0.51087403  1  0  -0.06586  0  2.924358  0  0  -0.071267  0  3.215472  0  0  -0.068335  0  3.231883  0  -0.097769  0  -0.09169  -0.072989  0  3.204228  0
N  N93  1  0.99273847  0.70795104  0.48912513  1  0  -0.065873  0  2.924217  0  0  -0.071287  0  3.215337  0  0  -0.068355  0  3.231745  0  -0.097421  0  -0.091688  -0.07301  0  3.204094  0
N  N94  1  0.50726298  0.29204570  0.98912513  1  0  -0.065804  0  2.924366  0  0  -0.071207  0  3.21546  0  0  -0.068275  0  3.231871  0  -0.097192  0  -0.091666  -0.07293  0  3.204216  0
N  N95  1  0.00725994  0.20795052  0.01087445  1  0  -0.065933  0  2.92421  0  0  -0.071352  0  3.215316  0  0  -0.068421  0  3.231725  0  -0.097382  0  -0.091704  -0.073075  0  3.204073  0
N  N96  1  0.36787735  0.15350115  0.45882331  1  0  -0.109125  0  3.095507  0  0  -0.06956  0  3.406135  0  0  -0.078072  0  3.421003  0  -0.148187  0  -0.09737  -0.063317  0  3.395593  0
N  N97  1  0.86788039  0.34650367  0.54117711  1  0  -0.109093  0  3.095583  0  0  -0.069531  0  3.406208  0  0  -0.078042  0  3.421076  0  -0.14849  0  -0.09736  -0.063288  0  3.395667  0
N  N98  1  0.63212106  0.65349822  0.04117711  1  0  -0.109102  0  3.095482  0  0  -0.069537  0  3.406114  0  0  -0.07805  0  3.420984  0  -0.148447  0  -0.097345  -0.063294  0  3.395573  0
N  N99  1  0.13211802  0.84650332  0.95882331  1  0  -0.109106  0  3.095616  0  0  -0.069535  0  3.40623  0  0  -0.078045  0  3.421096  0  -0.148449  0  -0.097387  -0.063292  0  3.395689  0
N  N100  1  0.63212566  0.84650246  0.54117585  1  0  -0.10914  0  3.095574  0  0  -0.069573  0  3.406197  0  0  -0.078084  0  3.421065  0  -0.148051  0  -0.097406  -0.063331  0  3.395657  0
N  N101  1  0.13212109  0.65349822  0.45882247  1  0  -0.109004  0  3.095365  0  0  -0.069444  0  3.405996  0  0  -0.077955  0  3.420863  0  -0.148482  0  -0.097356  -0.063202  0  3.395456  0
N  N102  1  0.36787889  0.34649937  0.95882331  1  0  -0.10911  0  3.095605  0  0  -0.069546  0  3.406229  0  0  -0.078058  0  3.421098  0  -0.148161  0  -0.097355  -0.063303  0  3.395688  0
N  N103  1  0.86787886  0.15349771  0.04117753  1  0  -0.109026  0  3.095388  0  0  -0.069465  0  3.406018  0  0  -0.077977  0  3.420885  0  -0.148494  0  -0.097373  -0.063223  0  3.395478  0
N  N104  1  0.26567053  0.07569348  0.48990484  1  0  -0.274225  0  2.953665  0  0  -0.256604  0  3.240207  0  0  -0.266221  0  3.254465  0  -0.656516  0  -0.208752  -0.250065  0  3.230409  0
N  N105  1  0.76567204  0.42430961  0.51009558  1  0  -0.27415  0  2.953676  0  0  -0.256509  0  3.240186  0  0  -0.266123  0  3.254441  0  -0.656284  0  -0.208674  -0.24997  0  3.230387  0
N  N106  1  0.73432941  0.57569142  0.01009558  1  0  -0.27422  0  2.953637  0  0  -0.256585  0  3.240167  0  0  -0.266203  0  3.254426  0  -0.656284  0  -0.208728  -0.250046  0  3.230369  0
N  N107  1  0.23432944  0.92430841  0.98990526  1  0  -0.274242  0  2.9537  0  0  -0.256611  0  3.240237  0  0  -0.266227  0  3.254491  0  -0.656229  0  -0.208732  -0.250071  0  3.230438  0
N  N108  1  0.73433095  0.92430927  0.51009432  1  0  -0.274174  0  2.953688  0  0  -0.256549  0  3.240229  0  0  -0.266166  0  3.254484  0  -0.656288  0  -0.208713  -0.25001  0  3.230431  0
N  N109  1  0.23433251  0.57569142  0.48990400  1  0  -0.274318  0  2.953622  0  0  -0.256728  0  3.24012  0  0  -0.266345  0  3.254374  0  -0.656316  0  -0.208757  -0.250188  0  3.230322  0
N  N110  1  0.26567053  0.42430531  0.98990526  1  0  -0.27425  0  2.95373  0  0  -0.256641  0  3.240254  0  0  -0.266259  0  3.254512  0  -0.656496  0  -0.20876  -0.250102  0  3.230456  0
N  N111  1  0.76566744  0.07569090  0.01009642  1  0  -0.274362  0  2.953525  0  0  -0.256738  0  3.240087  0  0  -0.266352  0  3.254338  0  -0.656328  0  -0.208762  -0.250198  0  3.230288  0
N  N112  1  0.38399436  0.03993212  0.63892392  1  0  -0.287735  0  3.115489  0  0  -0.2454  0  3.380316  0  0  -0.255837  0  3.395183  0  -1.195551  0  -0.292829  -0.237857  0  3.370187  0
N  N113  1  0.88399586  0.46006840  0.36107567  1  0  -0.287687  0  3.115363  0  0  -0.245336  0  3.380172  0  0  -0.255772  0  3.395036  0  -1.195516  0  -0.292795  -0.237792  0  3.370041  0
N  N114  1  0.61600252  0.53993178  0.86107567  1  0  -0.287734  0  3.115392  0  0  -0.245396  0  3.380201  0  0  -0.255833  0  3.395068  0  -1.195566  0  -0.292822  -0.237852  0  3.37007  0
N  N115  1  0.11600868  0.96006719  0.13892517  1  0  -0.287799  0  3.115614  0  0  -0.245439  0  3.380412  0  0  -0.255876  0  3.395279  0  -1.195538  0  -0.292851  -0.237895  0  3.370282  0
N  N116  1  0.61600252  0.96006977  0.36107483  1  0  -0.287843  0  3.115623  0  0  -0.245486  0  3.380391  0  0  -0.255923  0  3.395256  0  -1.195476  0  -0.292894  -0.237942  0  3.370258  0
N  N117  1  0.11601175  0.53993092  0.63892392  1  0  -0.287728  0  3.115528  0  0  -0.245374  0  3.380333  0  0  -0.25581  0  3.395198  0  -1.19542  0  -0.292827  -0.237831  0  3.370203  0
N  N118  1  0.38399589  0.46006668  0.13892475  1  0  -0.287808  0  3.115547  0  0  -0.24545  0  3.380352  0  0  -0.255887  0  3.395219  0  -1.195591  0  -0.292884  -0.237905  0  3.370222  0
N  N119  1  0.88398819  0.03993040  0.86107608  1  0  -0.287701  0  3.11553  0  0  -0.245357  0  3.380343  0  0  -0.255793  0  3.395206  0  -1.195328  0  -0.292809  -0.237813  0  3.370212  0
N  N120  1  0.07957858  0.87266189  0.63150996  1  0  -0.243259  0  3.208911  0  0  -0.173623  0  3.473241  0  0  -0.189792  0  3.49247  0  -1.198042  0  -0.292599  -0.162358  0  3.459972  0
N  N121  1  0.57957394  0.62733794  0.36849004  1  0  -0.243248  0  3.208936  0  0  -0.173589  0  3.473214  0  0  -0.189756  0  3.492443  0  -1.198115  0  -0.292625  -0.162326  0  3.459952  0
N  N122  1  0.92042444  0.37266310  0.86849004  1  0  -0.243252  0  3.2089  0  0  -0.17361  0  3.473205  0  0  -0.189778  0  3.492434  0  -1.198045  0  -0.29264  -0.162345  0  3.459938  0
N  N123  1  0.42042293  0.12733656  0.13151205  1  0  -0.243247  0  3.209043  0  0  -0.173613  0  3.473359  0  0  -0.189779  0  3.492587  0  -1.198105  0  -0.292615  -0.162349  0  3.460098  0
N  N124  1  0.92042137  0.12733914  0.36848753  1  0  -0.243276  0  3.20904  0  0  -0.173665  0  3.473385  0  0  -0.189835  0  3.492614  0  -1.198059  0  -0.29263  -0.162401  0  3.460119  0
N  N125  1  0.42043214  0.37266310  0.63151038  1  0  -0.243316  0  3.208848  0  0  -0.173639  0  3.47315  0  0  -0.189804  0  3.492371  0  -1.198129  0  -0.292635  -0.162374  0  3.45988  0
N  N126  1  0.07958011  0.62733622  0.13150996  1  0  -0.243223  0  3.208816  0  0  -0.173631  0  3.473189  0  0  -0.1898  0  3.492418  0  -1.198023  0  -0.292644  -0.162367  0  3.459921  0
N  N127  1  0.57956781  0.87266275  0.86848879  1  0  -0.243212  0  3.208907  0  0  -0.173622  0  3.473213  0  0  -0.189785  0  3.492435  0  -1.198147  0  -0.292591  -0.162358  0  3.459951  0
