# generated using pymatgen
data_LiH22(C5N)2
_symmetry_space_group_name_H-M   'P 1'
_cell_length_a   7.80408304
_cell_length_b   8.72904684
_cell_length_c   9.19139002
_cell_angle_alpha   107.75750389
_cell_angle_beta   113.08167101
_cell_angle_gamma   90.90905904
_symmetry_Int_Tables_number   1
_chemical_formula_structural   LiH22(C5N)2
_chemical_formula_sum   'Li2 H44 C20 N4'
_cell_volume   541.97581540
_cell_formula_units_Z   2
loop_
 _symmetry_equiv_pos_site_id
 _symmetry_equiv_pos_as_xyz
  1  'x, y, z'
loop_
 _atom_site_type_symbol
 _atom_site_label
 _atom_site_symmetry_multiplicity
 _atom_site_fract_x
 _atom_site_fract_y
 _atom_site_fract_z
 _atom_site_occupancy
 _atom_site_hle17_bader_spin_density
 _atom_site_hle17_ddec_charge
 _atom_site_hle17_ddec_spin_density
 _atom_site_hle17_ddec_sum_bond_order
 _atom_site_hle17_magmom
 _atom_site_hse06_10hf_bader_spin_density
 _atom_site_hse06_10hf_ddec_charge
 _atom_site_hse06_10hf_ddec_spin_density
 _atom_site_hse06_10hf_ddec_sum_bond_order
 _atom_site_hse06_10hf_magmom
 _atom_site_hse06_bader_spin_density
 _atom_site_hse06_ddec_charge
 _atom_site_hse06_ddec_spin_density
 _atom_site_hse06_ddec_sum_bond_order
 _atom_site_hse06_magmom
 _atom_site_pbe_bader_spin_density
 _atom_site_pbe_cm5_charge
 _atom_site_pbe_ddec_charge
 _atom_site_pbe_ddec_spin_density
 _atom_site_pbe_ddec_sum_bond_order
 _atom_site_pbe_magmom
Li  Li0  1  0.44700155  0.62418630  0.48932171  1  0  0.765339  0  0.492764  0  0  0.696976  0  0.62155  0  0  0.706911  0  0.608817  0  0  0.48027  0.691284  0  0.628148  0
Li  Li1  1  0.55299921  0.37581206  0.51067736  1  0  0.765354  0  0.492728  0  0  0.69703  0  0.621437  0  0  0.706961  0  0.608708  0  0  0.480259  0.691335  0  0.628041  0
H  H2  1  0.58682336  0.50411676  0.89847551  1  0  -0.012593  0  0.928425  0  0  0.005596  0  0.999559  0  0  0.004652  0  0.999851  0  0  0.079768  0.005652  0  0.999845  0
H  H3  1  0.41317507  0.49588405  0.10152243  1  0  -0.012478  0  0.928318  0  0  0.005615  0  0.999553  0  0  0.004671  0  0.999846  0  0  0.079782  0.00567  0  0.99984  0
H  H4  1  0.36974674  0.77807587  0.82546080  1  0  0.046793  0  0.969837  0  0  0.065917  0  1.037586  0  0  0.066812  0  1.0373  0  0  0.08186  0.064998  0  1.03821  0
H  H5  1  0.63025075  0.22192738  0.17453863  1  0  0.046802  0  0.969823  0  0  0.065935  0  1.037562  0  0  0.066829  0  1.037279  0  0  0.081863  0.065015  0  1.038186  0
H  H6  1  0.38970837  0.69546291  0.98416299  1  0  0.049231  0  0.970347  0  0  0.068687  0  1.034677  0  0  0.069795  0  1.034319  0  0  0.078675  0.067293  0  1.035582  0
H  H7  1  0.61029262  0.30453666  0.01583651  1  0  0.049264  0  0.970321  0  0  0.06872  0  1.034654  0  0  0.069831  0  1.034294  0  0  0.078682  0.067324  0  1.035562  0
H  H8  1  0.62427944  0.95598023  0.09411579  1  0  0.046184  0  0.971555  0  0  0.066361  0  1.036941  0  0  0.066637  0  1.037685  0  0  0.078996  0.066207  0  1.036355  0
H  H9  1  0.37572038  0.04402057  0.90588369  1  0  0.046164  0  0.971562  0  0  0.06634  0  1.036957  0  0  0.066615  0  1.037701  0  0  0.07899  0.066185  0  1.036371  0
H  H10  1  0.73246115  0.78570644  0.12664415  1  0  0.045066  0  0.95275  0  0  0.065137  0  1.019878  0  0  0.065587  0  1.020346  0  0  0.078605  0.064739  0  1.019661  0
H  H11  1  0.26753845  0.21429314  0.87335490  1  0  0.045049  0  0.952734  0  0  0.065123  0  1.019866  0  0  0.065572  0  1.020334  0  0  0.078592  0.064725  0  1.019649  0
H  H12  1  0.90337415  0.92268503  0.01575037  1  0  0.047085  0  0.9791  0  0  0.06564  0  1.046336  0  0  0.066463  0  1.046372  0  0  0.077928  0.064644  0  1.047096  0
H  H13  1  0.09662685  0.07731454  0.98425022  1  0  0.047067  0  0.979153  0  0  0.065613  0  1.046374  0  0  0.06644  0  1.046409  0  0  0.077919  0.064616  0  1.047135  0
H  H14  1  0.69151995  0.91839596  0.84342684  1  0  0.052576  0  0.945868  0  0  0.072229  0  1.012918  0  0  0.072935  0  1.013186  0  0  0.082051  0.071933  0  1.011776  0
H  H15  1  0.30848081  0.08160240  0.15657332  1  0  0.052588  0  0.945839  0  0  0.072231  0  1.012884  0  0  0.072937  0  1.013151  0  0  0.082053  0.071936  0  1.011744  0
H  H16  1  0.85648299  0.62207627  0.91694560  1  0  -0.021295  0  0.922686  0  0  -0.003091  0  0.994585  0  0  -0.003382  0  0.993356  0  0  0.074727  -0.00275  0  0.994084  0
H  H17  1  0.14351639  0.37792208  0.08305519  1  0  -0.02127  0  0.922702  0  0  -0.003036  0  0.994578  0  0  -0.00332  0  0.993344  0  0  0.074732  -0.002695  0  0.994077  0
H  H18  1  0.04623241  0.77073159  0.83158681  1  0  0.095029  0  0.962114  0  0  0.119217  0  1.02125  0  0  0.119723  0  1.022743  0  0  0.084733  0.118778  0  1.020285  0
H  H19  1  0.95376719  0.22926798  0.16841332  1  0  0.095054  0  0.96218  0  0  0.11924  0  1.021314  0  0  0.119746  0  1.022806  0  0  0.084738  0.118801  0  1.020348  0
H  H20  1  0.84642757  0.77044580  0.65122291  1  0  0.074928  0  0.986434  0  0  0.095025  0  1.057006  0  0  0.096631  0  1.056211  0  0  0.081089  0.094058  0  1.056835  0
H  H21  1  0.15357298  0.22955133  0.34877791  1  0  0.074946  0  0.9864  0  0  0.095042  0  1.056971  0  0  0.09665  0  1.056173  0  0  0.081105  0.094075  0  1.0568  0
H  H22  1  0.92786524  0.58458169  0.66588231  1  0  0.080005  0  0.987462  0  0  0.100617  0  1.055792  0  0  0.102046  0  1.055586  0  0  0.084529  0.099188  0  1.056715  0
H  H23  1  0.07213554  0.41541666  0.33411893  1  0  0.080017  0  0.987495  0  0  0.100639  0  1.055809  0  0  0.102068  0  1.055605  0  0  0.084525  0.099207  0  1.056735  0
H  H24  1  0.24429986  0.42765176  0.77720011  1  0  0.091874  0  0.967326  0  0  0.112016  0  1.035468  0  0  0.113258  0  1.035189  0  0  0.085187  0.111389  0  1.035145  0
H  H25  1  0.75570136  0.57234904  0.22279982  1  0  0.091844  0  0.967315  0  0  0.111971  0  1.035477  0  0  0.113212  0  1.035198  0  0  0.085178  0.111346  0  1.035152  0
H  H26  1  0.32857916  0.32677263  0.62562731  1  0  0.074546  0  0.987917  0  0  0.096545  0  1.054968  0  0  0.098005  0  1.054613  0  0  0.088586  0.095723  0  1.054425  0
H  H27  1  0.67142066  0.67322817  0.37437216  1  0  0.074496  0  0.987959  0  0  0.096514  0  1.054973  0  0  0.097973  0  1.054617  0  0  0.088584  0.095692  0  1.054428  0
H  H28  1  0.21379839  0.49896175  0.60834643  1  0  0.082624  0  0.979539  0  0  0.105438  0  1.045021  0  0  0.106518  0  1.04537  0  0  0.090613  0.104143  0  1.045721  0
H  H29  1  0.78619680  0.50103664  0.39165082  1  0  0.08259  0  0.979559  0  0  0.105395  0  1.045051  0  0  0.106474  0  1.045396  0  0  0.090597  0.1041  0  1.045752  0
H  H30  1  0.44486196  0.02332327  0.64775300  1  0  0.065331  0  0.939599  0  0  0.082566  0  1.002111  0  0  0.082897  0  1.002479  0  0  0.110919  0.082526  0  1.001564  0
H  H31  1  0.55513904  0.97667630  0.35224759  1  0  0.065317  0  0.939642  0  0  0.082567  0  1.002135  0  0  0.082895  0  1.002504  0  0  0.11091  0.08253  0  1.001584  0
H  H32  1  0.31514582  0.07228794  0.46477671  1  0  0.042665  0  0.948641  0  0  0.058153  0  1.018025  0  0  0.05934  0  1.016734  0  0  0.099732  0.057305  0  1.018644  0
H  H33  1  0.68485356  0.92771042  0.53522299  1  0  0.042649  0  0.94864  0  0  0.058141  0  1.018021  0  0  0.059326  0  1.01673  0  0  0.099722  0.05729  0  1.018644  0
H  H34  1  0.35394278  0.76530802  0.20883577  1  0  0.091296  0  0.96743  0  0  0.112702  0  1.028039  0  0  0.113595  0  1.028112  0  0  0.105064  0.112122  0  1.027902  0
H  H35  1  0.64606192  0.23468911  0.79116097  1  0  0.091258  0  0.967371  0  0  0.112718  0  1.027912  0  0  0.11361  0  1.027989  0  0  0.105097  0.112139  0  1.027774  0
H  H36  1  0.14296437  0.84873543  0.19739193  1  0  0.080066  0  0.948373  0  0  0.100898  0  1.014138  0  0  0.101677  0  1.014494  0  0  0.093225  0.10071  0  1.0132  0
H  H37  1  0.85703618  0.15126170  0.80260888  1  0  0.080076  0  0.948284  0  0  0.100859  0  1.014123  0  0  0.101638  0  1.014478  0  0  0.093227  0.100671  0  1.013185  0
H  H38  1  0.16135986  0.64331957  0.19445795  1  0  0.099313  0  0.956049  0  0  0.115301  0  1.027436  0  0  0.117098  0  1.025751  0  0  0.108894  0.114917  0  1.027058  0
H  H39  1  0.83864322  0.35668363  0.80554656  1  0  0.099326  0  0.956094  0  0  0.115337  0  1.027444  0  0  0.117124  0  1.025794  0  0  0.108914  0.114956  0  1.027065  0
H  H40  1  0.20600674  0.84846275  0.61699241  1  0  0.091685  0  0.960145  0  0  0.109575  0  1.027493  0  0  0.110974  0  1.026677  0  0  0.104236  0.108573  0  1.028041  0
H  H41  1  0.79399448  0.15153804  0.38300862  1  0  0.091708  0  0.960134  0  0  0.109592  0  1.027495  0  0  0.110991  0  1.026681  0  0  0.104239  0.10859  0  1.028044  0
H  H42  1  0.08354070  0.68151361  0.42697702  1  0  0.089506  0  0.962427  0  0  0.111054  0  1.023763  0  0  0.111895  0  1.024111  0  0  0.107459  0.11037  0  1.023861  0
H  H43  1  0.91645915  0.31848717  0.57302681  1  0  0.089518  0  0.962431  0  0  0.111075  0  1.023755  0  0  0.111915  0  1.024104  0  0  0.107466  0.11039  0  1.023855  0
H  H44  1  0.04711298  0.88341267  0.43140775  1  0  0.07624  0  0.941041  0  0  0.096678  0  1.005817  0  0  0.097803  0  1.005713  0  0  0.091211  0.095857  0  1.006175  0
H  H45  1  0.95288686  0.11658812  0.56859390  1  0  0.076225  0  0.941076  0  0  0.096665  0  1.005851  0  0  0.09779  0  1.005748  0  0  0.091189  0.095844  0  1.006208  0
C  C46  1  0.49832649  0.56067493  0.80550628  1  0  0.242113  0  3.756227  0  0  0.23568  0  3.987881  0  0  0.240438  0  4.007022  0  0  -0.015065  0.232111  0  3.975917  0
C  C47  1  0.50166959  0.43932834  0.19448943  1  0  0.241994  0  3.756191  0  0  0.235603  0  3.987819  0  0  0.240361  0  4.00696  0  0  -0.015093  0.232033  0  3.975857  0
C  C48  1  0.46416630  0.72112839  0.91209634  1  0  -0.160847  0  3.668525  0  0  -0.201913  0  3.921373  0  0  -0.20409  0  3.935787  0  0  -0.170448  -0.199661  0  3.911879  0
C  C49  1  0.53583096  0.27887365  0.08790157  1  0  -0.160914  0  3.668575  0  0  -0.20199  0  3.921425  0  0  -0.204171  0  3.935848  0  0  -0.170439  -0.199735  0  3.911933  0
C  C50  1  0.64926916  0.83597481  0.02852789  1  0  -0.092889  0  3.718099  0  0  -0.136029  0  3.979406  0  0  -0.136369  0  3.994702  0  0  -0.172391  -0.136084  0  3.969229  0
C  C51  1  0.35073183  0.16402476  0.97147162  1  0  -0.092827  0  3.718108  0  0  -0.135974  0  3.979405  0  0  -0.136316  0  3.994705  0  0  -0.172386  -0.136028  0  3.969225  0
C  C52  1  0.76250957  0.85184303  0.92977580  1  0  -0.166523  0  3.670492  0  0  -0.207836  0  3.92573  0  0  -0.209977  0  3.940048  0  0  -0.171591  -0.20687  0  3.916525  0
C  C53  1  0.23749166  0.14815775  0.07022523  1  0  -0.166526  0  3.670536  0  0  -0.207772  0  3.925723  0  0  -0.209915  0  3.940043  0  0  -0.171583  -0.206807  0  3.916519  0
C  C54  1  0.77957960  0.68269108  0.82328681  1  0  0.253108  0  3.753159  0  0  0.245814  0  3.987684  0  0  0.250945  0  4.006274  0  0  -0.012267  0.242616  0  3.974192  0
C  C55  1  0.22041861  0.31730851  0.17671287  1  0  0.253038  0  3.753243  0  0  0.24567  0  3.987854  0  0  0.250796  0  4.006448  0  0  -0.012276  0.242473  0  3.974359  0
C  C56  1  0.90688778  0.70288736  0.73824188  1  0  -0.331376  0  3.707271  0  0  -0.412618  0  3.950019  0  0  -0.415479  0  3.96034  0  0  -0.239834  -0.410198  0  3.942572  0
C  C57  1  0.09311138  0.29710977  0.26175848  1  0  -0.331415  0  3.707362  0  0  -0.412643  0  3.950105  0  0  -0.415508  0  3.960428  0  0  -0.239837  -0.410221  0  3.942661  0
C  C58  1  0.31144067  0.44710898  0.69787058  1  0  -0.339967  0  3.72234  0  0  -0.420489  0  3.962504  0  0  -0.423283  0  3.973101  0  0  -0.238406  -0.418734  0  3.95558  0
C  C59  1  0.68855520  0.55289306  0.30212687  1  0  -0.33981  0  3.722291  0  0  -0.420288  0  3.962427  0  0  -0.423077  0  3.973026  0  0  -0.238352  -0.418534  0  3.955502  0
C  C60  1  0.41055031  0.98913154  0.51300947  1  0  -0.02059  0  3.664046  0  0  -0.076545  0  3.925781  0  0  -0.073692  0  3.937635  0  0  -0.060619  -0.078288  0  3.917179  0
C  C61  1  0.58945069  0.01086802  0.48699221  1  0  -0.020518  0  3.664101  0  0  -0.076499  0  3.925854  0  0  -0.073637  0  3.937698  0  0  -0.060603  -0.078247  0  3.91725  0
C  C62  1  0.23850327  0.76762797  0.24858461  1  0  -0.181796  0  3.680794  0  0  -0.276375  0  3.936945  0  0  -0.274318  0  3.94569  0  0  -0.144427  -0.27783  0  3.929524  0
C  C63  1  0.76150768  0.23237279  0.75141635  1  0  -0.181705  0  3.680673  0  0  -0.276306  0  3.936889  0  0  -0.274252  0  3.945626  0  0  -0.144464  -0.277762  0  3.929464  0
C  C64  1  0.15385168  0.80825678  0.47972090  1  0  -0.177599  0  3.694665  0  0  -0.267673  0  3.945697  0  0  -0.26591  0  3.955101  0  0  -0.138392  -0.268717  0  3.93939  0
C  C65  1  0.84614931  0.19174279  0.52027968  1  0  -0.177633  0  3.694759  0  0  -0.26772  0  3.945796  0  0  -0.265955  0  3.955196  0  0  -0.13842  -0.268764  0  3.939482  0
N  N66  1  0.59691765  0.58400804  0.70582702  1  0  -0.942861  0  2.944613  0  0  -0.857188  0  3.209914  0  0  -0.879664  0  3.220391  0  0  -0.667089  -0.842707  0  3.201742  0
N  N67  1  0.40307961  0.41599400  0.29417089  1  0  -0.942842  0  2.944535  0  0  -0.857144  0  3.209822  0  0  -0.879623  0  3.220298  0  0  -0.667119  -0.842663  0  3.201648  0
N  N68  1  0.31190127  0.82011505  0.43286167  1  0  -0.234288  0  3.301664  0  0  -0.144121  0  3.560338  0  0  -0.156518  0  3.578156  0  0  -0.417827  -0.135353  0  3.547157  0
N  N69  1  0.68810090  0.17988329  0.56714003  1  0  -0.234386  0  3.30177  0  0  -0.14421  0  3.560437  0  0  -0.156601  0  3.578242  0  0  -0.417792  -0.135434  0  3.547245  0
