# generated using pymatgen
data_Zn3H8C28(IO3)5
_symmetry_space_group_name_H-M   'P 1'
_cell_length_a   18.56410617
_cell_length_b   18.62502886
_cell_length_c   18.71647170
_cell_angle_alpha   109.42170160
_cell_angle_beta   109.18060419
_cell_angle_gamma   109.22998498
_symmetry_Int_Tables_number   1
_chemical_formula_structural   Zn3H8C28(IO3)5
_chemical_formula_sum   'Zn6 H16 C56 I10 O30'
_cell_volume   5017.05443528
_cell_formula_units_Z   2
loop_
 _symmetry_equiv_pos_site_id
 _symmetry_equiv_pos_as_xyz
  1  'x, y, z'
loop_
 _atom_site_type_symbol
 _atom_site_label
 _atom_site_symmetry_multiplicity
 _atom_site_fract_x
 _atom_site_fract_y
 _atom_site_fract_z
 _atom_site_occupancy
 _atom_site_pbe_bader_charge
 _atom_site_pbe_bader_spin_density
 _atom_site_pbe_cm5_charge
 _atom_site_pbe_ddec_charge
 _atom_site_pbe_ddec_spin_density
 _atom_site_pbe_ddec_sum_bond_order
 _atom_site_pbe_magmom
Zn  Zn0  1  0.99786574  0.93462121  0.43824580  1  1.317917  0  0.733387  0.983431  0  2.092846  0
Zn  Zn1  1  0.00399586  0.06442589  0.56653162  1  1.320781  0  0.735057  0.989734  0  2.078283  0
Zn  Zn2  1  0.42888495  0.49680779  0.43354608  1  1.323593  0  0.737044  0.986423  0  2.084464  0
Zn  Zn3  1  0.55725881  0.49556357  0.55931083  1  1.319168  0  0.733755  0.985152  0  2.083698  0
Zn  Zn4  1  0.43926701  0.93643026  0.00069942  1  1.316698  0  0.734691  0.970058  0  2.111261  0
Zn  Zn5  1  0.56562005  0.06533807  0.00255117  1  1.312854  0  0.73223  0.966508  0  2.106403  0
H  H6  1  0.80335793  0.66441069  0.57295066  1  0.130911  0  0.120326  0.13548  0  0.979349  0
H  H7  1  0.26582409  0.99711958  0.86064400  1  0.108768  0  0.108211  0.123911  0  1.001212  0
H  H8  1  0.55940957  0.73164100  0.52436818  1  0.083191  0  0.093064  0.031783  0  0.996534  0
H  H9  1  0.97587803  0.82748078  0.56201215  1  0.055015  0  0.093383  0.042226  0  1.018583  0
H  H10  1  0.70078760  0.16560181  0.25395054  1  0.072052  0  0.098728  0.039852  0  0.971087  0
H  H11  1  0.68382092  0.92409072  0.87579437  1  0.097318  0  0.101612  0.040623  0  0.97704  0
H  H12  1  0.43275347  0.17599184  0.01763018  1  0.046147  0  0.09716  0.040819  0  0.986175  0
H  H13  1  0.46399762  0.98954829  0.76091835  1  0.076578  0  0.100648  0.045837  0  0.975712  0
H  H14  1  0.85769367  0.12331129  0.39947166  1  0.139096  0  0.114548  0.125692  0  0.990249  0
H  H15  1  0.67540779  0.89107878  0.08817234  1  0.123165  0  0.111734  0.127157  0  1.007041  0
H  H16  1  0.78327008  0.87477029  0.19409408  1  0.109516  0  0.11719  0.121495  0  0.973588  0
H  H17  1  0.33216661  0.71948736  0.73643042  1  0.128689  0  0.113812  0.1337  0  0.980453  0
H  H18  1  0.44689329  0.09748659  0.24077877  1  0.11005  0  0.111556  0.127564  0  0.986733  0
H  H19  1  0.44716116  0.34927758  0.20380658  1  0.137085  0  0.121546  0.132155  0  0.976542  0
H  H20  1  0.38614935  0.22553294  0.55781270  1  0.117262  0  0.106063  0.127747  0  0.9682  0
H  H21  1  0.14828008  0.29668721  0.50747393  1  0.118186  0  0.117118  0.133828  0  0.950054  0
C  C22  1  0.12372955  0.98027256  0.59378233  1  1.577602  0  0.209526  0.599304  0  4.175887  0
C  C23  1  0.20105169  0.98845766  0.66317172  1  0.005472  0  -0.014613  -0.07459  0  3.905118  0
C  C24  1  0.73744435  0.82077943  0.50819991  1  -0.191467  0  -0.033071  0.004866  0  3.83621  0
C  C25  1  0.12305323  0.13750353  0.52820823  1  1.574688  0  0.216266  0.616156  0  4.132163  0
C  C26  1  0.67468866  0.75033669  0.50481961  1  0.018321  0  -0.003766  -0.001808  0  3.907549  0
C  C27  1  0.69999564  0.69530660  0.53070717  1  -0.040371  0  -0.009299  -0.0591  0  3.960899  0
C  C28  1  0.78454757  0.70838371  0.55567884  1  0.036004  0  -0.06287  -0.088731  0  3.902988  0
C  C29  1  0.84543854  0.77524221  0.55397009  1  -0.01887  0  -0.012249  0.008823  0  3.94983  0
C  C30  1  0.82283443  0.83359910  0.53272603  1  0.030992  0  0.001478  -0.051224  0  3.884456  0
C  C31  1  0.81919330  0.07275147  0.33115531  1  -0.006567  0  -0.061197  -0.086404  0  3.890031  0
C  C32  1  0.76106562  0.08409862  0.27181280  1  -0.044486  0  -0.016214  -0.015244  0  3.986276  0
C  C33  1  0.23761493  0.25901796  0.45410718  1  -0.141637  0  -0.041094  0.037771  0  3.557741  0
C  C34  1  0.70859278  0.01757962  0.18391374  1  0.033888  0  0.008433  -0.023085  0  3.900261  0
C  C35  1  0.71601866  0.94191241  0.15623993  1  -0.007884  0  -0.075204  -0.09585  0  3.936201  0
C  C36  1  0.77622129  0.93286937  0.21531838  1  -0.048977  0  -0.060844  -0.054704  0  3.922589  0
C  C37  1  0.88873187  0.98695359  0.36834509  1  1.52701  0  0.223596  0.607861  0  4.128814  0
C  C38  1  0.82720348  0.99774392  0.30338998  1  -0.003639  0  -0.012705  -0.039752  0  3.979342  0
C  C39  1  0.46680065  0.61396606  0.58664062  1  1.571948  0  0.210282  0.600738  0  4.166239  0
C  C40  1  0.40572470  0.38575934  0.53008622  1  1.568151  0  0.210407  0.602731  0  4.157609  0
C  C41  1  0.46093010  0.37163513  0.35729788  1  1.5859  0  0.222626  0.616316  0  4.130004  0
C  C42  1  0.63289536  0.61783160  0.52352265  1  1.547395  0  0.219554  0.594858  0  4.15732  0
C  C43  1  0.47601969  0.85912865  0.88289369  1  1.570505  0  0.224767  0.60737  0  4.131318  0
C  C44  1  0.20142307  0.28121045  0.51798162  1  -0.018659  0  -0.071619  -0.089717  0  3.62378  0
C  C45  1  0.41503416  0.01864208  0.87488923  1  1.535447  0  0.219625  0.590905  0  4.155916  0
C  C46  1  0.46341757  0.09178998  0.10368565  1  1.554522  0  0.225484  0.603785  0  4.144751  0
C  C47  1  0.64051728  0.02277073  0.11835970  1  1.552781  0  0.230382  0.611844  0  4.143822  0
C  C48  1  0.54722348  0.75171418  0.73130458  1  -0.198153  0  -0.029908  0.020876  0  3.83765  0
C  C49  1  0.88838881  0.90427417  0.52906866  1  1.588032  0  0.215166  0.59562  0  4.193846  0
C  C50  1  0.55140536  0.80706620  0.80588229  1  0.041536  0  -0.01853  -0.032745  0  3.971922  0
C  C51  1  0.47282219  0.79342420  0.80760382  1  -0.019765  0  0.00177  -0.012328  0  3.914519  0
C  C52  1  0.39234447  0.72710571  0.73500960  1  0.070677  0  -0.085746  -0.134525  0  3.951539  0
C  C53  1  0.38897881  0.67237772  0.65992214  1  -0.23324  0  -0.034834  0.055647  0  3.873208  0
C  C54  1  0.46672044  0.68146324  0.65813597  1  0.041076  0  -0.01704  -0.07608  0  3.915098  0
C  C55  1  0.19857905  0.20091700  0.52997831  1  0.01555  0  -0.004186  -0.040315  0  3.62286  0
C  C56  1  0.45080687  0.22140043  0.29798683  1  -0.215739  0  -0.029152  0.058598  0  3.866387  0
C  C57  1  0.44862609  0.15378884  0.23400875  1  -0.011629  0  -0.083998  -0.131891  0  3.954242  0
C  C58  1  0.45160558  0.15896401  0.16223176  1  0.017244  0  0.002608  -0.025537  0  3.917903  0
C  C59  1  0.45069631  0.22993082  0.15079363  1  -0.016324  0  -0.013023  -0.003362  0  3.967207  0
C  C60  1  0.44926357  0.29531419  0.21366729  1  0.004531  0  -0.056198  -0.080879  0  3.879667  0
C  C61  1  0.29579539  0.26245102  0.60874882  1  -0.136635  0  -0.037249  0.038257  0  3.560932  0
C  C62  1  0.45217196  0.29386398  0.28867783  1  0.008604  0  -0.007986  -0.045519  0  3.926499  0
C  C63  1  0.29726133  0.34201700  0.59551669  1  -0.131079  0  -0.033061  0.046434  0  3.541197  0
C  C64  1  0.33487716  0.31961925  0.53108087  1  0.00827  0  -0.007995  -0.044463  0  3.629644  0
C  C65  1  0.33304090  0.24110846  0.54556389  1  -0.021556  0  -0.080771  -0.104613  0  3.654295  0
C  C66  1  0.19834129  0.98960861  0.73788930  1  -0.226594  0  -0.029472  0.067192  0  3.861011  0
C  C67  1  0.23739361  0.17981690  0.46759008  1  -0.127852  0  -0.041968  0.038431  0  3.545112  0
C  C68  1  0.58155598  0.73272430  0.47596170  1  0.984309  0  0.094347  0.295181  0  3.96412  0
C  C69  1  0.93115183  0.77834211  0.57027152  1  0.949469  0  0.086614  0.257157  0  3.977468  0
C  C70  1  0.75280116  0.16377288  0.30342096  1  0.935336  0  0.096548  0.270365  0  3.975347  0
C  C71  1  0.63833315  0.87649363  0.88515290  1  0.93431  0  0.097465  0.287789  0  3.98247  0
C  C72  1  0.44620748  0.23571389  0.07225247  1  0.965774  0  0.095416  0.271191  0  3.968417  0
C  C73  1  0.43002765  0.01274951  0.72055675  1  0.953211  0  0.092878  0.278625  0  3.955604  0
C  C74  1  0.26871497  0.99807406  0.80385476  1  0.073537  0  -0.089793  -0.135007  0  3.985407  0
C  C75  1  0.34402898  0.00841587  0.79815052  1  -0.013524  0  -0.00105  -0.024239  0  3.92493  0
C  C76  1  0.35069188  0.01023896  0.72557635  1  0.023035  0  -0.016663  -0.030004  0  3.938262  0
C  C77  1  0.27849661  0.00103001  0.65867245  1  -0.149602  0  -0.027564  0.027102  0  3.796279  0
I  I78  1  0.34809602  0.46826254  0.69756054  1  0.117453  0  0.059897  -0.02452  0  1.408205  0
I  I79  1  0.09280321  0.98050282  0.76098742  1  0.167167  0  0.114946  0.028454  0  1.453135  0
I  I80  1  0.28433329  0.01194754  0.55141161  1  0.193842  0  0.091154  0.005908  0  1.704318  0
I  I81  1  0.70410003  0.90630889  0.47194379  1  0.165915  0  0.093052  0.021392  0  1.393646  0
I  I82  1  0.66828734  0.77971972  0.73249058  1  0.149913  0  0.119634  0.019845  0  1.50559  0
I  I83  1  0.34000103  0.26527774  0.72902749  1  0.129537  0  0.064862  -0.018026  0  1.369058  0
I  I84  1  0.26300100  0.57857296  0.55342704  1  0.171267  0  0.091108  0.004096  0  1.419886  0
I  I85  1  0.44691559  0.20505735  0.40245353  1  0.162622  0  0.101782  0.009533  0  1.518838  0
I  I86  1  0.19817935  0.05740763  0.36580075  1  0.11665  0  0.057052  -0.028224  0  1.545997  0
I  I87  1  0.18471233  0.25003388  0.33113058  1  0.112794  0  0.042844  -0.041378  0  1.373796  0
O  O88  1  0.08566334  0.91812223  0.51526466  1  -1.13585  0  -0.308741  -0.521661  0  2.281971  0
O  O89  1  0.53129341  0.93830828  0.91346206  1  -1.176126  0  -0.303917  -0.570462  0  2.353677  0
O  O90  1  0.38931093  0.97231438  0.90728582  1  -1.172581  0  -0.308468  -0.568075  0  2.346013  0
O  O91  1  0.10135383  0.03655761  0.62049050  1  -1.162251  0  -0.304662  -0.565581  0  2.428644  0
O  O92  1  0.49550508  0.07467016  0.90537170  1  -1.126627  0  -0.306599  -0.519392  0  2.241618  0
O  O93  1  0.41577923  0.01127770  0.08019545  1  -1.129073  0  -0.310673  -0.517331  0  2.229904  0
O  O94  1  0.52200096  0.11998924  0.08391899  1  -1.162949  0  -0.305582  -0.571778  0  2.337914  0
O  O95  1  0.56141663  0.97035932  0.09169499  1  -1.165593  0  -0.305804  -0.559507  0  2.30731  0
O  O96  1  0.66626115  0.07786515  0.09302340  1  -1.125462  0  -0.308378  -0.522004  0  2.236708  0
O  O97  1  0.09029124  0.05766284  0.47406216  1  -1.177689  0  -0.309502  -0.575134  0  2.436556  0
O  O98  1  0.09677265  0.16794271  0.58063552  1  -1.119978  0  -0.311492  -0.515101  0  2.20268  0
O  O99  1  0.51689634  0.58472596  0.61168440  1  -1.162133  0  -0.306144  -0.570974  0  2.408804  0
O  O100  1  0.91148353  0.92982716  0.33985557  1  -1.123534  0  -0.312994  -0.526209  0  2.231643  0
O  O101  1  0.91473921  0.03555913  0.44810399  1  -1.178216  0  -0.313986  -0.578448  0  2.362804  0
O  O102  1  0.90546042  0.87669386  0.46856356  1  -1.159586  0  -0.303755  -0.551206  0  2.333454  0
O  O103  1  0.92180064  0.98423963  0.58594024  1  -1.138522  0  -0.310085  -0.53789  0  2.308408  0
O  O104  1  0.41692121  0.59009445  0.50723692  1  -1.121637  0  -0.30562  -0.51088  0  2.291744  0
O  O105  1  0.53468974  0.72382406  0.40679460  1  -1.063349  0  -0.259379  -0.336167  0  2.126444  0
O  O106  1  0.95054853  0.72767617  0.58868145  1  -1.061101  0  -0.264582  -0.345327  0  2.09676  0
O  O107  1  0.79834447  0.22456460  0.37838792  1  -1.076334  0  -0.268854  -0.353213  0  2.080787  0
O  O108  1  0.65939933  0.87957245  0.95560344  1  -1.069865  0  -0.248349  -0.337036  0  2.157496  0
O  O109  1  0.45470158  0.30077641  0.06547131  1  -1.0622  0  -0.265737  -0.350654  0  2.081824  0
O  O110  1  0.38070201  0.41390400  0.47906429  1  -1.169726  0  -0.309253  -0.573186  0  2.422693  0
O  O111  1  0.45715906  0.03541519  0.67613387  1  -1.057975  0  -0.25984  -0.33632  0  2.165497  0
O  O112  1  0.48587533  0.41037952  0.58060492  1  -1.119862  0  -0.31266  -0.518467  0  2.235944  0
O  O113  1  0.41057808  0.40213505  0.33209299  1  -1.12665  0  -0.30827  -0.520139  0  2.234115  0
O  O114  1  0.51894370  0.40313987  0.43490697  1  -1.174637  0  -0.308659  -0.568804  0  2.36573  0
O  O115  1  0.55380954  0.58726224  0.46782586  1  -1.15861  0  -0.293969  -0.54842  0  2.36191  0
O  O116  1  0.65866363  0.58701891  0.57289740  1  -1.12856  0  -0.309712  -0.519898  0  2.255386  0
O  O117  1  0.42172854  0.83248419  0.90887374  1  -1.125403  0  -0.307831  -0.509067  0  2.211931  0
