# generated using pymatgen
data_CuH8C9(NO)4
_symmetry_space_group_name_H-M   'P 1'
_cell_length_a   8.72766776
_cell_length_b   11.65575678
_cell_length_c   12.23181840
_cell_angle_alpha   85.20648255
_cell_angle_beta   85.41734596
_cell_angle_gamma   77.82461699
_symmetry_Int_Tables_number   1
_chemical_formula_structural   CuH8C9(NO)4
_chemical_formula_sum   'Cu4 H32 C36 N16 O16'
_cell_volume   1209.59066195
_cell_formula_units_Z   4
loop_
 _symmetry_equiv_pos_site_id
 _symmetry_equiv_pos_as_xyz
  1  'x, y, z'
loop_
 _atom_site_type_symbol
 _atom_site_label
 _atom_site_symmetry_multiplicity
 _atom_site_fract_x
 _atom_site_fract_y
 _atom_site_fract_z
 _atom_site_occupancy
 _atom_site_pbe_bader_charge
 _atom_site_pbe_bader_spin_density
 _atom_site_pbe_cm5_charge
 _atom_site_pbe_ddec_charge
 _atom_site_pbe_ddec_spin_density
 _atom_site_pbe_ddec_sum_bond_order
 _atom_site_pbe_magmom
Cu  Cu0  1  0.12722826  0.25919095  0.49117272  1  1.107775  -0.571079  0.733209  0.762157  -0.727833  2.362931  -0.569
Cu  Cu1  1  0.87258119  0.74053378  0.50900642  1  1.107234  -0.588775  0.731573  0.761909  -0.750263  2.357079  -0.587
Cu  Cu2  1  0.28884821  0.20931902  0.04502898  1  1.112875  0.556669  0.742548  0.772895  0.744259  2.344815  0.555
Cu  Cu3  1  0.71121809  0.79076889  0.95470368  1  1.115527  -0.580495  0.741761  0.773809  -0.740093  2.343587  -0.579
H  H4  1  0.79668102  0.34583574  0.63420626  1  0.115133  -0.000154  0.12825  0.121117  -1.9e-05  0.984041  0.0
H  H5  1  0.20377632  0.65437074  0.36545886  1  0.11464  -0.000121  0.127853  0.120456  5e-06  0.984795  0.0
H  H6  1  0.73249869  0.21639744  0.82591983  1  0.126049  -0.000815  0.110859  0.139034  -0.000411  1.023212  0.0
H  H7  1  0.26758891  0.78393435  0.17371609  1  0.12704  -0.000717  0.110614  0.139013  -0.00033  1.023626  0.0
H  H8  1  0.95205340  0.00903144  0.81412778  1  0.194284  -0.000803  0.137624  0.149002  -0.000586  0.994423  0.0
H  H9  1  0.04798629  0.99122630  0.18574532  1  0.189452  -0.000361  0.137387  0.149551  -7e-05  0.993631  0.0
H  H10  1  0.16274373  0.92639487  0.66892375  1  0.150641  0.0002  0.153755  0.139307  0.000109  0.929049  0.0
H  H11  1  0.83706021  0.07352882  0.33109107  1  0.149352  0.000128  0.153716  0.139152  5.4e-05  0.929526  0.0
H  H12  1  0.13257658  0.99701523  0.53414306  1  0.156948  0.000137  0.141076  0.119067  7e-05  0.963116  0.0
H  H13  1  0.86755640  0.00283460  0.46581257  1  0.157357  0.000138  0.140972  0.118934  7.3e-05  0.963398  0.0
H  H14  1  0.44006301  0.92523684  0.72738045  1  0.208207  -0.000726  0.13184  0.139423  -0.000444  1.002254  0.0
H  H15  1  0.56036637  0.07461366  0.27256221  1  0.206537  -0.000476  0.131943  0.139494  -0.000128  1.001204  0.0
H  H16  1  0.65413196  0.06614802  0.67105418  1  0.153526  -0.000838  0.107357  0.137377  -0.000418  1.037705  -0.001
H  H17  1  0.34588292  0.93400815  0.32880795  1  0.151428  -0.000884  0.107378  0.13741  -0.000458  1.037781  -0.001
H  H18  1  0.49500843  0.24529922  0.53255224  1  0.133793  -0.00026  0.131238  0.125616  -7.4e-05  0.969559  0.0
H  H19  1  0.50456753  0.75478702  0.46743025  1  0.132439  -0.000237  0.131019  0.125095  -5.6e-05  0.969932  0.0
H  H20  1  0.57879989  0.34603200  0.99841893  1  0.12604  0.000307  0.126138  0.117783  0.000102  1.001236  0.0
H  H21  1  0.42072310  0.65380511  0.00204593  1  0.12417  -0.000285  0.125944  0.117132  -7.4e-05  1.002053  0.0
H  H22  1  0.58190651  0.50554165  0.81574499  1  0.183453  0.001019  0.108435  0.147912  0.000532  1.038308  0.001
H  H23  1  0.41817122  0.49410891  0.18466791  1  0.181357  -0.00087  0.108015  0.147892  -0.00044  1.0388  -0.001
H  H24  1  0.34042608  0.46515727  0.69706908  1  0.188415  0.00067  0.13143  0.141297  0.00033  1.001578  0.0
H  H25  1  0.65990313  0.53450171  0.30303695  1  0.186986  -0.000527  0.13141  0.141156  -0.000293  1.001537  0.0
H  H26  1  0.14609003  0.33231935  0.72875741  1  0.180125  -9.3e-05  0.138169  0.126231  -4e-05  1.040466  0.0
H  H27  1  0.85405133  0.66759847  0.27115502  1  0.179382  0.000196  0.138075  0.125872  0.000101  1.039878  0.0
H  H28  1  0.21114510  0.20069057  0.81796274  1  0.168198  -0.000111  0.135502  0.117807  -3.4e-05  0.997804  0.0
H  H29  1  0.78863389  0.79921277  0.18208342  1  0.169371  0.000133  0.135736  0.117973  7.2e-05  0.997316  0.0
H  H30  1  0.89153224  0.46515199  0.80441956  1  0.130033  0.000775  0.132058  0.134271  0.000409  0.99509  0.0
H  H31  1  0.10819591  0.53479433  0.19546735  1  0.130686  -0.000654  0.132184  0.134325  -0.00029  0.995349  0.0
H  H32  1  0.73663013  0.48414456  0.00863092  1  0.125648  0.000844  0.109241  0.129952  0.000451  1.050003  0.001
H  H33  1  0.26327955  0.51587527  0.99136604  1  0.125997  -0.000842  0.109123  0.129797  -0.000434  1.050053  -0.001
H  H34  1  0.93209304  0.32642583  0.14372418  1  0.097434  0.000247  0.127707  0.120261  7.5e-05  0.981691  0.0
H  H35  1  0.06810064  0.67378222  0.85622499  1  0.096251  -0.000212  0.127576  0.120244  -4.6e-05  0.981699  0.0
C  C36  1  0.85516872  0.25881006  0.66465339  1  0.423864  -0.003594  0.024752  0.017767  -0.002866  3.985405  -0.003
C  C37  1  0.14510797  0.74136240  0.33504960  1  0.441397  -0.003309  0.024734  0.018019  -0.002673  3.987267  -0.003
C  C38  1  0.82451582  0.19244737  0.76225575  1  -0.008777  -0.002746  -0.108951  -0.20557  -0.001916  4.012242  -0.002
C  C39  1  0.17563375  0.80780801  0.23745093  1  -0.015726  -0.002409  -0.108921  -0.205664  -0.001706  4.014005  -0.002
C  C40  1  0.93589246  0.08820005  0.75947692  1  0.339444  -0.005327  0.039164  -0.015748  -0.003933  3.857788  -0.004
C  C41  1  0.06418287  0.91201150  0.24034636  1  0.345356  -0.004377  0.038552  -0.01798  -0.003215  3.858984  -0.003
C  C42  1  0.15445157  0.00949212  0.61910334  1  0.638069  -0.000301  0.077211  -0.030464  -0.000163  3.877931  0.0
C  C43  1  0.84560795  0.99038036  0.38086161  1  0.646139  -0.000333  0.076867  -0.030263  -0.000208  3.879426  0.0
C  C44  1  0.43209188  0.00350360  0.67156492  1  0.301565  0.00096  0.032198  -0.028416  0.000373  3.881315  0.0
C  C45  1  0.56812374  0.99635048  0.32836443  1  0.284834  0.001132  0.031881  -0.028296  0.000468  3.881201  0.0
C  C46  1  0.53696385  0.07713717  0.64311781  1  0.000594  -0.002655  -0.113155  -0.202324  -0.001792  3.995817  -0.002
C  C47  1  0.46305132  0.92287969  0.35678662  1  0.020485  -0.002552  -0.113035  -0.202389  -0.001753  3.995892  -0.002
C  C48  1  0.45770605  0.16829579  0.57278061  1  0.400541  0.000234  0.02715  0.024896  -0.000259  3.971816  -0.001
C  C49  1  0.54210501  0.83170013  0.42719899  1  0.401598  0.000227  0.026976  0.025094  -0.000251  3.971692  -0.001
C  C50  1  0.50594570  0.36252608  0.92875847  1  0.416698  0.000413  0.027173  0.018694  0.000976  3.986186  0.002
C  C51  1  0.49382121  0.63726031  0.07157867  1  0.422466  -0.000428  0.026679  0.019636  -0.000801  3.985898  -0.001
C  C52  1  0.50692429  0.44201522  0.83532321  1  -0.032621  0.003035  -0.111367  -0.216296  0.002149  3.997709  0.002
C  C53  1  0.49309805  0.55766668  0.16498214  1  -0.037869  -0.002882  -0.111422  -0.216716  -0.001945  3.995692  -0.002
C  C54  1  0.38630625  0.42550490  0.77451666  1  0.280775  -9.7e-05  0.030702  -0.048002  0.000328  3.868758  0.001
C  C55  1  0.61385302  0.57420724  0.22564319  1  0.283219  2e-05  0.030309  -0.04839  -0.000289  3.868871  -0.001
C  C56  1  0.18277857  0.29730271  0.81058328  1  0.608084  0.000413  0.059463  -0.07802  0.000329  3.860105  0.001
C  C57  1  0.81712433  0.70260910  0.18938409  1  0.609858  -0.000295  0.059172  -0.077988  -0.000172  3.860002  -0.001
C  C58  1  0.92338287  0.41919660  0.88266265  1  0.351861  0.002891  0.030961  -0.047628  0.002433  3.90296  0.002
C  C59  1  0.07642933  0.58080696  0.11724200  1  0.353045  -0.00281  0.030637  -0.047543  -0.002227  3.903438  -0.002
C  C60  1  0.84736400  0.42677003  0.98656376  1  -0.007518  0.002495  -0.111015  -0.203772  0.001846  4.024766  0.002
C  C61  1  0.15253553  0.57326066  0.01336687  1  -0.007563  -0.002508  -0.1109  -0.203273  -0.001763  4.024511  -0.002
C  C62  1  0.94612574  0.34694284  0.05586663  1  0.471383  0.002492  0.027072  0.02336  0.002358  3.980134  0.003
C  C63  1  0.05389161  0.65318206  0.94406356  1  0.470727  -0.002256  0.027016  0.022717  -0.001996  3.981044  -0.003
C  C64  1  0.25646629  0.28675753  0.27499155  1  1.590586  0.002947  0.18972  0.457697  0.000665  4.238587  0.004
C  C65  1  0.74342369  0.71355943  0.72563867  1  1.589641  0.002938  0.19081  0.459989  0.001156  4.236392  0.004
C  C66  1  0.17674356  0.17939240  0.26838968  1  1.563678  -0.002674  0.19537  0.46623  -0.00034  4.213374  -0.003
C  C67  1  0.82332955  0.82092643  0.73135909  1  1.568139  0.002935  0.194486  0.46351  0.001155  4.217868  0.003
C  C68  1  0.55187325  0.01851655  0.04150055  1  1.570975  -0.002904  0.192948  0.471279  -0.000461  4.205634  -0.003
C  C69  1  0.44780738  0.98111900  0.95763681  1  1.586268  0.003216  0.192695  0.471344  0.000852  4.208884  0.004
C  C70  1  0.94238695  0.48947290  0.45829238  1  1.567788  0.002845  0.193202  0.465687  0.001107  4.220767  0.003
C  C71  1  0.05783021  0.51076891  0.54248080  1  1.590636  0.002598  0.1927  0.465054  0.000984  4.221846  0.003
N  N72  1  0.97750359  0.19893731  0.60495245  1  -0.708317  -0.056649  -0.273397  -0.252089  -0.03913  3.505329  -0.05
N  N73  1  0.02274303  0.80107820  0.39481695  1  -0.722845  -0.05556  -0.272334  -0.252212  -0.038407  3.499085  -0.049
N  N74  1  0.02483740  0.09506426  0.66396080  1  -0.817236  -0.002447  -0.149885  0.132556  -0.001022  3.794318  -0.001
N  N75  1  0.97529117  0.90496934  0.33588618  1  -0.81914  -0.002377  -0.150014  0.132933  -0.001034  3.794662  -0.001
N  N76  1  0.31357386  0.15128231  0.55807458  1  -0.719134  -0.059326  -0.270122  -0.246174  -0.040983  3.518265  -0.053
N  N77  1  0.68631848  0.84853421  0.44197709  1  -0.72096  -0.058274  -0.269416  -0.245237  -0.040257  3.516856  -0.052
N  N78  1  0.29996662  0.05058109  0.61873145  1  -0.813398  -0.002779  -0.149455  0.128593  -0.001431  3.802863  -0.001
N  N79  1  0.70015651  0.94918638  0.38127899  1  -0.817259  -0.002684  -0.149651  0.127005  -0.001386  3.804058  -0.001
N  N80  1  0.39276063  0.30122313  0.92511147  1  -0.701775  0.060863  -0.269179  -0.249413  0.043967  3.513555  0.054
N  N81  1  0.60694043  0.69863725  0.07509477  1  -0.699749  -0.060158  -0.268515  -0.251626  -0.041462  3.508074  -0.053
N  N82  1  0.32169466  0.33987096  0.83068840  1  -0.802054  0.002446  -0.146955  0.173702  0.001222  3.748071  0.001
N  N83  1  0.67825378  0.65992330  0.16941296  1  -0.806798  -0.002434  -0.14696  0.17401  -0.001135  3.747653  -0.001
N  N84  1  0.07464374  0.29321486  0.99805421  1  -0.708226  0.060235  -0.264333  -0.241254  0.043525  3.491012  0.053
N  N85  1  0.92535213  0.70693954  0.00184101  1  -0.709173  -0.059413  -0.264423  -0.241053  -0.040971  3.491371  -0.052
N  N86  1  0.05845638  0.33766083  0.89264975  1  -0.807375  0.003002  -0.148071  0.164482  0.001509  3.767114  0.001
N  N87  1  0.94141490  0.66239506  0.10723594  1  -0.807146  -0.002973  -0.148203  0.163712  -0.001401  3.767379  -0.001
O  O88  1  0.26439220  0.32101887  0.37075071  1  -1.108135  -0.104184  -0.327226  -0.497474  -0.066531  2.325913  -0.094
O  O89  1  0.73562312  0.67831057  0.63034916  1  -1.104858  -0.112337  -0.327218  -0.498368  -0.071838  2.321768  -0.102
O  O90  1  0.10931498  0.14033136  0.35380823  1  -1.161852  0.015452  -0.322191  -0.547927  0.010168  2.285262  0.013
O  O91  1  0.89034599  0.85957000  0.64552936  1  -1.163389  -0.026305  -0.320761  -0.545315  -0.016928  2.289469  -0.026
O  O92  1  0.30662412  0.33365465  0.18711409  1  -1.159541  -0.025713  -0.309427  -0.517348  -0.016262  2.253109  -0.022
O  O93  1  0.69302923  0.66750380  0.81395171  1  -1.157389  -0.026542  -0.30855  -0.515799  -0.016959  2.253547  -0.026
O  O94  1  0.18301638  0.13710636  0.17455727  1  -1.107946  0.092624  -0.314037  -0.493938  0.062415  2.384925  0.085
O  O95  1  0.81765158  0.86354123  0.82493303  1  -1.111483  -0.104218  -0.313231  -0.493333  -0.06713  2.380896  -0.095
O  O96  1  0.85009798  0.57739816  0.41725974  1  -1.168077  -0.026023  -0.313984  -0.530618  -0.016669  2.315208  -0.025
O  O97  1  0.15009661  0.42288458  0.58357102  1  -1.171069  -0.021708  -0.314181  -0.53174  -0.013897  2.314407  -0.021
O  O98  1  0.94735594  0.38365921  0.43606149  1  -1.105271  -0.106338  -0.323736  -0.494792  -0.068381  2.325219  -0.097
O  O99  1  0.05270811  0.61664080  0.56456227  1  -1.105561  -0.104785  -0.323869  -0.494763  -0.06739  2.324734  -0.095
O  O100  1  0.49835901  0.11606028  0.08587007  1  -1.103757  0.102765  -0.320327  -0.497583  0.069052  2.351585  0.093
O  O101  1  0.50166942  0.88357716  0.91331835  1  -1.105706  -0.104129  -0.321684  -0.499554  -0.06664  2.352015  -0.094
O  O102  1  0.68112725  0.95225551  0.06160206  1  -1.159008  0.018105  -0.324572  -0.537491  0.011933  2.247413  0.015
O  O103  1  0.31851950  0.04723195  0.93755149  1  -1.159799  -0.026593  -0.32464  -0.537849  -0.016804  2.247204  -0.023
