# generated using pymatgen
data_Zn2H23C33N3O8
_symmetry_space_group_name_H-M   'P 1'
_cell_length_a   7.73843909
_cell_length_b   16.35510490
_cell_length_c   22.49865674
_cell_angle_alpha   90.00002685
_cell_angle_beta   89.99978195
_cell_angle_gamma   97.66632330
_symmetry_Int_Tables_number   1
_chemical_formula_structural   Zn2H23C33N3O8
_chemical_formula_sum   'Zn8 H92 C132 N12 O32'
_cell_volume   2822.04556150
_cell_formula_units_Z   4
loop_
 _symmetry_equiv_pos_site_id
 _symmetry_equiv_pos_as_xyz
  1  'x, y, z'
loop_
 _atom_site_type_symbol
 _atom_site_label
 _atom_site_symmetry_multiplicity
 _atom_site_fract_x
 _atom_site_fract_y
 _atom_site_fract_z
 _atom_site_occupancy
 _atom_site_pbe_bader_charge
 _atom_site_pbe_bader_spin_density
 _atom_site_pbe_cm5_charge
 _atom_site_pbe_ddec_charge
 _atom_site_pbe_ddec_spin_density
 _atom_site_pbe_ddec_sum_bond_order
 _atom_site_pbe_magmom
Zn  Zn0  1  0.68627194  0.88152364  0.46464702  1  1.27655  0  0.676581  0.867624  0  2.270998  0
Zn  Zn1  1  0.31371919  0.61847351  0.96464817  1  1.276871  0  0.676588  0.867665  0  2.27099  0
Zn  Zn2  1  0.31371694  0.11847509  0.53535356  1  1.276735  0  0.67656  0.867599  0  2.271125  0
Zn  Zn3  1  0.68626860  0.38152585  0.03535329  1  1.276568  0  0.676589  0.867594  0  2.270961  0
Zn  Zn4  1  0.08231072  0.31242189  0.05510018  1  1.296935  0  0.675183  0.880356  0  2.306664  0
Zn  Zn5  1  0.91767203  0.18757906  0.55510058  1  1.297147  0  0.675184  0.880383  0  2.306772  0
Zn  Zn6  1  0.91768042  0.68757991  0.94489817  1  1.296789  0  0.675157  0.880286  0  2.306776  0
Zn  Zn7  1  0.08232221  0.81242025  0.44489866  1  1.296882  0  0.675154  0.880325  0  2.306748  0
H  H8  1  0.00476685  0.22891570  0.26886720  1  0.105769  0  0.110615  0.126825  0  1.001103  0
H  H9  1  0.99523014  0.27108881  0.76886309  1  0.105852  0  0.110635  0.126856  0  1.001198  0
H  H10  1  0.99525266  0.77108590  0.73113782  1  0.105674  0  0.110631  0.126878  0  1.001172  0
H  H11  1  0.00476636  0.72891357  0.23113349  1  0.105695  0  0.110604  0.126793  0  1.001139  0
H  H12  1  0.97149748  0.08452019  0.30943608  1  0.103568  0  0.10376  0.107876  0  1.028284  0
H  H13  1  0.02849331  0.41548251  0.80943638  1  0.103442  0  0.103755  0.107945  0  1.028316  0
H  H14  1  0.02851056  0.91547779  0.69056671  1  0.103571  0  0.103793  0.10798  0  1.02824  0
H  H15  1  0.97149873  0.58451806  0.19056375  1  0.103531  0  0.103763  0.107909  0  1.028273  0
H  H16  1  0.67582772  0.29858973  0.40938139  1  0.116199  0  0.110045  0.1328  0  1.006911  0
H  H17  1  0.32416246  0.20141047  0.90937678  1  0.116348  0  0.110018  0.132778  0  1.007012  0
H  H18  1  0.32417367  0.70140767  0.59061829  1  0.116155  0  0.110037  0.132789  0  1.006902  0
H  H19  1  0.67583384  0.79859130  0.09062068  1  0.116227  0  0.110006  0.132757  0  1.007035  0
H  H20  1  0.98929444  0.37578844  0.41901956  1  0.111367  0  0.105307  0.127574  0  1.032371  0
H  H21  1  0.01070711  0.12421539  0.91901755  1  0.111362  0  0.105293  0.12755  0  1.032345  0
H  H22  1  0.01071514  0.62421447  0.58098280  1  0.111317  0  0.105341  0.127659  0  1.032407  0
H  H23  1  0.98929770  0.87578879  0.08097991  1  0.111379  0  0.105289  0.127515  0  1.032392  0
H  H24  1  0.06684179  0.51647832  0.46095468  1  0.114778  0  0.103502  0.106462  0  1.024693  0
H  H25  1  0.93316183  0.98352555  0.96095206  1  0.114881  0  0.103506  0.106472  0  1.02479  0
H  H26  1  0.93315768  0.48352528  0.53904856  1  0.114905  0  0.103457  0.106375  0  1.024773  0
H  H27  1  0.06683931  0.01647928  0.03904674  1  0.114828  0  0.103502  0.106522  0  1.024703  0
H  H28  1  0.85078198  0.62265788  0.30818730  1  0.091255  0  0.101835  0.105983  0  1.022412  0
H  H29  1  0.14921703  0.87734234  0.80818565  1  0.090951  0  0.10184  0.105999  0  1.022381  0
H  H30  1  0.14922238  0.37734073  0.69181105  1  0.09127  0  0.101858  0.106001  0  1.022465  0
H  H31  1  0.85077572  0.12265637  0.19181670  1  0.090892  0  0.101835  0.105998  0  1.022428  0
H  H32  1  0.78895314  0.48224040  0.26193433  1  0.07707  0  0.109741  0.128694  0  0.992114  0
H  H33  1  0.21104514  0.01775977  0.76193202  1  0.077008  0  0.109747  0.128758  0  0.992057  0
H  H34  1  0.21105728  0.51775693  0.73806491  1  0.077027  0  0.109733  0.128757  0  0.992034  0
H  H35  1  0.78896140  0.98223759  0.23806589  1  0.077088  0  0.109677  0.128633  0  0.992171  0
H  H36  1  0.38888277  0.58221679  0.13954063  1  0.121419  0  0.107244  0.121481  0  1.030197  0
H  H37  1  0.61112271  0.91778156  0.63954196  1  0.121437  0  0.10724  0.12142  0  1.030316  0
H  H38  1  0.61112359  0.41777995  0.86046083  1  0.121395  0  0.10724  0.121503  0  1.030163  0
H  H39  1  0.38887926  0.08221769  0.36045995  1  0.121403  0  0.107235  0.121483  0  1.030201  0
H  H40  1  0.30182498  0.47689801  0.06355036  1  0.140618  0  0.118806  0.097211  0  1.014131  0
H  H41  1  0.69817385  0.02310096  0.56355097  1  0.140642  0  0.118815  0.097197  0  1.014173  0
H  H42  1  0.69817422  0.52310064  0.93645066  1  0.140592  0  0.118815  0.09721  0  1.014219  0
H  H43  1  0.30182406  0.97689770  0.43645138  1  0.140583  0  0.118786  0.097177  0  1.014203  0
H  H44  1  0.06604497  0.31069935  0.18710007  1  0.159535  0  0.116036  0.089823  0  1.021987  0
H  H45  1  0.93395216  0.18930271  0.68710001  1  0.159538  0  0.116019  0.089829  0  1.02201  0
H  H46  1  0.93394540  0.68929999  0.81289828  1  0.159632  0  0.116031  0.089869  0  1.022003  0
H  H47  1  0.06604801  0.81069903  0.31289879  1  0.159549  0  0.116025  0.089839  0  1.021968  0
H  H48  1  0.15501850  0.40742055  0.27107883  1  0.082234  0  0.103616  0.108414  0  1.046835  0
H  H49  1  0.84498554  0.09257772  0.77107839  1  0.081856  0  0.103621  0.108422  0  1.046841  0
H  H50  1  0.84497882  0.59257626  0.72892086  1  0.08187  0  0.1036  0.108359  0  1.04684  0
H  H51  1  0.15501998  0.90742460  0.22892085  1  0.081865  0  0.103586  0.10837  0  1.046859  0
H  H52  1  0.28929469  0.53578282  0.30655155  1  0.060198  0  0.10107  0.097905  0  1.02863  0
H  H53  1  0.71070730  0.96421862  0.80655187  1  0.060178  0  0.101047  0.097893  0  1.028549  0
H  H54  1  0.71070360  0.46421708  0.69344814  1  0.060654  0  0.101041  0.097874  0  1.028625  0
H  H55  1  0.28929674  0.03578309  0.19345004  1  0.059969  0  0.10109  0.097943  0  1.028591  0
H  H56  1  0.44348618  0.66430097  0.21361037  1  0.113552  0  0.105902  0.108566  0  1.018656  0
H  H57  1  0.55651859  0.83569367  0.71361351  1  0.113646  0  0.105837  0.108481  0  1.018786  0
H  H58  1  0.55653042  0.33569137  0.78638843  1  0.11358  0  0.105846  0.108531  0  1.018777  0
H  H59  1  0.44348357  0.16430620  0.28638929  1  0.113517  0  0.105862  0.108478  0  1.018804  0
H  H60  1  0.59636857  0.78749466  0.24965067  1  0.088356  0  0.106158  0.111158  0  1.04982  0
H  H61  1  0.40363934  0.71250303  0.74965174  1  0.088395  0  0.10619  0.111196  0  1.049775  0
H  H62  1  0.40364274  0.21250143  0.75034902  1  0.088365  0  0.106181  0.111191  0  1.049793  0
H  H63  1  0.59637236  0.28749430  0.25034839  1  0.088393  0  0.106176  0.111165  0  1.049795  0
H  H64  1  0.71294638  0.87839069  0.33394986  1  0.174354  0  0.117498  0.09863  0  1.050563  0
H  H65  1  0.28705711  0.62160825  0.83395150  1  0.17401  0  0.117514  0.098633  0  1.050633  0
H  H66  1  0.28705392  0.12160733  0.66604938  1  0.174043  0  0.117508  0.098636  0  1.050615  0
H  H67  1  0.71295021  0.37839158  0.16604908  1  0.174303  0  0.117534  0.098664  0  1.050553  0
H  H68  1  0.46875454  0.71424043  0.45765782  1  0.111209  0  0.118169  0.090492  0  1.00775  0
H  H69  1  0.53124472  0.78575357  0.95766187  1  0.111112  0  0.118131  0.09046  0  1.007728  0
H  H70  1  0.53124208  0.28575824  0.54234053  1  0.111173  0  0.118165  0.09048  0  1.007768  0
H  H71  1  0.46874822  0.21424575  0.04234093  1  0.111097  0  0.11818  0.090545  0  1.007705  0
H  H72  1  0.35428048  0.61532417  0.38069995  1  0.112328  0  0.107582  0.116211  0  1.017177  0
H  H73  1  0.64572023  0.88467170  0.88070477  1  0.111344  0  0.107609  0.116234  0  1.017169  0
H  H74  1  0.64572291  0.38467136  0.61929929  1  0.112399  0  0.107605  0.116266  0  1.017164  0
H  H75  1  0.35427330  0.11532947  0.11929980  1  0.112269  0  0.107601  0.116318  0  1.017081  0
H  H76  1  0.95665543  0.88717031  0.52715146  1  0.58866  0  0.290809  0.374875  0  0.942965  0
H  H77  1  0.04333777  0.61283434  0.02715371  1  0.588324  0  0.290863  0.374965  0  0.942818  0
H  H78  1  0.04334016  0.11283332  0.47284733  1  0.58834  0  0.290858  0.374943  0  0.942863  0
H  H79  1  0.95664615  0.38716505  0.97284864  1  0.588424  0  0.29088  0.374936  0  0.942864  0
H  H80  1  0.62719533  0.55868033  0.46173793  1  0.080962  0  0.101017  0.099154  0  1.023259  0
H  H81  1  0.37280622  0.94132108  0.96173824  1  0.080988  0  0.101015  0.099142  0  1.023308  0
H  H82  1  0.37279421  0.44132458  0.53826175  1  0.081317  0  0.101016  0.099172  0  1.023244  0
H  H83  1  0.62719762  0.05868001  0.03826056  1  0.080984  0  0.101017  0.099155  0  1.02322  0
H  H84  1  0.75071723  0.68661472  0.50784907  1  0.097936  0  0.105456  0.11752  0  1.020208  0
H  H85  1  0.24928592  0.81338800  0.00784979  1  0.097766  0  0.105467  0.117535  0  1.020191  0
H  H86  1  0.24928629  0.31338946  0.49215239  1  0.097799  0  0.105452  0.117515  0  1.020221  0
H  H87  1  0.75071128  0.18661252  0.99214811  1  0.097706  0  0.105488  0.117486  0  1.02026  0
H  H88  1  0.80349584  0.77377576  0.59691660  1  0.131961  0  0.107374  0.081017  0  1.011507  0
H  H89  1  0.19650522  0.72622758  0.09691735  1  0.132042  0  0.107397  0.081073  0  1.011402  0
H  H90  1  0.19650214  0.22622723  0.40308531  1  0.131985  0  0.107388  0.081046  0  1.011415  0
H  H91  1  0.80348889  0.27377544  0.90308145  1  0.132032  0  0.107376  0.080999  0  1.011494  0
H  H92  1  0.51168495  0.59950826  0.70268973  1  0.080768  0  0.104198  0.069092  0  1.016307  0
H  H93  1  0.48831860  0.90049442  0.20269018  1  0.080799  0  0.104179  0.069078  0  1.016371  0
H  H94  1  0.48831741  0.40049222  0.29731084  1  0.08079  0  0.104176  0.069043  0  1.016318  0
H  H95  1  0.51167970  0.09950548  0.79730906  1  0.080719  0  0.104221  0.069108  0  1.016488  0
H  H96  1  0.44038326  0.50555585  0.61818783  1  0.077675  0  0.09936  0.104694  0  1.044151  0
H  H97  1  0.55962104  0.99444623  0.11818777  1  0.077735  0  0.099344  0.104669  0  1.044138  0
H  H98  1  0.55961839  0.49444650  0.38181141  1  0.077596  0  0.099339  0.104684  0  1.044136  0
H  H99  1  0.44037319  0.00555308  0.88181192  1  0.077976  0  0.099332  0.104705  0  1.044106  0
C  C100  1  0.84059511  0.27119213  0.33646893  1  0.367114  0  0.089159  0.261632  0  4.037915  0
C  C101  1  0.15940073  0.22881114  0.83646499  1  0.367364  0  0.089207  0.26173  0  4.037725  0
C  C102  1  0.15941351  0.72880769  0.66353387  1  0.366862  0  0.089216  0.26178  0  4.037878  0
C  C103  1  0.84059557  0.77119063  0.16353248  1  0.367187  0  0.0892  0.261763  0  4.03775  0
C  C104  1  0.92477632  0.21176842  0.30784804  1  -0.04725  0  -0.095312  -0.192807  0  3.989914  0
C  C105  1  0.07521449  0.28823427  0.80784423  1  -0.047618  0  -0.095328  -0.19282  0  3.989967  0
C  C106  1  0.07523410  0.78822891  0.69215609  1  -0.047285  0  -0.095259  -0.192742  0  3.989995  0
C  C107  1  0.92477814  0.71176815  0.19215234  1  -0.047208  0  -0.095309  -0.192793  0  3.98985  0
C  C108  1  0.90678927  0.13216845  0.33048495  1  -0.007852  0  -0.080515  -0.065355  0  3.978707  0
C  C109  1  0.09320167  0.36783548  0.83048337  1  -0.007938  0  -0.080607  -0.065593  0  3.978864  0
C  C110  1  0.09322153  0.86783012  0.66951741  1  -0.00769  0  -0.080661  -0.065758  0  3.978971  0
C  C111  1  0.90679353  0.63216692  0.16951499  1  -0.007913  0  -0.080552  -0.065493  0  3.978736  0
C  C112  1  0.80518209  0.11023758  0.38115159  1  -0.018698  0  -0.025992  -0.09274  0  3.98031  0
C  C113  1  0.19480712  0.38976264  0.88114989  1  -0.018762  0  -0.025938  -0.092715  0  3.980296  0
C  C114  1  0.19482355  0.88976103  0.61884943  1  -0.018623  0  -0.025928  -0.092524  0  3.980213  0
C  C115  1  0.80518770  0.61023853  0.11884891  1  -0.018596  0  -0.025962  -0.092632  0  3.980199  0
C  C116  1  0.72246071  0.17107751  0.40960224  1  -0.01475  0  -0.001112  -0.010607  0  3.944879  0
C  C117  1  0.27752966  0.32892331  0.90960219  1  -0.014764  0  -0.001141  -0.010629  0  3.944876  0
C  C118  1  0.27753294  0.82891995  0.59039700  1  -0.014815  0  -0.001172  -0.010696  0  3.944895  0
C  C119  1  0.72246426  0.67107910  0.09039661  1  -0.014782  0  -0.001117  -0.01064  0  3.944764  0
C  C120  1  0.74050927  0.25170343  0.38740358  1  0.009265  0  -0.093097  -0.216854  0  3.93146  0
C  C121  1  0.25948561  0.24829860  0.88740041  1  0.009331  0  -0.093049  -0.216792  0  3.93151  0
C  C122  1  0.25949012  0.74829585  0.61259610  1  0.009315  0  -0.093135  -0.216921  0  3.931497  0
C  C123  1  0.74051089  0.75170378  0.11259705  1  0.009243  0  -0.093075  -0.216876  0  3.931513  0
C  C124  1  0.78796827  0.02199038  0.40129323  1  1.567054  0  0.192532  0.545532  0  4.26214  0
C  C125  1  0.21201885  0.47800799  0.90129109  1  1.566614  0  0.1925  0.545564  0  4.262029  0
C  C126  1  0.21203480  0.97800824  0.59870824  1  1.567133  0  0.192606  0.545662  0  4.26202  0
C  C127  1  0.78797023  0.52199136  0.09870770  1  1.567289  0  0.192576  0.545436  0  4.26192  0
C  C128  1  0.61288436  0.15324826  0.46437047  1  1.587057  0  0.226613  0.614182  0  4.169847  0
C  C129  1  0.38710095  0.34675073  0.96436850  1  1.587333  0  0.226572  0.614119  0  4.170036  0
C  C130  1  0.38710562  0.84674985  0.53562922  1  1.587398  0  0.226621  0.614261  0  4.169628  0
C  C131  1  0.61289160  0.65324735  0.03562896  1  1.587381  0  0.226639  0.614284  0  4.16979  0
C  C132  1  0.88303011  0.42116969  0.33806458  1  0.394086  0  0.088372  0.259005  0  4.048854  0
C  C133  1  0.11697325  0.07883290  0.83806242  1  0.393859  0  0.088364  0.258951  0  4.048681  0
C  C134  1  0.11698127  0.57883073  0.66193688  1  0.39397  0  0.088309  0.259036  0  4.048676  0
C  C135  1  0.88302673  0.92116822  0.16193638  1  0.393924  0  0.08837  0.258965  0  4.0488  0
C  C136  1  0.96017201  0.42942695  0.39428611  1  -0.039544  0  -0.105416  -0.211942  0  3.982595  0
C  C137  1  0.03983349  0.07057623  0.89428449  1  -0.039324  0  -0.105418  -0.211893  0  3.982501  0
C  C138  1  0.03983886  0.57057595  0.60571447  1  -0.0393  0  -0.105407  -0.212024  0  3.982635  0
C  C139  1  0.96016707  0.92942674  0.10571386  1  -0.039448  0  -0.105398  -0.211843  0  3.982608  0
C  C140  1  0.00102784  0.50815558  0.41819217  1  -0.043041  0  -0.082518  -0.067823  0  3.979915  0
C  C141  1  0.99897677  0.99184581  0.91819080  1  -0.043303  0  -0.082465  -0.067821  0  3.979896  0
C  C142  1  0.99898394  0.49184607  0.58180885  1  -0.043335  0  -0.082426  -0.067604  0  3.979878  0
C  C143  1  0.00102121  0.00815718  0.08180844  1  -0.043133  0  -0.082537  -0.067921  0  3.979858  0
C  C144  1  0.96078503  0.57810217  0.38799287  1  -0.032017  0  -0.033475  -0.071629  0  4.024179  0
C  C145  1  0.03921496  0.92189988  0.88799183  1  -0.03196  0  -0.033543  -0.071667  0  4.024194  0
C  C146  1  0.03922139  0.42189891  0.61200592  1  -0.031968  0  -0.033531  -0.071787  0  4.024264  0
C  C147  1  0.96078064  0.07810374  0.11200786  1  -0.031936  0  -0.033442  -0.071691  0  4.024196  0
C  C148  1  0.88189982  0.56827930  0.33170067  1  -0.02937  0  -0.084012  -0.073943  0  3.983884  0
C  C149  1  0.11809970  0.93172339  0.83169864  1  -0.029039  0  -0.083983  -0.073892  0  3.9839  0
C  C150  1  0.11810731  0.43171992  0.66829768  1  -0.0294  0  -0.084019  -0.073915  0  3.984078  0
C  C151  1  0.88189937  0.06827898  0.16830016  1  -0.029062  0  -0.084017  -0.07393  0  3.98402  0
C  C152  1  0.84535380  0.49046230  0.30630094  1  -0.011082  0  -0.101764  -0.206645  0  3.996407  0
C  C153  1  0.15464398  0.00953787  0.80629915  1  -0.011016  0  -0.101771  -0.206751  0  3.99646  0
C  C154  1  0.15465365  0.50953382  0.69369919  1  -0.011038  0  -0.101759  -0.206767  0  3.996304  0
C  C155  1  0.84535470  0.99046327  0.19369920  1  -0.011013  0  -0.101715  -0.206587  0  3.996433  0
C  C156  1  0.00511234  0.66152522  0.41484533  1  1.521796  0  0.18326  0.539707  0  4.263357  0
C  C157  1  0.99488387  0.83847809  0.91484657  1  1.521995  0  0.18318  0.539608  0  4.263556  0
C  C158  1  0.99488377  0.33847593  0.58515391  1  1.521336  0  0.183222  0.539765  0  4.263328  0
C  C159  1  0.00510676  0.16152620  0.08515533  1  1.521443  0  0.183197  0.53973  0  4.263345  0
C  C160  1  0.27856649  0.50429959  0.21339310  1  0.010675  0  0.005974  0.139545  0  4.023163  0
C  C161  1  0.72143797  0.99569813  0.71339342  1  0.010879  0  0.005954  0.13956  0  4.023214  0
C  C162  1  0.72143761  0.49569408  0.78660792  1  0.010232  0  0.005983  0.139558  0  4.023178  0
C  C163  1  0.27856697  0.00430233  0.28660760  1  0.010624  0  0.006004  0.139677  0  4.023138  0
C  C164  1  0.31942933  0.52305711  0.15353572  1  -0.01134  0  -0.078958  -0.162155  0  3.88937  0
C  C165  1  0.68058057  0.97693935  0.65353654  1  -0.011578  0  -0.078861  -0.161944  0  3.889344  0
C  C166  1  0.68057425  0.47693904  0.84646529  1  -0.010782  0  -0.078902  -0.162076  0  3.889246  0
C  C167  1  0.31942727  0.02305800  0.34646448  1  -0.011345  0  -0.078932  -0.162194  0  3.889384  0
C  C168  1  0.26942910  0.46461136  0.11012382  1  0.448092  0  0.048987  0.106936  0  3.917932  0
C  C169  1  0.73057160  0.03538697  0.61012440  1  0.44808  0  0.048946  0.106861  0  3.917765  0
C  C170  1  0.73056714  0.53538608  0.88987675  1  0.448043  0  0.048986  0.106932  0  3.91787  0
C  C171  1  0.26942909  0.96461229  0.38987706  1  0.448072  0  0.049004  0.106994  0  3.917918  0
C  C172  1  0.14013064  0.37124925  0.17960804  1  0.445767  0  0.050229  0.108065  0  3.93681  0
C  C173  1  0.85987115  0.12875091  0.67960848  1  0.445792  0  0.050293  0.108088  0  3.936885  0
C  C174  1  0.85986212  0.62874945  0.82039121  1  0.445827  0  0.050238  0.108034  0  3.936793  0
C  C175  1  0.14013289  0.87125080  0.32039165  1  0.445871  0  0.050296  0.108092  0  3.93676  0
C  C176  1  0.18818529  0.42578441  0.22564054  1  -0.050355  0  -0.081928  -0.171904  0  3.935166  0
C  C177  1  0.81181153  0.07421393  0.72564103  1  -0.050044  0  -0.082005  -0.172008  0  3.935288  0
C  C178  1  0.81181037  0.57421118  0.77435870  1  -0.050247  0  -0.081937  -0.171883  0  3.935282  0
C  C179  1  0.18818715  0.92578720  0.27435910  1  -0.050058  0  -0.081932  -0.171917  0  3.935199  0
C  C180  1  0.32567997  0.56071645  0.26254757  1  0.091666  0  -0.078479  -0.111099  0  3.949811  0
C  C181  1  0.67432155  0.93928191  0.76254882  1  0.091643  0  -0.078461  -0.11118  0  3.949835  0
C  C182  1  0.67432580  0.43927845  0.73745167  1  0.091332  0  -0.078535  -0.111274  0  3.949937  0
C  C183  1  0.32568010  0.06072043  0.23745264  1  0.092057  0  -0.078565  -0.111297  0  3.949798  0
C  C184  1  0.40998523  0.63825649  0.25751167  1  -0.182064  0  -0.07592  -0.111304  0  3.932642  0
C  C185  1  0.59001893  0.86174185  0.75751389  1  -0.181972  0  -0.07591  -0.111182  0  3.932566  0
C  C186  1  0.59002938  0.36173773  0.74248801  1  -0.179859  0  -0.075799  -0.111102  0  3.93249  0
C  C187  1  0.40998292  0.13826111  0.24248935  1  -0.179729  0  -0.07587  -0.111151  0  3.932485  0
C  C188  1  0.46667251  0.69229232  0.30708616  1  -0.028426  0  0.012117  0.156072  0  4.008192  0
C  C189  1  0.53333579  0.80770041  0.80709066  1  -0.02843  0  0.012107  0.155961  0  4.00807  0
C  C190  1  0.53334241  0.30769879  0.69291086  1  -0.030655  0  0.012103  0.156  0  4.008033  0
C  C191  1  0.46666322  0.19229763  0.19291170  1  -0.030614  0  0.012132  0.156097  0  4.007961  0
C  C192  1  0.56646161  0.76870040  0.29525474  1  0.026498  0  -0.080813  -0.170307  0  3.913912  0
C  C193  1  0.43354450  0.73129730  0.79525667  1  0.026689  0  -0.08087  -0.170306  0  3.913876  0
C  C194  1  0.43354732  0.23129633  0.70474406  1  0.026627  0  -0.080897  -0.170434  0  3.913981  0
C  C195  1  0.56646024  0.26870255  0.20474346  1  0.026468  0  -0.080943  -0.170451  0  3.914085  0
C  C196  1  0.63014567  0.82001819  0.34150413  1  0.41865  0  0.048518  0.104242  0  3.914814  0
C  C197  1  0.36985419  0.67997768  0.84150702  1  0.41896  0  0.048464  0.104221  0  3.914901  0
C  C198  1  0.36985057  0.17997925  0.65849422  1  0.418908  0  0.048484  0.104289  0  3.914887  0
C  C199  1  0.63014591  0.32001973  0.15849489  1  0.418605  0  0.048472  0.104253  0  3.915046  0
C  C200  1  0.49783811  0.72780991  0.41111636  1  0.465489  0  0.047075  0.100095  0  3.951528  0
C  C201  1  0.50216832  0.77218467  0.91112044  1  0.466521  0  0.047182  0.100266  0  3.951346  0
C  C202  1  0.50216238  0.27218874  0.58888199  1  0.465474  0  0.047177  0.100224  0  3.951534  0
C  C203  1  0.49783107  0.22781460  0.08888236  1  0.46666  0  0.047151  0.100178  0  3.951501  0
C  C204  1  0.43286972  0.67263350  0.36732133  1  -0.031812  0  -0.080369  -0.169805  0  3.905881  0
C  C205  1  0.56713719  0.82736108  0.86732357  1  -0.031899  0  -0.080402  -0.169855  0  3.905953  0
C  C206  1  0.56713624  0.32736201  0.63267835  1  -0.031931  0  -0.08046  -0.169906  0  3.906052  0
C  C207  1  0.43286130  0.17263943  0.13267878  1  -0.032829  0  -0.080437  -0.16998  0  3.905892  0
C  C208  1  0.55493417  0.53576076  0.50143990  1  -0.007865  0  -0.080655  -0.111343  0  3.938992  0
C  C209  1  0.44506409  0.96424262  0.00143998  1  -0.100639  0  -0.080614  -0.111365  0  3.939172  0
C  C210  1  0.44505614  0.46424662  0.49855934  1  -0.100822  0  -0.080614  -0.111357  0  3.938991  0
C  C211  1  0.55494085  0.03575784  0.99855837  1  -0.007847  0  -0.080611  -0.111282  0  3.93899  0
C  C212  1  0.58839636  0.58744369  0.55409059  1  0.006479  0  7.8e-05  0.137176  0  4.030025  0
C  C213  1  0.41160498  0.91255904  0.05409069  1  0.006799  0  6.7e-05  0.1372  0  4.029999  0
C  C214  1  0.41160845  0.41256049  0.44590954  1  0.006362  0  7.5e-05  0.137211  0  4.029887  0
C  C215  1  0.58839261  0.08744272  0.94590855  1  0.006828  0  7.9e-05  0.137158  0  4.029948  0
C  C216  1  0.69204081  0.66472776  0.54996540  1  -0.080885  0  -0.085618  -0.181161  0  3.914755  0
C  C217  1  0.30796483  0.83527618  0.04996605  1  -0.081011  0  -0.085671  -0.18118  0  3.91472  0
C  C218  1  0.30796490  0.33527518  0.45003518  1  -0.080988  0  -0.085628  -0.181148  0  3.914718  0
C  C219  1  0.69203405  0.16472557  0.95003274  1  -0.08085  0  -0.085673  -0.18109  0  3.914817  0
C  C220  1  0.72354669  0.71381408  0.60055330  1  0.463195  0  0.040561  0.101966  0  3.994809  0
C  C221  1  0.27646168  0.78618797  0.10055353  1  0.463639  0  0.040501  0.10185  0  3.994744  0
C  C222  1  0.27646232  0.28618697  0.39944861  1  0.463522  0  0.04051  0.101862  0  3.994839  0
C  C223  1  0.72353346  0.21381010  0.89944349  1  0.463658  0  0.040598  0.101927  0  3.994786  0
C  C224  1  0.56195360  0.61738541  0.65852529  1  0.502306  0  0.028974  0.072828  0  4.049837  0
C  C225  1  0.43804548  0.88261793  0.15852624  1  0.502238  0  0.029004  0.072856  0  4.049752  0
C  C226  1  0.43804766  0.38261570  0.34147573  1  0.502259  0  0.029031  0.072916  0  4.049742  0
C  C227  1  0.56194508  0.11738202  0.84147256  1  0.502084  0  0.02889  0.072697  0  4.049812  0
C  C228  1  0.52241082  0.56419872  0.61083579  1  -0.105088  0  -0.093419  -0.193182  0  3.956682  0
C  C229  1  0.47759414  0.93580521  0.11083671  1  -0.105559  0  -0.093458  -0.193225  0  3.956525  0
C  C230  1  0.47759509  0.43580483  0.38916478  1  -0.105032  0  -0.093444  -0.193238  0  3.956653  0
C  C231  1  0.52240177  0.06419532  0.88916342  1  -0.105715  0  -0.093393  -0.19316  0  3.956565  0
N  N232  1  0.18014587  0.39000749  0.12270017  1  -1.243264  0  -0.330289  -0.236446  0  3.569218  0
N  N233  1  0.81985655  0.10999268  0.62270066  1  -1.24317  0  -0.330265  -0.23637  0  3.569153  0
N  N234  1  0.81985243  0.60999241  0.87729951  1  -1.243162  0  -0.330302  -0.23644  0  3.56912  0
N  N235  1  0.18014729  0.89000841  0.37730035  1  -1.2432  0  -0.3303  -0.236445  0  3.569225  0
N  N236  1  0.59627433  0.80054414  0.39896847  1  -1.248796  0  -0.327929  -0.239441  0  3.565104  0
N  N237  1  0.40372746  0.69945172  0.89897221  1  -1.2492  0  -0.327862  -0.239457  0  3.564984  0
N  N238  1  0.40372338  0.19945391  0.60102899  1  -1.248973  0  -0.327871  -0.239408  0  3.565037  0
N  N239  1  0.59626826  0.30054820  0.10103059  1  -1.248907  0  -0.327851  -0.239425  0  3.56517  0
N  N240  1  0.66086452  0.69140344  0.65464323  1  -1.199625  0  -0.33258  -0.2914  0  3.326485  0
N  N241  1  0.33913699  0.80859927  0.15464428  1  -1.199678  0  -0.332508  -0.291318  0  3.326361  0
N  N242  1  0.33913932  0.30859766  0.34535823  1  -1.199591  0  -0.332568  -0.291369  0  3.326396  0
N  N243  1  0.66085357  0.19140068  0.84535541  1  -1.19968  0  -0.332569  -0.291315  0  3.326246  0
O  O244  1  0.86615844  0.97229389  0.37285922  1  -1.187552  0  -0.31562  -0.552578  0  2.236641  0
O  O245  1  0.13383360  0.52770698  0.87285746  1  -1.187251  0  -0.315603  -0.552548  0  2.236562  0
O  O246  1  0.13384631  0.02770596  0.62714269  1  -1.187684  0  -0.315652  -0.552652  0  2.23665  0
O  O247  1  0.86616677  0.47229537  0.12714001  1  -1.187861  0  -0.315621  -0.552495  0  2.236611  0
O  O248  1  0.69094963  0.00177097  0.44756183  1  -1.159893  0  -0.324623  -0.548722  0  2.308345  0
O  O249  1  0.30902239  0.49822627  0.94756269  1  -1.159664  0  -0.32465  -0.548783  0  2.308024  0
O  O250  1  0.30904460  0.99822834  0.55243875  1  -1.159833  0  -0.324636  -0.548765  0  2.308228  0
O  O251  1  0.69095102  0.50177258  0.05243922  1  -1.159839  0  -0.324664  -0.548712  0  2.308093  0
O  O252  1  0.44827655  0.13771304  0.45759817  1  -1.140045  0  -0.302547  -0.522866  0  2.302239  0
O  O253  1  0.55171212  0.36228408  0.95759688  1  -1.140193  0  -0.302543  -0.52284  0  2.302267  0
O  O254  1  0.55171452  0.86228444  0.54240196  1  -1.140278  0  -0.302596  -0.522904  0  2.302185  0
O  O255  1  0.44828302  0.63771399  0.04240236  1  -1.140325  0  -0.302598  -0.522945  0  2.302228  0
O  O256  1  0.68330899  0.15983459  0.51513479  1  -1.187888  0  -0.306601  -0.569112  0  2.477003  0
O  O257  1  0.31667381  0.34016514  0.01513276  1  -1.187858  0  -0.306533  -0.569041  0  2.476912  0
O  O258  1  0.31668641  0.84016842  0.48486401  1  -1.187931  0  -0.306521  -0.569095  0  2.476765  0
O  O259  1  0.68331855  0.65983233  0.98486559  1  -1.187941  0  -0.306566  -0.569084  0  2.476846  0
O  O260  1  0.08902333  0.67114944  0.46340418  1  -1.181838  0  -0.329842  -0.557049  0  2.139313  0
O  O261  1  0.91097104  0.82885388  0.96340197  1  -1.181848  0  -0.329761  -0.556917  0  2.139473  0
O  O262  1  0.91096304  0.32885364  0.53659684  1  -1.18126  0  -0.329833  -0.557064  0  2.139273  0
O  O263  1  0.08902068  0.17114978  0.03659727  1  -1.181397  0  -0.329773  -0.557003  0  2.139376  0
O  O264  1  0.95736932  0.72364029  0.38691817  1  -1.179309  0  -0.329604  -0.561753  0  2.259052  0
O  O265  1  0.04263196  0.77636175  0.88691885  1  -1.179417  0  -0.329599  -0.561778  0  2.259044  0
O  O266  1  0.04262549  0.27636087  0.61307840  1  -1.179635  0  -0.329591  -0.561784  0  2.259131  0
O  O267  1  0.95736382  0.22364249  0.11308217  1  -1.179504  0  -0.329615  -0.561793  0  2.259024  0
O  O268  1  0.84930527  0.34705152  0.30820725  1  -1.1057  0  -0.146485  -0.217051  0  2.610539  0
O  O269  1  0.15069366  0.15295235  0.80820418  1  -1.10567  0  -0.146479  -0.217018  0  2.610275  0
O  O270  1  0.15070593  0.65294829  0.69179510  1  -1.105448  0  -0.146494  -0.217159  0  2.610554  0
O  O271  1  0.84930799  0.84704999  0.19179417  1  -1.105659  0  -0.146484  -0.217062  0  2.610447  0
O  O272  1  0.90641280  0.85073382  0.49577895  1  -1.218859  0  -0.583803  -0.828388  0  2.193391  0
O  O273  1  0.09358656  0.64927007  0.99578218  1  -1.218513  0  -0.583864  -0.828505  0  2.193267  0
O  O274  1  0.09358369  0.14926856  0.50421985  1  -1.218578  0  -0.58385  -0.828471  0  2.193341  0
O  O275  1  0.90639820  0.35072375  0.00421662  1  -1.218637  0  -0.583902  -0.828456  0  2.193299  0
