# generated using pymatgen
data_ZnH8(CO)6
_symmetry_space_group_name_H-M   'P 1'
_cell_length_a   5.40670477
_cell_length_b   8.61334055
_cell_length_c   10.12708681
_cell_angle_alpha   109.19236366
_cell_angle_beta   90.00180400
_cell_angle_gamma   108.27164499
_symmetry_Int_Tables_number   1
_chemical_formula_structural   ZnH8(CO)6
_chemical_formula_sum   'Zn2 H16 C12 O12'
_cell_volume   420.14279382
_cell_formula_units_Z   2
loop_
 _symmetry_equiv_pos_site_id
 _symmetry_equiv_pos_as_xyz
  1  'x, y, z'
loop_
 _atom_site_type_symbol
 _atom_site_label
 _atom_site_symmetry_multiplicity
 _atom_site_fract_x
 _atom_site_fract_y
 _atom_site_fract_z
 _atom_site_occupancy
 _atom_site_pbe_bader_spin_density
 _atom_site_pbe_cm5_charge
 _atom_site_pbe_ddec_charge
 _atom_site_pbe_ddec_spin_density
 _atom_site_pbe_ddec_sum_bond_order
 _atom_site_pbe_magmom
Zn  Zn0  1  0.04505179  0.99996344  0.75005099  1  0  0.687248  0.98552  0  2.182119  0
Zn  Zn1  1  0.95496909  0.00002311  0.24994419  1  0  0.687206  0.985507  0  2.182113  0
H  H2  1  0.36755551  0.63614236  0.41462302  1  0  0.10849  0.127157  0  1.021352  0
H  H3  1  0.73091779  0.36336305  0.08540535  1  0  0.108544  0.126853  0  1.020727  0
H  H4  1  0.63251565  0.36385229  0.58537558  1  0  0.108489  0.127096  0  1.021493  0
H  H5  1  0.26912268  0.63665902  0.91460706  1  0  0.108532  0.126887  0  1.020764  0
H  H6  1  0.08657558  0.55111873  0.66004602  1  0  0.110392  0.105884  0  0.991632  0
H  H7  1  0.53613775  0.44921675  0.84010474  1  0  0.110393  0.105955  0  0.991836  0
H  H8  1  0.91334285  0.44885527  0.33997086  1  0  0.110276  0.10572  0  0.991924  0
H  H9  1  0.46396368  0.55082368  0.15991988  1  0  0.1104  0.105948  0  0.991844  0
H  H10  1  0.16231339  0.89019318  0.94851185  1  0  0.296939  0.401127  0  0.930682  0
H  H11  1  0.27193480  0.11008850  0.55148514  1  0  0.296746  0.401078  0  0.930946  0
H  H12  1  0.83766814  0.10981827  0.05148972  1  0  0.296928  0.401099  0  0.930728  0
H  H13  1  0.72803078  0.88989102  0.44851279  1  0  0.296704  0.401038  0  0.930998  0
H  H14  1  0.36224375  0.85727061  0.83019084  1  0  0.293675  0.392126  0  0.952227  0
H  H15  1  0.50446588  0.14266365  0.66964196  1  0  0.293774  0.392745  0  0.951256  0
H  H16  1  0.63774378  0.14273433  0.16979463  1  0  0.293683  0.392173  0  0.952144  0
H  H17  1  0.49550703  0.85732315  0.33036920  1  0  0.293879  0.39283  0  0.951128  0
C  C18  1  0.57115935  0.74704718  0.62974969  1  0  0.206545  0.607111  0  4.208502  0
C  C19  1  0.82392557  0.25278314  0.87026027  1  0  0.205417  0.605473  0  4.208094  0
C  C20  1  0.42881882  0.25297973  0.37021773  1  0  0.206646  0.607228  0  4.208423  0
C  C21  1  0.17609745  0.74722619  0.12975088  1  0  0.205438  0.605576  0  4.208411  0
C  C22  1  0.34503289  0.63874766  0.52217881  1  0  -0.08935  -0.232586  0  3.884418  0
C  C23  1  0.70628998  0.36120484  0.97791907  1  0  -0.089421  -0.231118  0  3.880125  0
C  C24  1  0.65491729  0.36128247  0.47782206  1  0  -0.089386  -0.232456  0  3.884227  0
C  C25  1  0.29376259  0.63883402  0.02209630  1  0  -0.089366  -0.231126  0  3.880008  0
C  C26  1  0.11108011  0.54967757  0.55251734  1  0  -0.06338  -0.003481  0  3.95483  0
C  C27  1  0.56161643  0.45041899  0.94757152  1  0  -0.063161  -0.003874  0  3.957457  0
C  C28  1  0.88893724  0.45026120  0.44749132  1  0  -0.063431  -0.003653  0  3.955128  0
C  C29  1  0.43842225  0.54960319  0.05244888  1  0  -0.063188  -0.003786  0  3.95715  0
O  O30  1  0.77846927  0.83515490  0.58698662  1  0  -0.311006  -0.559618  0  2.331728  0
O  O31  1  0.94308889  0.16461043  0.91306604  1  0  -0.310313  -0.558946  0  2.333338  0
O  O32  1  0.22153306  0.16483895  0.41299987  1  0  -0.311029  -0.559726  0  2.331716  0
O  O33  1  0.05688670  0.83537801  0.08692549  1  0  -0.310406  -0.559071  0  2.332894  0
O  O34  1  0.56536640  0.75766228  0.75696626  1  0  -0.316842  -0.563788  0  2.181529  0
O  O35  1  0.80732722  0.24206696  0.74301381  1  0  -0.316659  -0.563856  0  2.180244  0
O  O36  1  0.43459061  0.24230381  0.24300437  1  0  -0.316846  -0.563778  0  2.181807  0
O  O37  1  0.19263545  0.75791785  0.25697109  1  0  -0.31664  -0.563873  0  2.180994  0
O  O38  1  0.24312979  0.92575431  0.86936049  1  0  -0.578919  -0.766465  0  2.159852  0
O  O39  1  0.31690806  0.07437473  0.63057419  1  0  -0.578992  -0.767153  0  2.159296  0
O  O40  1  0.75686425  0.07424517  0.13063697  1  0  -0.578943  -0.766538  0  2.159685  0
O  O41  1  0.68307167  0.92561829  0.36942213  1  0  -0.579068  -0.767239  0  2.159144  0
