# generated using pymatgen
data_ZnH22C14(NO5)2
_symmetry_space_group_name_H-M   'P 1'
_cell_length_a   9.18098933
_cell_length_b   9.71729222
_cell_length_c   11.55585882
_cell_angle_alpha   78.12536460
_cell_angle_beta   74.78965207
_cell_angle_gamma   71.75541004
_symmetry_Int_Tables_number   1
_chemical_formula_structural   ZnH22C14(NO5)2
_chemical_formula_sum   'Zn2 H44 C28 N4 O20'
_cell_volume   936.18528036
_cell_formula_units_Z   2
loop_
 _symmetry_equiv_pos_site_id
 _symmetry_equiv_pos_as_xyz
  1  'x, y, z'
loop_
 _atom_site_type_symbol
 _atom_site_label
 _atom_site_symmetry_multiplicity
 _atom_site_fract_x
 _atom_site_fract_y
 _atom_site_fract_z
 _atom_site_occupancy
 _atom_site_hle17_bader_spin_density
 _atom_site_hle17_ddec_charge
 _atom_site_hle17_ddec_spin_density
 _atom_site_hle17_ddec_sum_bond_order
 _atom_site_hle17_magmom
 _atom_site_hse06_10hf_bader_spin_density
 _atom_site_hse06_10hf_ddec_charge
 _atom_site_hse06_10hf_ddec_spin_density
 _atom_site_hse06_10hf_ddec_sum_bond_order
 _atom_site_hse06_10hf_magmom
 _atom_site_hse06_bader_spin_density
 _atom_site_hse06_ddec_charge
 _atom_site_hse06_ddec_spin_density
 _atom_site_hse06_ddec_sum_bond_order
 _atom_site_hse06_magmom
 _atom_site_pbe_bader_spin_density
 _atom_site_pbe_cm5_charge
 _atom_site_pbe_ddec_charge
 _atom_site_pbe_ddec_spin_density
 _atom_site_pbe_ddec_sum_bond_order
 _atom_site_pbe_magmom
Zn  Zn0  1  0.50000082  0.49999714  0.50000215  1  0  1.177864  0  1.678532  0  0  1.01916  0  2.117555  0  0  1.065593  0  2.059225  0  0  0.653365  0.986092  0  2.158091  0
Zn  Zn1  1  0.50000001  0.99999793  0.49999967  1  0  1.203561  0  1.670925  0  0  1.045713  0  2.109599  0  0  1.090775  0  2.051925  0  0  0.662314  1.013741  0  2.149602  0
H  H2  1  0.98709661  0.63847524  0.40571720  1  0  0.106242  0  0.940621  0  0  0.119875  0  1.003117  0  0  0.122183  0  1.002462  0  0  0.100104  0.118285  0  1.003575  0
H  H3  1  0.01289930  0.36152154  0.59428029  1  0  0.106258  0  0.940655  0  0  0.119872  0  1.00316  0  0  0.122178  0  1.002507  0  0  0.100103  0.118283  0  1.003617  0
H  H4  1  0.91598064  0.67240024  0.27235912  1  0  0.125504  0  0.929584  0  0  0.137351  0  0.990391  0  0  0.140649  0  0.988469  0  0  0.10362  0.134953  0  0.992164  0
H  H5  1  0.08401987  0.32759211  0.72763797  1  0  0.125471  0  0.929603  0  0  0.137304  0  0.990419  0  0  0.140602  0  0.988497  0  0  0.103617  0.134907  0  0.992193  0
H  H6  1  0.17246239  0.39875425  0.34492876  1  0  0.055419  0  0.958689  0  0  0.069315  0  1.029397  0  0  0.070196  0  1.0284  0  0  0.102831  0.068604  0  1.030134  0
H  H7  1  0.82753756  0.60124125  0.65507228  1  0  0.055419  0  0.958699  0  0  0.069317  0  1.029385  0  0  0.070197  0  1.028393  0  0  0.102856  0.068611  0  1.030126  0
H  H8  1  0.10140794  0.43421888  0.21024371  1  0  0.070195  0  0.913194  0  0  0.087169  0  0.972244  0  0  0.087752  0  0.971908  0  0  0.108346  0.086634  0  0.972671  0
H  H9  1  0.89859324  0.56577558  0.78975460  1  0  0.070187  0  0.913127  0  0  0.087146  0  0.97219  0  0  0.087731  0  0.971851  0  0  0.108333  0.086615  0  0.972621  0
H  H10  1  0.32357088  0.55881251  0.26224435  1  0  0.295238  0  0.901883  0  0  0.279845  0  0.963948  0  0  0.286339  0  0.959781  0  0  0.310042  0.2751  0  0.967186  0
H  H11  1  0.67642473  0.44118733  0.73776052  1  0  0.295249  0  0.901872  0  0  0.279852  0  0.963946  0  0  0.286347  0  0.959776  0  0  0.31005  0.275109  0  0.967182  0
H  H12  1  0.37920833  0.65266789  0.87047640  1  0  0.08981  0  0.985895  0  0  0.096843  0  1.053979  0  0  0.100543  0  1.051505  0  0  0.1003  0.094166  0  1.055926  0
H  H13  1  0.62078536  0.34733855  0.12952611  1  0  0.08978  0  0.985972  0  0  0.096848  0  1.054027  0  0  0.100546  0  1.051561  0  0  0.100314  0.094176  0  1.055967  0
H  H14  1  0.59013649  0.77087571  0.76109104  1  0  0.104868  0  0.969163  0  0  0.110666  0  1.03834  0  0  0.114648  0  1.035425  0  0  0.105248  0.107917  0  1.040302  0
H  H15  1  0.40985793  0.22912849  0.23891339  1  0  0.104893  0  0.969207  0  0  0.110695  0  1.038376  0  0  0.114631  0  1.035512  0  0  0.105261  0.107944  0  1.040338  0
H  H16  1  0.62952408  0.85532809  0.10269689  1  0  0.096425  0  0.969294  0  0  0.105701  0  1.033787  0  0  0.109257  0  1.031624  0  0  0.104036  0.103005  0  1.035911  0
H  H17  1  0.37047780  0.14466945  0.89730680  1  0  0.096418  0  0.969184  0  0  0.105682  0  1.033717  0  0  0.109242  0  1.031548  0  0  0.104033  0.102985  0  1.035841  0
H  H18  1  0.41906025  0.74022801  0.20882723  1  0  0.100747  0  0.988805  0  0  0.109364  0  1.054618  0  0  0.113127  0  1.052064  0  0  0.102582  0.106744  0  1.05646  0
H  H19  1  0.58093787  0.25977504  0.79117648  1  0  0.10075  0  0.988805  0  0  0.109391  0  1.054581  0  0  0.113155  0  1.052023  0  0  0.102599  0.106767  0  1.056425  0
H  H20  1  0.84269883  0.87384285  0.99853351  1  0  0.298309  0  0.879754  0  0  0.285856  0  0.934971  0  0  0.292748  0  0.930229  0  0  0.323269  0.280577  0  0.939095  0
H  H21  1  0.15730419  0.12617435  0.00146315  1  0  0.298342  0  0.879709  0  0  0.285894  0  0.934908  0  0  0.292783  0  0.930168  0  0  0.32326  0.280614  0  0.939032  0
H  H22  1  0.98712004  0.04686090  0.91110044  1  0  0.062414  0  0.939443  0  0  0.077966  0  1.003928  0  0  0.078645  0  1.003409  0  0  0.107081  0.077421  0  1.004262  0
H  H23  1  0.01287546  0.95315906  0.08888116  1  0  0.062379  0  0.939393  0  0  0.078002  0  1.00385  0  0  0.078665  0  1.003343  0  0  0.107159  0.077497  0  1.004136  0
H  H24  1  0.90992826  0.08096170  0.77965515  1  0  0.072535  0  0.914794  0  0  0.08949  0  0.97419  0  0  0.090272  0  0.973534  0  0  0.110746  0.089034  0  0.974605  0
H  H25  1  0.09006666  0.91904411  0.22032982  1  0  0.072407  0  0.914881  0  0  0.08938  0  0.974317  0  0  0.090158  0  0.973652  0  0  0.110665  0.088922  0  0.974739  0
H  H26  1  0.15128762  0.79888214  0.85446361  1  0  0.118869  0  0.957606  0  0  0.129106  0  1.025732  0  0  0.132137  0  1.023957  0  0  0.10232  0.127041  0  1.026571  0
H  H27  1  0.84870490  0.20112767  0.14553516  1  0  0.118876  0  0.957636  0  0  0.129135  0  1.025706  0  0  0.132168  0  1.023937  0  0  0.102346  0.127068  0  1.026548  0
H  H28  1  0.07986027  0.83864392  0.71932116  1  0  0.121602  0  0.929956  0  0  0.133614  0  0.989479  0  0  0.136853  0  0.98745  0  0  0.101107  0.130924  0  0.991574  0
H  H29  1  0.92014475  0.16136467  0.28067123  1  0  0.121584  0  0.929912  0  0  0.133559  0  0.98947  0  0  0.136831  0  0.987404  0  0  0.101091  0.13087  0  0.99156  0
H  H30  1  0.74066038  0.31020093  0.52782874  1  0  0.41716  0  0.888404  0  0  0.384178  0  0.954963  0  0  0.396571  0  0.936936  0  0  0.288841  0.375338  0  0.967822  0
H  H31  1  0.25934020  0.68979571  0.47216936  1  0  0.417121  0  0.88845  0  0  0.384143  0  0.955007  0  0  0.396534  0  0.936983  0  0  0.288825  0.375303  0  0.967867  0
H  H32  1  0.59939306  0.23208452  0.60148189  1  0  0.436305  0  0.863618  0  0  0.406075  0  0.924105  0  0  0.41727  0  0.907954  0  0  0.2923  0.398044  0  0.935661  0
H  H33  1  0.40060849  0.76791314  0.39851753  1  0  0.436354  0  0.863553  0  0  0.40613  0  0.92403  0  0  0.417324  0  0.907879  0  0  0.292333  0.398096  0  0.935589  0
H  H34  1  0.61024674  0.28307064  0.35358253  1  0  0.429292  0  0.873276  0  0  0.397391  0  0.938404  0  0  0.408264  0  0.922944  0  0  0.294125  0.389607  0  0.94948  0
H  H35  1  0.38975486  0.71690929  0.64643197  1  0  0.42929  0  0.873281  0  0  0.397346  0  0.938477  0  0  0.408217  0  0.923019  0  0  0.294053  0.389562  0  0.949552  0
H  H36  1  0.67090280  0.42082069  0.29523072  1  0  0.420314  0  0.82173  0  0  0.403797  0  0.873709  0  0  0.411269  0  0.865896  0  0  0.322732  0.39846  0  0.879361  0
H  H37  1  0.32908901  0.57916401  0.70477675  1  0  0.420284  0  0.821873  0  0  0.403792  0  0.873786  0  0  0.411259  0  0.865984  0  0  0.322744  0.398456  0  0.879439  0
H  H38  1  0.21834514  0.17700130  0.46158201  1  0  0.439486  0  0.798994  0  0  0.420651  0  0.853659  0  0  0.428993  0  0.844131  0  0  0.329787  0.414494  0  0.860886  0
H  H39  1  0.78165381  0.82299653  0.53841369  1  0  0.439508  0  0.798995  0  0  0.420681  0  0.853646  0  0  0.429023  0  0.844118  0  0  0.329798  0.414524  0  0.860872  0
H  H40  1  0.30122882  0.27322094  0.50918095  1  0  0.433707  0  0.871445  0  0  0.399222  0  0.940525  0  0  0.410575  0  0.924349  0  0  0.292804  0.39105  0  0.952132  0
H  H41  1  0.69876979  0.72677465  0.49081781  1  0  0.433668  0  0.871512  0  0  0.39923  0  0.94052  0  0  0.410583  0  0.924343  0  0  0.292829  0.391059  0  0.952125  0
H  H42  1  0.39230061  0.97928855  0.31479513  1  0  0.423798  0  0.887651  0  0  0.389256  0  0.957346  0  0  0.40051  0  0.941413  0  0  0.292852  0.381556  0  0.968146  0
H  H43  1  0.60770551  0.02071236  0.68520001  1  0  0.423859  0  0.887562  0  0  0.389333  0  0.957241  0  0  0.400578  0  0.941319  0  0  0.292862  0.381641  0  0.968033  0
H  H44  1  0.58317773  0.90780811  0.30494528  1  0  0.414154  0  0.897349  0  0  0.378047  0  0.97255  0  0  0.39016  0  0.955347  0  0  0.28716  0.369518  0  0.984638  0
H  H45  1  0.41682871  0.09218836  0.69505398  1  0  0.414096  0  0.897415  0  0  0.378005  0  0.972608  0  0  0.390117  0  0.955408  0  0  0.287128  0.369477  0  0.984697  0
C  C46  1  0.84586716  0.50219617  0.40402222  1  0  0.699237  0  3.827523  0  0  0.652026  0  4.126438  0  0  0.684399  0  4.121242  0  0  0.212516  0.630171  0  4.128956  0
C  C47  1  0.15413138  0.49779945  0.59597569  1  0  0.699261  0  3.827607  0  0  0.651983  0  4.126582  0  0  0.684351  0  4.121389  0  0  0.21252  0.630128  0  4.129101  0
C  C48  1  0.96680425  0.58423260  0.33875727  1  0  -0.308562  0  3.668641  0  0  -0.344948  0  3.920846  0  0  -0.352474  0  3.929116  0  0  -0.169848  -0.339634  0  3.91482  0
C  C49  1  0.03319400  0.41576411  0.66124052  1  0  -0.30859  0  3.668678  0  0  -0.344907  0  3.920795  0  0  -0.352432  0  3.929072  0  0  -0.169862  -0.33959  0  3.914782  0
C  C50  1  0.12193068  0.48586094  0.27838092  1  0  0.092616  0  3.670872  0  0  0.028533  0  3.940408  0  0  0.03502  0  3.951153  0  0  -0.064566  0.024177  0  3.932807  0
C  C51  1  0.87807033  0.51413456  0.72161899  1  0  0.092691  0  3.670678  0  0  0.028636  0  3.94013  0  0  0.035121  0  3.950873  0  0  -0.064544  0.024261  0  3.932565  0
C  C52  1  0.24691703  0.62834663  0.10238667  1  0  0.524265  0  3.880532  0  0  0.47678  0  4.172695  0  0  0.504651  0  4.173947  0  0  0.231277  0.457905  0  4.17139  0
C  C53  1  0.75307832  0.37165762  0.89761493  1  0  0.524442  0  3.880535  0  0  0.476932  0  4.172729  0  0  0.504816  0  4.173958  0  0  0.231371  0.458057  0  4.171426  0
C  C54  1  0.38320421  0.69092464  0.04565290  1  0  -0.036264  0  3.752504  0  0  -0.014688  0  3.985215  0  0  -0.018637  0  4.007158  0  0  -0.008124  -0.011586  0  3.971036  0
C  C55  1  0.61679361  0.30907950  0.95435070  1  0  -0.036327  0  3.752575  0  0  -0.014746  0  3.985326  0  0  -0.018711  0  4.007281  0  0  -0.008131  -0.011645  0  3.971152  0
C  C56  1  0.43370005  0.69921860  0.91994369  1  0  -0.077552  0  3.74313  0  0  -0.100687  0  3.992952  0  0  -0.103046  0  4.013688  0  0  -0.086592  -0.099032  0  3.979666  0
C  C57  1  0.56629560  0.30078889  0.08005815  1  0  -0.077405  0  3.743146  0  0  -0.100586  0  3.993  0  0  -0.102943  0  4.013727  0  0  -0.086552  -0.098935  0  3.979709  0
C  C58  1  0.55243952  0.76397782  0.85917057  1  0  -0.062975  0  3.712945  0  0  -0.087168  0  3.9647  0  0  -0.086968  0  3.983988  0  0  -0.082881  -0.087974  0  3.951932  0
C  C59  1  0.44755814  0.23602737  0.14083463  1  0  -0.062999  0  3.712948  0  0  -0.087229  0  3.964681  0  0  -0.086996  0  3.98399  0  0  -0.082895  -0.08803  0  3.951906  0
C  C60  1  0.62450590  0.82103865  0.92388873  1  0  -0.064065  0  3.781093  0  0  -0.042601  0  4.017958  0  0  -0.048851  0  4.040569  0  0  -0.015667  -0.038355  0  4.002806  0
C  C61  1  0.37550015  0.17896425  0.07611303  1  0  -0.064182  0  3.781289  0  0  -0.042617  0  4.017944  0  0  -0.048858  0  4.040536  0  0  -0.015714  -0.038371  0  4.002789  0
C  C62  1  0.57739017  0.80930956  0.05049365  1  0  -0.077864  0  3.725598  0  0  -0.101256  0  3.974991  0  0  -0.101544  0  3.9945  0  0  -0.085273  -0.100382  0  3.96196  0
C  C63  1  0.42261548  0.19069112  0.94951031  1  0  -0.077801  0  3.725719  0  0  -0.10124  0  3.975093  0  0  -0.101533  0  3.994608  0  0  -0.085268  -0.100364  0  3.962065  0
C  C64  1  0.45765458  0.74465427  0.11095389  1  0  -0.087939  0  3.721949  0  0  -0.110891  0  3.97127  0  0  -0.11242  0  3.990709  0  0  -0.091322  -0.110588  0  3.958451  0
C  C65  1  0.54234068  0.25535100  0.88905016  1  0  -0.087958  0  3.722026  0  0  -0.110915  0  3.971346  0  0  -0.112441  0  3.990792  0  0  -0.091345  -0.110608  0  3.958532  0
C  C66  1  0.74483019  0.89631146  0.85315455  1  0  0.540761  0  3.840702  0  0  0.488415  0  4.132034  0  0  0.517607  0  4.132443  0  0  0.246556  0.46903  0  4.13125  0
C  C67  1  0.25516840  0.10369378  0.14684780  1  0  0.540478  0  3.841062  0  0  0.488206  0  4.132227  0  0  0.517395  0  4.132639  0  0  0.246403  0.468822  0  4.131435  0
C  C68  1  0.96092124  0.99433366  0.84677559  1  0  0.097033  0  3.650389  0  0  0.031966  0  3.922195  0  0  0.038718  0  3.932058  0  0  -0.057717  0.027696  0  3.914674  0
C  C69  1  0.03907235  0.00567853  0.15321472  1  0  0.097159  0  3.650214  0  0  0.031922  0  3.922165  0  0  0.038693  0  3.932033  0  0  -0.057811  0.027628  0  3.914644  0
C  C70  1  0.10866062  0.88806432  0.78474328  1  0  -0.319357  0  3.660687  0  0  -0.354516  0  3.907767  0  0  -0.362339  0  3.915315  0  0  -0.171506  -0.34902  0  3.902256  0
C  C71  1  0.89133524  0.11194546  0.21525379  1  0  -0.319223  0  3.660564  0  0  -0.354327  0  3.90762  0  0  -0.362181  0  3.915147  0  0  -0.171462  -0.348834  0  3.902118  0
C  C72  1  0.24048706  0.95719028  0.72164901  1  0  0.720387  0  3.812183  0  0  0.672198  0  4.110886  0  0  0.705254  0  4.1047  0  0  0.218331  0.649649  0  4.114061  0
C  C73  1  0.75952082  0.04280940  0.27835023  1  0  0.720262  0  3.812198  0  0  0.67213  0  4.110797  0  0  0.70519  0  4.104615  0  0  0.218376  0.64958  0  4.113968  0
N  N74  1  0.23828873  0.56452374  0.21881937  1  0  -0.429342  0  3.306091  0  0  -0.370706  0  3.559407  0  0  -0.393063  0  3.57002  0  0  -0.423407  -0.355025  0  3.551734  0
N  N75  1  0.76171032  0.43547504  0.78118135  1  0  -0.429446  0  3.306098  0  0  -0.370824  0  3.559448  0  0  -0.393177  0  3.570044  0  0  -0.423456  -0.355138  0  3.551787  0
N  N76  1  0.84231771  0.91961410  0.91114878  1  0  -0.40818  0  3.302013  0  0  -0.350653  0  3.555681  0  0  -0.372301  0  3.56526  0  0  -0.41034  -0.336452  0  3.549276  0
N  N77  1  0.15768514  0.08039548  0.08884919  1  0  -0.408171  0  3.302105  0  0  -0.350629  0  3.555718  0  0  -0.372277  0  3.565295  0  0  -0.410231  -0.336432  0  3.549322  0
O  O78  1  0.70420688  0.58315653  0.43953804  1  0  -0.694823  0  2.034264  0  0  -0.61458  0  2.273744  0  0  -0.644406  0  2.262085  0  0  -0.328896  -0.593411  0  2.281235  0
O  O79  1  0.29579073  0.41683903  0.56046271  1  0  -0.694832  0  2.034263  0  0  -0.614523  0  2.273747  0  0  -0.644348  0  2.26209  0  0  -0.328874  -0.593346  0  2.281233  0
O  O80  1  0.88466587  0.36430131  0.42123608  1  0  -0.620839  0  1.915752  0  0  -0.570101  0  2.130946  0  0  -0.593398  0  2.120715  0  0  -0.316772  -0.553751  0  2.137783  0
O  O81  1  0.11533171  0.63569328  0.57876050  1  0  -0.620864  0  1.915785  0  0  -0.57013  0  2.13101  0  0  -0.593428  0  2.120782  0  0  -0.316778  -0.553777  0  2.137846  0
O  O82  1  0.14863477  0.63450111  0.04325842  1  0  -0.560726  0  1.858569  0  0  -0.521543  0  2.064765  0  0  -0.540291  0  2.058345  0  0  -0.320273  -0.508492  0  2.068906  0
O  O83  1  0.85136239  0.36550091  0.95674396  1  0  -0.560784  0  1.858511  0  0  -0.521621  0  2.064739  0  0  -0.540373  0  2.058312  0  0  -0.320323  -0.508568  0  2.068878  0
O  O84  1  0.75497312  0.93937468  0.74131951  1  0  -0.579931  0  1.968582  0  0  -0.526155  0  2.18878  0  0  -0.547796  0  2.180046  0  0  -0.305784  -0.511261  0  2.194606  0
O  O85  1  0.24502763  0.06062092  0.25867698  1  0  -0.579738  0  1.968764  0  0  -0.526015  0  2.188928  0  0  -0.547655  0  2.180193  0  0  -0.305712  -0.511116  0  2.194752  0
O  O86  1  0.25222756  0.06476010  0.76087014  1  0  -0.623517  0  1.941238  0  0  -0.570373  0  2.163049  0  0  -0.594872  0  2.153498  0  0  -0.314555  -0.553446  0  2.169374  0
O  O87  1  0.74778715  0.93523609  0.23913144  1  0  -0.623434  0  1.941061  0  0  -0.57036  0  2.162898  0  0  -0.594862  0  2.153342  0  0  -0.314576  -0.553432  0  2.169222  0
O  O88  1  0.33666942  0.89880858  0.62952654  1  0  -0.700827  0  2.047848  0  0  -0.625873  0  2.293924  0  0  -0.6552  0  2.281493  0  0  -0.32802  -0.605471  0  2.301955  0
O  O89  1  0.66333593  0.10118887  0.37047716  1  0  -0.700788  0  2.047873  0  0  -0.62589  0  2.293973  0  0  -0.655214  0  2.281514  0  0  -0.328046  -0.605488  0  2.302003  0
O  O90  1  0.63787857  0.32127410  0.58844587  1  0  -0.849685  0  1.94387  0  0  -0.784016  0  2.15431  0  0  -0.807143  0  2.117318  0  0  -0.577853  -0.767399  0  2.18002  0
O  O91  1  0.36212528  0.67872017  0.41155701  1  0  -0.849639  0  1.943839  0  0  -0.78402  0  2.154284  0  0  -0.807143  0  2.117297  0  0  -0.577857  -0.767403  0  2.180001  0
O  O92  1  0.57504250  0.39335592  0.33685314  1  0  -0.807418  0  1.872577  0  0  -0.750378  0  2.069041  0  0  -0.770364  0  2.041046  0  0  -0.562259  -0.736296  0  2.088853  0
O  O93  1  0.42495260  0.60662736  0.66316328  1  0  -0.807358  0  1.872695  0  0  -0.750299  0  2.069164  0  0  -0.770284  0  2.041182  0  0  -0.562178  -0.736216  0  2.088978  0
O  O94  1  0.31897802  0.19022815  0.46189588  1  0  -0.834807  0  1.903042  0  0  -0.775846  0  2.117743  0  0  -0.796243  0  2.086612  0  0  -0.566272  -0.761213  0  2.139724  0
O  O95  1  0.68102193  0.80976735  0.53810517  1  0  -0.834796  0  1.9031  0  0  -0.77588  0  2.117753  0  0  -0.796282  0  2.086629  0  0  -0.566292  -0.761246  0  2.139733  0
O  O96  1  0.47467782  0.90863033  0.35896536  1  0  -0.852839  0  1.97359  0  0  -0.776182  0  2.179904  0  0  -0.801457  0  2.145115  0  0  -0.560856  -0.758281  0  2.203708  0
O  O97  1  0.52532896  0.09136838  0.64103085  1  0  -0.852759  0  1.973435  0  0  -0.776198  0  2.179817  0  0  -0.801461  0  2.145035  0  0  -0.560832  -0.758288  0  2.203571  0
