# generated using pymatgen
data_ZnH12C22(NO2)2
_symmetry_space_group_name_H-M   'P 1'
_cell_length_a   9.13419361
_cell_length_b   10.22619669
_cell_length_c   13.21903621
_cell_angle_alpha   90.15341201
_cell_angle_beta   93.11702268
_cell_angle_gamma   103.34459307
_symmetry_Int_Tables_number   1
_chemical_formula_structural   ZnH12C22(NO2)2
_chemical_formula_sum   'Zn2 H24 C44 N4 O8'
_cell_volume   1199.50051269
_cell_formula_units_Z   2
loop_
 _symmetry_equiv_pos_site_id
 _symmetry_equiv_pos_as_xyz
  1  'x, y, z'
loop_
 _atom_site_type_symbol
 _atom_site_label
 _atom_site_symmetry_multiplicity
 _atom_site_fract_x
 _atom_site_fract_y
 _atom_site_fract_z
 _atom_site_occupancy
 _atom_site_hle17_bader_spin_density
 _atom_site_hle17_ddec_charge
 _atom_site_hle17_ddec_spin_density
 _atom_site_hle17_ddec_sum_bond_order
 _atom_site_hle17_magmom
 _atom_site_hse06_10hf_bader_spin_density
 _atom_site_hse06_10hf_ddec_charge
 _atom_site_hse06_10hf_ddec_spin_density
 _atom_site_hse06_10hf_ddec_sum_bond_order
 _atom_site_hse06_10hf_magmom
 _atom_site_hse06_bader_spin_density
 _atom_site_hse06_ddec_charge
 _atom_site_hse06_ddec_spin_density
 _atom_site_hse06_ddec_sum_bond_order
 _atom_site_hse06_magmom
 _atom_site_pbe_bader_spin_density
 _atom_site_pbe_cm5_charge
 _atom_site_pbe_ddec_charge
 _atom_site_pbe_ddec_spin_density
 _atom_site_pbe_ddec_sum_bond_order
 _atom_site_pbe_magmom
Zn  Zn0  1  0.85054831  0.12108763  0.96646312  1  0  1.033613  0  1.82742  0  0  0.851729  0  2.281867  0  0  0.902869  0  2.22576  0  0  0.682287  0.813452  0  2.322409  0
Zn  Zn1  1  0.14944587  0.87891612  0.03352893  1  0  1.03354  0  1.82741  0  0  0.851668  0  2.281824  0  0  0.902808  0  2.225723  0  0  0.682283  0.81339  0  2.322363  0
H  H2  1  0.11017929  0.41034693  0.05106536  1  0  0.124157  0  0.965707  0  0  0.129126  0  1.037062  0  0  0.133933  0  1.031963  0  0  0.106388  0.125532  0  1.041025  0
H  H3  1  0.88980989  0.58965368  0.94893484  1  0  0.124178  0  0.965699  0  0  0.12915  0  1.037046  0  0  0.133955  0  1.031953  0  0  0.10638  0.125554  0  1.04101  0
H  H4  1  0.90149881  0.28535324  0.16169875  1  0  0.096197  0  0.927042  0  0  0.105578  0  0.985861  0  0  0.108217  0  0.983675  0  0  0.123625  0.10349  0  0.987571  0
H  H5  1  0.09849155  0.71466157  0.83829029  1  0  0.096061  0  0.92728  0  0  0.10552  0  0.986005  0  0  0.10816  0  0.98382  0  0  0.123614  0.103434  0  0.98771  0
H  H6  1  0.58576852  0.94016715  0.07012776  1  0  0.102987  0  0.943891  0  0  0.109554  0  1.007761  0  0  0.112443  0  1.005247  0  0  0.122455  0.107274  0  1.009821  0
H  H7  1  0.41422540  0.05983956  0.92986809  1  0  0.102995  0  0.943813  0  0  0.109565  0  1.007718  0  0  0.112468  0  1.005187  0  0  0.122477  0.107285  0  1.009778  0
H  H8  1  0.53899640  0.66898205  0.13873961  1  0  0.090436  0  0.962267  0  0  0.09743  0  1.031489  0  0  0.100858  0  1.028948  0  0  0.098428  0.094899  0  1.033393  0
H  H9  1  0.46099275  0.33102256  0.86126291  1  0  0.090518  0  0.962239  0  0  0.097406  0  1.031578  0  0  0.100834  0  1.029038  0  0  0.098414  0.094874  0  1.033485  0
H  H10  1  0.65357057  0.46772031  0.15640833  1  0  0.081725  0  0.955826  0  0  0.092762  0  1.01607  0  0  0.095541  0  1.01575  0  0  0.095176  0.090933  0  1.016127  0
H  H11  1  0.34641885  0.53228529  0.84359496  1  0  0.081688  0  0.955849  0  0  0.09272  0  1.016101  0  0  0.0955  0  1.015778  0  0  0.095122  0.090889  0  1.016156  0
H  H12  1  0.11313149  0.31232609  0.87734214  1  0  0.094438  0  0.937135  0  0  0.103304  0  0.999306  0  0  0.105271  0  0.998158  0  0  0.124323  0.101683  0  1.000343  0
H  H13  1  0.88685887  0.68767961  0.12265285  1  0  0.094417  0  0.937171  0  0  0.103305  0  0.999324  0  0  0.105273  0  0.998174  0  0  0.124331  0.101694  0  1.00035  0
H  H14  1  0.77298203  0.30160988  0.32337080  1  0  0.112064  0  0.93237  0  0  0.125965  0  0.981077  0  0  0.129431  0  0.980375  0  0  0.113743  0.123484  0  0.981653  0
H  H15  1  0.22701940  0.69839182  0.67662596  1  0  0.112031  0  0.932367  0  0  0.125943  0  0.981062  0  0  0.129411  0  0.980357  0  0  0.113721  0.12346  0  0.981639  0
H  H16  1  0.44609309  0.93795910  0.22462117  1  0  0.133795  0  0.945299  0  0  0.142315  0  1.00331  0  0  0.146569  0  1.000849  0  0  0.115199  0.13909  0  1.005533  0
H  H17  1  0.55391399  0.06203856  0.77538024  1  0  0.133799  0  0.945319  0  0  0.142281  0  1.003378  0  0  0.146529  0  1.000921  0  0  0.115164  0.139055  0  1.005601  0
H  H18  1  0.49188102  0.23891209  0.11861385  1  0  0.091715  0  0.984959  0  0  0.098098  0  1.054841  0  0  0.100541  0  1.054564  0  0  0.097252  0.096332  0  1.055034  0
H  H19  1  0.50811356  0.76109257  0.88138579  1  0  0.091667  0  0.984938  0  0  0.098077  0  1.054811  0  0  0.10052  0  1.054555  0  0  0.097249  0.096307  0  1.055021  0
H  H20  1  0.83534741  0.95665470  0.76763314  1  0  0.085607  0  0.938101  0  0  0.096048  0  0.996194  0  0  0.098049  0  0.994906  0  0  0.122328  0.094478  0  0.997279  0
H  H21  1  0.16465321  0.04334916  0.23235152  1  0  0.085577  0  0.938126  0  0  0.096067  0  0.996164  0  0  0.098063  0  0.994891  0  0  0.122317  0.094498  0  0.997247  0
H  H22  1  0.28375853  0.32271484  0.73305028  1  0  0.113823  0  0.953098  0  0  0.125713  0  1.008769  0  0  0.12892  0  1.007824  0  0  0.113628  0.123359  0  1.009583  0
H  H23  1  0.71626334  0.67727974  0.26696209  1  0  0.113932  0  0.952927  0  0  0.125678  0  1.00875  0  0  0.128886  0  1.007805  0  0  0.11363  0.123325  0  1.009563  0
H  H24  1  0.99185359  0.95003519  0.61933954  1  0  0.11164  0  0.941468  0  0  0.122512  0  0.996907  0  0  0.12595  0  0.996246  0  0  0.111465  0.120049  0  0.997506  0
H  H25  1  0.00817927  0.04996058  0.38066027  1  0  0.111436  0  0.941749  0  0  0.122424  0  0.997071  0  0  0.125818  0  0.996458  0  0  0.111491  0.119962  0  0.997669  0
C  C26  1  0.19550208  0.17090709  0.06473008  1  0  0.65409  0  3.908754  0  0  0.600452  0  4.205472  0  0  0.63614  0  4.19641  0  0  0.210191  0.575957  0  4.211052  0
C  C27  1  0.80449377  0.82909863  0.93526506  1  0  0.654012  0  3.908787  0  0  0.600303  0  4.205544  0  0  0.635992  0  4.196473  0  0  0.210106  0.575811  0  4.211121  0
C  C28  1  0.22842772  0.42210891  0.07592370  1  0  -0.07603  0  3.682581  0  0  -0.112484  0  3.926268  0  0  -0.109091  0  3.944062  0  0  -0.08042  -0.114696  0  3.915083  0
C  C29  1  0.77156281  0.57789272  0.92407655  1  0  -0.076128  0  3.682569  0  0  -0.112665  0  3.926247  0  0  -0.109261  0  3.944026  0  0  -0.080424  -0.114874  0  3.915061  0
C  C30  1  0.29123402  0.30970250  0.08571357  1  0  -0.090342  0  3.77644  0  0  -0.062899  0  4.010302  0  0  -0.073809  0  4.0344  0  0  -0.027918  -0.055903  0  3.994294  0
C  C31  1  0.70876085  0.69029917  0.91428376  1  0  -0.090312  0  3.776423  0  0  -0.062725  0  4.010147  0  0  -0.073635  0  4.034238  0  0  -0.027891  -0.055733  0  3.99414  0
C  C32  1  0.31873289  0.55100989  0.09509851  1  0  -0.065308  0  3.768128  0  0  -0.036044  0  3.993659  0  0  -0.045966  0  4.017403  0  0  -0.022681  -0.02989  0  3.97809  0
C  C33  1  0.68125521  0.44899072  0.90490242  1  0  -0.065057  0  3.768085  0  0  -0.035737  0  3.993514  0  0  -0.045662  0  4.017262  0  0  -0.022628  -0.029587  0  3.977944  0
C  C34  1  0.25558389  0.67230254  0.07791951  1  0  0.61858  0  3.943135  0  0  0.572734  0  4.228925  0  0  0.606613  0  4.223518  0  0  0.188563  0.549783  0  4.231413  0
C  C35  1  0.74440439  0.32769911  0.92207764  1  0  0.618539  0  3.943227  0  0  0.572688  0  4.228997  0  0  0.606566  0  4.223592  0  0  0.188544  0.549736  0  4.231486  0
C  C36  1  0.80052573  0.21118546  0.18022911  1  0  0.129431  0  3.704173  0  0  0.097682  0  3.95673  0  0  0.103911  0  3.975863  0  0  0.049704  0.093628  0  3.943778  0
C  C37  1  0.19947037  0.78882126  0.81976605  1  0  0.129488  0  3.7045  0  0  0.097684  0  3.957006  0  0  0.103905  0  3.97615  0  0  0.049724  0.093627  0  3.944049  0
C  C38  1  0.62483173  0.01766161  0.12842770  1  0  0.144998  0  3.653486  0  0  0.110677  0  3.910524  0  0  0.117831  0  3.927128  0  0  0.056234  0.105908  0  3.899704  0
C  C39  1  0.37516695  0.98234208  0.87157051  1  0  0.14507  0  3.653271  0  0  0.110651  0  3.910409  0  0  0.117793  0  3.927001  0  0  0.056186  0.105882  0  3.899589  0
C  C40  1  0.47130080  0.56710419  0.12580754  1  0  -0.0578  0  3.733167  0  0  -0.085029  0  3.981439  0  0  -0.082191  0  4.000416  0  0  -0.082714  -0.086025  0  3.968085  0
C  C41  1  0.52868481  0.43289939  0.87419562  1  0  -0.058014  0  3.733243  0  0  -0.085186  0  3.981504  0  0  -0.082347  0  4.00048  0  0  -0.082748  -0.086184  0  3.968153  0
C  C42  1  0.53398399  0.45547503  0.13539262  1  0  -0.092002  0  3.795657  0  0  -0.102682  0  4.05202  0  0  -0.108368  0  4.074528  0  0  -0.099002  -0.099121  0  4.036245  0
C  C43  1  0.46600766  0.54453056  0.86461224  1  0  -0.091909  0  3.795567  0  0  -0.102568  0  4.051911  0  0  -0.108254  0  4.074417  0  0  -0.098912  -0.099006  0  4.036134  0
C  C44  1  0.09192798  0.23423694  0.81847464  1  0  0.138107  0  3.688826  0  0  0.107179  0  3.935876  0  0  0.113767  0  3.954897  0  0  0.053912  0.102775  0  3.923099  0
C  C45  1  0.90807485  0.76576575  0.18152444  1  0  0.138165  0  3.688907  0  0  0.107207  0  3.935881  0  0  0.113798  0  3.954904  0  0  0.053984  0.102797  0  3.923104  0
C  C46  1  0.72947045  0.21927168  0.26950470  1  0  -0.166612  0  3.700524  0  0  -0.183426  0  3.944931  0  0  -0.191019  0  3.964634  0  0  -0.077364  -0.178536  0  3.931666  0
C  C47  1  0.27052966  0.78072900  0.73049353  1  0  -0.166536  0  3.700509  0  0  -0.183376  0  3.944911  0  0  -0.190968  0  3.964615  0  0  -0.077362  -0.178488  0  3.931646  0
C  C48  1  0.54684832  0.01699154  0.21579657  1  0  -0.132868  0  3.632865  0  0  -0.154162  0  3.883043  0  0  -0.160595  0  3.900021  0  0  -0.067187  -0.150271  0  3.872377  0
C  C49  1  0.45315793  0.98300711  0.78420558  1  0  -0.132894  0  3.632701  0  0  -0.154123  0  3.882876  0  0  -0.16055  0  3.899848  0  0  -0.067082  -0.150231  0  3.872205  0
C  C50  1  0.59751585  0.12124795  0.28799577  1  0  0.14328  0  3.904799  0  0  0.152349  0  4.140358  0  0  0.15858  0  4.160506  0  0  0.01495  0.148362  0  4.126611  0
C  C51  1  0.40248989  0.87874869  0.71200635  1  0  0.143168  0  3.904628  0  0  0.152247  0  4.140161  0  0  0.158481  0  4.160305  0  0  0.014911  0.14826  0  4.126413  0
C  C52  1  0.44458259  0.32718937  0.11441228  1  0  -0.05107  0  3.726058  0  0  -0.079388  0  3.975521  0  0  -0.076116  0  3.994979  0  0  -0.08477  -0.080597  0  3.961702  0
C  C53  1  0.55541746  0.67281532  0.88558674  1  0  -0.05105  0  3.726118  0  0  -0.079482  0  3.975606  0  0  -0.076218  0  3.995068  0  0  -0.084821  -0.080684  0  3.961764  0
C  C54  1  0.93623760  0.03528246  0.75722628  1  0  0.148179  0  3.694963  0  0  0.115599  0  3.947182  0  0  0.123152  0  3.9644  0  0  0.055059  0.110559  0  3.935628  0
C  C55  1  0.06376839  0.96472032  0.24276607  1  0  0.148219  0  3.694864  0  0  0.115611  0  3.947087  0  0  0.12316  0  3.964297  0  0  0.055066  0.110575  0  3.935532  0
C  C56  1  0.15344161  0.13555875  0.66485663  1  0  0.159293  0  3.900842  0  0  0.16858  0  4.133096  0  0  0.175749  0  4.153003  0  0  0.016933  0.163898  0  4.119452  0
C  C57  1  0.84659000  0.86442683  0.33515514  1  0  0.159395  0  3.900462  0  0  0.168356  0  4.133213  0  0  0.175522  0  4.153104  0  0  0.016915  0.163681  0  4.119562  0
C  C58  1  0.51243744  0.12835069  0.37286505  1  0  -0.05403  0  3.766069  0  0  -0.053103  0  4.008097  0  0  -0.056961  0  4.037212  0  0  -0.003756  -0.050474  0  3.988223  0
C  C59  1  0.48757781  0.87163991  0.62714179  1  0  -0.053794  0  3.76594  0  0  -0.052872  0  4.007954  0  0  -0.056726  0  4.037068  0  0  -0.003659  -0.050242  0  3.988075  0
C  C60  1  0.18557641  0.23984409  0.73856603  1  0  -0.159804  0  3.676095  0  0  -0.175249  0  3.91462  0  0  -0.18306  0  3.934445  0  0  -0.074544  -0.170207  0  3.901396  0
C  C61  1  0.81444553  0.76014646  0.26144628  1  0  -0.159964  0  3.675855  0  0  -0.175166  0  3.91447  0  0  -0.182971  0  3.934288  0  0  -0.074612  -0.170127  0  3.901251  0
C  C62  1  0.02331747  0.03202276  0.67479156  1  0  -0.158268  0  3.678817  0  0  -0.17569  0  3.922818  0  0  -0.183122  0  3.941828  0  0  -0.075119  -0.170865  0  3.910079  0
C  C63  1  0.97670912  0.96797395  0.32521112  1  0  -0.158008  0  3.678809  0  0  -0.175458  0  3.922947  0  0  -0.182841  0  3.941975  0  0  -0.075047  -0.170637  0  3.9102  0
C  C64  1  0.42883850  0.13133119  0.44196658  1  0  -0.033176  0  4.044521  0  0  -0.031635  0  4.288854  0  0  -0.032451  0  4.316177  0  0  -0.027477  -0.031057  0  4.270305  0
C  C65  1  0.57118766  0.86865435  0.55804655  1  0  -0.033204  0  4.04464  0  0  -0.03165  0  4.288963  0  0  -0.032468  0  4.31629  0  0  -0.027479  -0.031074  0  4.270416  0
C  C66  1  0.33559611  0.13378982  0.51703840  1  0  -0.016239  0  4.047895  0  0  -0.013651  0  4.292547  0  0  -0.012233  0  4.318721  0  0  -0.024483  -0.014698  0  4.274817  0
C  C67  1  0.66444806  0.86619270  0.48298199  1  0  -0.016802  0  4.048446  0  0  -0.01423  0  4.2931  0  0  -0.012818  0  4.319282  0  0  -0.024834  -0.01527  0  4.27537  0
C  C68  1  0.24936095  0.13476769  0.58492212  1  0  -0.082441  0  3.781115  0  0  -0.082581  0  4.025564  0  0  -0.087427  0  4.053872  0  0  -0.015489  -0.079208  0  4.006236  0
C  C69  1  0.75069326  0.86521079  0.41510304  1  0  -0.082121  0  3.781361  0  0  -0.082142  0  4.025882  0  0  -0.08698  0  4.054191  0  0  -0.015294  -0.078777  0  4.00655  0
N  N70  1  0.74851876  0.11312431  0.11016771  1  0  -0.303809  0  3.246473  0  0  -0.225359  0  3.507242  0  0  -0.243472  0  3.524871  0  0  -0.3127  -0.213092  0  3.495249  0
N  N71  1  0.25147485  0.88688143  0.88982510  1  0  -0.30378  0  3.246496  0  0  -0.225281  0  3.507272  0  0  -0.243393  0  3.524908  0  0  -0.312718  -0.213014  0  3.49528  0
N  N72  1  0.97026483  0.13288962  0.82879827  1  0  -0.301231  0  3.240593  0  0  -0.223604  0  3.501879  0  0  -0.241241  0  3.517464  0  0  -0.308093  -0.211709  0  3.491496  0
N  N73  1  0.02973212  0.86711213  0.17119307  1  0  -0.301287  0  3.240572  0  0  -0.22365  0  3.501892  0  0  -0.241293  0  3.517487  0  0  -0.308102  -0.211756  0  3.491513  0
O  O74  1  0.26376691  0.07465254  0.06270795  1  0  -0.635415  0  2.077941  0  0  -0.566477  0  2.346702  0  0  -0.594174  0  2.33308  0  0  -0.313876  -0.546421  0  2.356352  0
O  O75  1  0.73623192  0.92535222  0.93728423  1  0  -0.635447  0  2.078119  0  0  -0.566431  0  2.34682  0  0  -0.594151  0  2.333251  0  0  -0.31382  -0.546376  0  2.356472  0
O  O76  1  0.05419443  0.15579097  0.05366758  1  0  -0.65671  0  2.142986  0  0  -0.599426  0  2.433139  0  0  -0.626139  0  2.418304  0  0  -0.323899  -0.579908  0  2.442266  0
O  O77  1  0.94580008  0.84420976  0.94632444  1  0  -0.65663  0  2.142988  0  0  -0.599312  0  2.433103  0  0  -0.626022  0  2.418266  0  0  -0.323839  -0.579797  0  2.442232  0
O  O78  1  0.12320945  0.65749540  0.03631032  1  0  -0.63267  0  1.98781  0  0  -0.57602  0  2.233151  0  0  -0.60358  0  2.22316  0  0  -0.324039  -0.555884  0  2.23874  0
O  O79  1  0.87678374  0.34250430  0.96368392  1  0  -0.632681  0  1.987912  0  0  -0.576036  0  2.233256  0  0  -0.603599  0  2.223264  0  0  -0.324008  -0.555895  0  2.238831  0
O  O80  1  0.33661626  0.78840353  0.10263413  1  0  -0.642274  0  1.972862  0  0  -0.586452  0  2.215852  0  0  -0.613288  0  2.206332  0  0  -0.326316  -0.566336  0  2.222219  0
O  O81  1  0.66336897  0.21159912  0.89736220  1  0  -0.642333  0  1.972863  0  0  -0.586486  0  2.215815  0  0  -0.613317  0  2.206293  0  0  -0.326345  -0.566371  0  2.222186  0
