# generated using pymatgen
data_DyH13(CO)7
_symmetry_space_group_name_H-M   'P 1'
_cell_length_a   7.56617541
_cell_length_b   11.76294743
_cell_length_c   11.93865170
_cell_angle_alpha   90.00024732
_cell_angle_beta   90.28167681
_cell_angle_gamma   89.99984046
_symmetry_Int_Tables_number   1
_chemical_formula_structural   DyH13(CO)7
_chemical_formula_sum   'Dy4 H52 C28 O28'
_cell_volume   1062.53341130
_cell_formula_units_Z   4
loop_
 _symmetry_equiv_pos_site_id
 _symmetry_equiv_pos_as_xyz
  1  'x, y, z'
loop_
 _atom_site_type_symbol
 _atom_site_label
 _atom_site_symmetry_multiplicity
 _atom_site_fract_x
 _atom_site_fract_y
 _atom_site_fract_z
 _atom_site_occupancy
 _atom_site_hle17_bader_spin_density
 _atom_site_hle17_ddec_charge
 _atom_site_hle17_ddec_spin_density
 _atom_site_hle17_ddec_sum_bond_order
 _atom_site_hle17_magmom
 _atom_site_hse06_10hf_bader_spin_density
 _atom_site_hse06_10hf_ddec_charge
 _atom_site_hse06_10hf_ddec_spin_density
 _atom_site_hse06_10hf_ddec_sum_bond_order
 _atom_site_hse06_10hf_magmom
 _atom_site_hse06_bader_spin_density
 _atom_site_hse06_ddec_charge
 _atom_site_hse06_ddec_spin_density
 _atom_site_hse06_ddec_sum_bond_order
 _atom_site_hse06_magmom
 _atom_site_pbe_bader_spin_density
 _atom_site_pbe_cm5_charge
 _atom_site_pbe_ddec_charge
 _atom_site_pbe_ddec_spin_density
 _atom_site_pbe_ddec_sum_bond_order
 _atom_site_pbe_magmom
Dy  Dy0  1  0.81385645  0.69476558  0.75755108  1  0  2.253181  0  1.615694  0  0  2.095212  0  2.085133  0  0  2.232121  0  1.887498  0  0  1.520254  2.056635  0  2.116051  0
Dy  Dy1  1  0.68614410  0.19476488  0.24244910  1  0  2.253179  0  1.615666  0  0  2.095206  0  2.085102  0  0  2.23212  0  1.887465  0  0  1.520275  2.056627  0  2.116019  0
Dy  Dy2  1  0.18614441  0.30523424  0.24244875  1  0  2.253117  0  1.615731  0  0  2.095143  0  2.085196  0  0  2.232061  0  1.88754  0  0  1.520233  2.056562  0  2.116116  0
Dy  Dy3  1  0.31385807  0.80523409  0.75755072  1  0  2.253151  0  1.615715  0  0  2.095171  0  2.085167  0  0  2.232089  0  1.88752  0  0  1.520259  2.056591  0  2.116086  0
H  H4  1  0.51611746  0.61038231  0.40423059  1  0  0.134121  0  0.958033  0  0  0.155223  0  1.015354  0  0  0.156964  0  1.015023  0  0  0.09828  0.154059  0  1.015237  0
H  H5  1  0.98389139  0.11038092  0.59576842  1  0  0.134073  0  0.958067  0  0  0.155225  0  1.015329  0  0  0.156964  0  1.015002  0  0  0.098299  0.154061  0  1.015213  0
H  H6  1  0.48388208  0.38961836  0.59577007  1  0  0.134177  0  0.957992  0  0  0.155271  0  1.015322  0  0  0.157011  0  1.014992  0  0  0.098314  0.154107  0  1.015206  0
H  H7  1  0.01610815  0.88962059  0.40423224  1  0  0.134071  0  0.958077  0  0  0.155217  0  1.01535  0  0  0.156956  0  1.015023  0  0  0.098293  0.154053  0  1.015233  0
H  H8  1  0.38657275  0.72954994  0.45215779  1  0  0.142314  0  0.955567  0  0  0.161275  0  1.014497  0  0  0.163703  0  1.013688  0  0  0.102731  0.159627  0  1.014811  0
H  H9  1  0.11343270  0.22955071  0.54784137  1  0  0.142292  0  0.955559  0  0  0.161254  0  1.014493  0  0  0.163682  0  1.013683  0  0  0.102724  0.159605  0  1.014807  0
H  H10  1  0.61342679  0.27044987  0.54784287  1  0  0.14233  0  0.955543  0  0  0.161287  0  1.01448  0  0  0.163714  0  1.013671  0  0  0.102729  0.159638  0  1.014794  0
H  H11  1  0.88656683  0.77045080  0.45215929  1  0  0.142302  0  0.955585  0  0  0.161265  0  1.014515  0  0  0.163693  0  1.013706  0  0  0.102727  0.159616  0  1.014831  0
H  H12  1  0.35815171  0.59306900  0.51220258  1  0  0.157524  0  0.921056  0  0  0.175439  0  0.981662  0  0  0.178652  0  0.979759  0  0  0.113053  0.173209  0  0.982796  0
H  H13  1  0.14184771  0.09307030  0.48779347  1  0  0.157518  0  0.921058  0  0  0.175426  0  0.981682  0  0  0.178639  0  0.979779  0  0  0.113062  0.173198  0  0.982811  0
H  H14  1  0.64184915  0.40692997  0.48779808  1  0  0.157525  0  0.921086  0  0  0.175476  0  0.981637  0  0  0.178689  0  0.979734  0  0  0.113074  0.173248  0  0.982768  0
H  H15  1  0.85815182  0.90693121  0.51220719  1  0  0.157533  0  0.921046  0  0  0.175444  0  0.981668  0  0  0.178658  0  0.979762  0  0  0.113067  0.173213  0  0.982805  0
H  H16  1  0.75212159  0.92259465  0.00970806  1  0  0.156341  0  0.922856  0  0  0.177669  0  0.977777  0  0  0.180428  0  0.976085  0  0  0.112843  0.175789  0  0.978649  0
H  H17  1  0.74787799  0.42259541  0.99029309  1  0  0.156295  0  0.922873  0  0  0.177643  0  0.977774  0  0  0.180402  0  0.976083  0  0  0.112854  0.175765  0  0.978645  0
H  H18  1  0.24787927  0.07740432  0.99029344  1  0  0.156299  0  0.922857  0  0  0.177647  0  0.97776  0  0  0.180406  0  0.976069  0  0  0.112855  0.175769  0  0.978631  0
H  H19  1  0.25212419  0.57740440  0.00970674  1  0  0.15629  0  0.92285  0  0  0.17764  0  0.977749  0  0  0.180397  0  0.976059  0  0  0.112851  0.175761  0  0.978619  0
H  H20  1  0.73649739  0.78290700  0.06383969  1  0  0.138226  0  0.965302  0  0  0.156804  0  1.026874  0  0  0.158961  0  1.026319  0  0  0.100959  0.155309  0  1.027089  0
H  H21  1  0.76350147  0.28290835  0.93616170  1  0  0.138219  0  0.965327  0  0  0.156797  0  1.026904  0  0  0.158953  0  1.02635  0  0  0.100949  0.155301  0  1.027119  0
H  H22  1  0.26350347  0.21709196  0.93616264  1  0  0.138227  0  0.965335  0  0  0.15681  0  1.0269  0  0  0.158968  0  1.026345  0  0  0.100952  0.155315  0  1.027114  0
H  H23  1  0.23650071  0.71709146  0.06383897  1  0  0.13819  0  0.965382  0  0  0.156786  0  1.026935  0  0  0.158943  0  1.026378  0  0  0.100944  0.15529  0  1.027149  0
H  H24  1  0.59396490  0.89592738  0.11415727  1  0  0.14994  0  0.960099  0  0  0.166006  0  1.022559  0  0  0.168858  0  1.021052  0  0  0.103034  0.164018  0  1.02342  0
H  H25  1  0.90603479  0.39592741  0.88584292  1  0  0.149926  0  0.960084  0  0  0.166001  0  1.022537  0  0  0.168852  0  1.02103  0  0  0.10305  0.164013  0  1.023397  0
H  H26  1  0.40602935  0.10407073  0.88584002  1  0  0.149991  0  0.96008  0  0  0.166029  0  1.022579  0  0  0.168879  0  1.021076  0  0  0.103057  0.164041  0  1.02344  0
H  H27  1  0.09396739  0.60407241  0.11415691  1  0  0.149945  0  0.96007  0  0  0.166021  0  1.022513  0  0  0.168873  0  1.021006  0  0  0.103048  0.164034  0  1.023373  0
H  H28  1  0.50637403  0.35263748  0.83498354  1  0  0.135523  0  0.950769  0  0  0.157266  0  1.005561  0  0  0.159509  0  1.004799  0  0  0.098518  0.155719  0  1.005863  0
H  H29  1  0.99362584  0.85263696  0.16501731  1  0  0.135553  0  0.950789  0  0  0.157302  0  1.005571  0  0  0.159545  0  1.004809  0  0  0.098549  0.155754  0  1.005873  0
H  H30  1  0.49362682  0.64736318  0.16501712  1  0  0.135516  0  0.950755  0  0  0.157262  0  1.005556  0  0  0.159504  0  1.004795  0  0  0.098517  0.155714  0  1.005858  0
H  H31  1  0.00637237  0.14736370  0.83498251  1  0  0.135551  0  0.950777  0  0  0.157298  0  1.005567  0  0  0.15954  0  1.004805  0  0  0.09857  0.15575  0  1.005869  0
H  H32  1  0.30452542  0.37169395  0.75851397  1  0  0.127258  0  0.958105  0  0  0.147076  0  1.019477  0  0  0.149296  0  1.018507  0  0  0.097644  0.145577  0  1.019904  0
H  H33  1  0.19547413  0.87169429  0.24148661  1  0  0.127318  0  0.958098  0  0  0.14713  0  1.019471  0  0  0.14935  0  1.0185  0  0  0.097678  0.145631  0  1.019899  0
H  H34  1  0.69547411  0.62830587  0.24148585  1  0  0.127262  0  0.958103  0  0  0.147082  0  1.019479  0  0  0.149302  0  1.018509  0  0  0.097651  0.145583  0  1.019906  0
H  H35  1  0.80452409  0.12830552  0.75851321  1  0  0.127287  0  0.958069  0  0  0.147097  0  1.019452  0  0  0.149317  0  1.018483  0  0  0.097658  0.145598  0  1.019881  0
H  H36  1  0.31638909  0.41470472  0.89979309  1  0  0.163813  0  0.94224  0  0  0.180489  0  1.002373  0  0  0.184466  0  0.999518  0  0  0.107795  0.177785  0  1.004052  0
H  H37  1  0.18361027  0.91470532  0.10020851  1  0  0.163835  0  0.942228  0  0  0.180525  0  1.002341  0  0  0.184504  0  0.999483  0  0  0.107814  0.177819  0  1.004023  0
H  H38  1  0.68361441  0.58529509  0.10020674  1  0  0.163775  0  0.942253  0  0  0.180495  0  1.002335  0  0  0.184472  0  0.999482  0  0  0.107818  0.177791  0  1.004012  0
H  H39  1  0.81638662  0.08529534  0.89979214  1  0  0.163797  0  0.942253  0  0  0.180526  0  1.002311  0  0  0.184504  0  0.999456  0  0  0.107832  0.177821  0  1.003992  0
H  H40  1  0.12934102  0.55128342  0.74548649  1  0  0.382032  0  0.908454  0  0  0.358432  0  0.975763  0  0  0.369288  0  0.965374  0  0  0.304183  0.350695  0  0.983934  0
H  H41  1  0.37065858  0.05128329  0.25451441  1  0  0.381953  0  0.908492  0  0  0.358336  0  0.975835  0  0  0.369191  0  0.96545  0  0  0.304139  0.350603  0  0.983998  0
H  H42  1  0.87065851  0.44871640  0.25451417  1  0  0.381951  0  0.908492  0  0  0.358341  0  0.975826  0  0  0.369197  0  0.965439  0  0  0.304125  0.350605  0  0.983991  0
H  H43  1  0.62933963  0.94871737  0.74548625  1  0  0.381972  0  0.908489  0  0  0.358361  0  0.975823  0  0  0.369217  0  0.965436  0  0  0.304145  0.350626  0  0.983989  0
H  H44  1  0.83326298  0.42583953  0.65256672  1  0  0.086821  0  0.955334  0  0  0.104793  0  1.020802  0  0  0.1052  0  1.021274  0  0  0.104908  0.104323  0  1.020804  0
H  H45  1  0.66673659  0.92583870  0.34743528  1  0  0.086811  0  0.95532  0  0  0.104785  0  1.020786  0  0  0.105193  0  1.021256  0  0  0.104909  0.104315  0  1.020788  0
H  H46  1  0.16673788  0.57416028  0.34743478  1  0  0.086814  0  0.955373  0  0  0.104792  0  1.02083  0  0  0.1052  0  1.0213  0  0  0.104948  0.104322  0  1.020831  0
H  H47  1  0.33326163  0.07416112  0.65256454  1  0  0.086805  0  0.955377  0  0  0.104788  0  1.02083  0  0  0.105195  0  1.021301  0  0  0.104925  0.104304  0  1.020847  0
H  H48  1  0.02932710  0.35832242  0.70341567  1  0  0.051935  0  0.956202  0  0  0.069584  0  1.025981  0  0  0.069754  0  1.025561  0  0  0.086629  0.069456  0  1.026107  0
H  H49  1  0.47067119  0.85832252  0.29658485  1  0  0.051871  0  0.95625  0  0  0.069531  0  1.026006  0  0  0.069699  0  1.025589  0  0  0.08662  0.069405  0  1.026134  0
H  H50  1  0.97067243  0.64167739  0.29658582  1  0  0.051892  0  0.956279  0  0  0.069544  0  1.026045  0  0  0.069712  0  1.025629  0  0  0.08662  0.069418  0  1.026172  0
H  H51  1  0.52932571  0.14167559  0.70341413  1  0  0.051899  0  0.956252  0  0  0.069553  0  1.026013  0  0  0.069721  0  1.025596  0  0  0.086644  0.069428  0  1.026138  0
H  H52  1  0.03993448  0.45104636  0.58425127  1  0  0.087263  0  0.941312  0  0  0.104863  0  1.005205  0  0  0.106733  0  1.00306  0  0  0.100254  0.103606  0  1.00641  0
H  H53  1  0.46006474  0.95104615  0.41574965  1  0  0.08724  0  0.941296  0  0  0.104815  0  1.005228  0  0  0.106683  0  1.003082  0  0  0.100237  0.103559  0  1.006431  0
H  H54  1  0.96006638  0.54895260  0.41574939  1  0  0.087256  0  0.941313  0  0  0.104857  0  1.005204  0  0  0.106726  0  1.003059  0  0  0.100252  0.1036  0  1.006408  0
H  H55  1  0.53993612  0.04895281  0.58424850  1  0  0.087218  0  0.941305  0  0  0.104794  0  1.005238  0  0  0.106662  0  1.003094  0  0  0.100222  0.103538  0  1.006441  0
C  C56  1  0.59283177  0.67695604  0.56467660  1  0  0.773148  0  3.832307  0  0  0.737244  0  4.12097  0  0  0.770697  0  4.120452  0  0  0.208903  0.714054  0  4.127194  0
C  C57  1  0.90716357  0.17695749  0.43532684  1  0  0.773195  0  3.832255  0  0  0.737244  0  4.12098  0  0  0.770698  0  4.120466  0  0  0.208933  0.714055  0  4.127202  0
C  C58  1  0.40716776  0.32304462  0.43532406  1  0  0.773038  0  3.832432  0  0  0.737195  0  4.121006  0  0  0.770648  0  4.12049  0  0  0.208848  0.714006  0  4.127231  0
C  C59  1  0.09283729  0.82304402  0.56467298  1  0  0.773312  0  3.832067  0  0  0.737356  0  4.120812  0  0  0.770809  0  4.120295  0  0  0.208956  0.714166  0  4.127037  0
C  C60  1  0.45620511  0.65178456  0.47665788  1  0  -0.45431  0  3.627248  0  0  -0.530536  0  3.856405  0  0  -0.536875  0  3.857506  0  0  -0.239079  -0.525621  0  3.854851  0
C  C61  1  0.04379671  0.15178619  0.52334094  1  0  -0.454249  0  3.627193  0  0  -0.530489  0  3.856332  0  0  -0.536828  0  3.857436  0  0  -0.239094  -0.525573  0  3.854777  0
C  C62  1  0.54379442  0.34821526  0.52334278  1  0  -0.454364  0  3.627246  0  0  -0.530623  0  3.856379  0  0  -0.536961  0  3.85748  0  0  -0.239125  -0.525709  0  3.854826  0
C  C63  1  0.95620283  0.84821447  0.47665972  1  0  -0.454316  0  3.627225  0  0  -0.530557  0  3.856397  0  0  -0.536896  0  3.857498  0  0  -0.239113  -0.525643  0  3.854844  0
C  C64  1  0.53030053  0.83040828  0.95089458  1  0  0.789051  0  3.791599  0  0  0.751923  0  4.081046  0  0  0.785955  0  4.078987  0  0  0.215398  0.728498  0  4.087619  0
C  C65  1  0.96969944  0.33040877  0.04910618  1  0  0.78905  0  3.791566  0  0  0.751943  0  4.080992  0  0  0.785974  0  4.078932  0  0  0.215408  0.728518  0  4.087567  0
C  C66  1  0.46970033  0.16959068  0.04910525  1  0  0.789076  0  3.791449  0  0  0.75199  0  4.080838  0  0  0.786021  0  4.078778  0  0  0.215436  0.728566  0  4.087412  0
C  C67  1  0.03030274  0.66959189  0.95089532  1  0  0.788922  0  3.791752  0  0  0.751801  0  4.081201  0  0  0.785833  0  4.079142  0  0  0.21533  0.728376  0  4.087772  0
C  C68  1  0.65962261  0.85855133  0.04170476  1  0  -0.457927  0  3.622888  0  0  -0.537136  0  3.857341  0  0  -0.543247  0  3.85703  0  0  -0.241134  -0.532268  0  3.856407  0
C  C69  1  0.84037724  0.35855264  0.95829612  1  0  -0.457868  0  3.622873  0  0  -0.537094  0  3.8573  0  0  -0.543206  0  3.856993  0  0  -0.241157  -0.532226  0  3.856365  0
C  C70  1  0.34037825  0.14144679  0.95829423  1  0  -0.457943  0  3.62284  0  0  -0.537151  0  3.85727  0  0  -0.543262  0  3.856964  0  0  -0.241164  -0.532282  0  3.856335  0
C  C71  1  0.15962494  0.64144717  0.04170371  1  0  -0.45785  0  3.622909  0  0  -0.537076  0  3.857297  0  0  -0.543188  0  3.85699  0  0  -0.241143  -0.532207  0  3.856361  0
C  C72  1  0.45303736  0.52553117  0.78563429  1  0  0.801817  0  3.779038  0  0  0.764291  0  4.070665  0  0  0.799661  0  4.063114  0  0  0.235973  0.740805  0  4.077311  0
C  C73  1  0.04696235  0.02553059  0.21436650  1  0  0.801804  0  3.779038  0  0  0.764266  0  4.070682  0  0  0.799632  0  4.063137  0  0  0.235987  0.740784  0  4.07732  0
C  C74  1  0.54696217  0.47446865  0.21436553  1  0  0.801775  0  3.779097  0  0  0.76422  0  4.07077  0  0  0.799592  0  4.063216  0  0  0.235945  0.740734  0  4.077415  0
C  C75  1  0.95303850  0.97447092  0.78563416  1  0  0.80195  0  3.778778  0  0  0.764245  0  4.070687  0  0  0.799627  0  4.063114  0  0  0.235986  0.740758  0  4.077335  0
C  C76  1  0.39297874  0.40880375  0.82184984  1  0  -0.471281  0  3.640868  0  0  -0.547273  0  3.869195  0  0  -0.554057  0  3.868813  0  0  -0.245199  -0.541948  0  3.86794  0
C  C77  1  0.10702065  0.90880313  0.17815174  1  0  -0.471378  0  3.640911  0  0  -0.54739  0  3.869249  0  0  -0.554171  0  3.868863  0  0  -0.245293  -0.542066  0  3.867995  0
C  C78  1  0.60702079  0.59119606  0.17814998  1  0  -0.47124  0  3.640849  0  0  -0.547264  0  3.869182  0  0  -0.554048  0  3.868799  0  0  -0.245227  -0.541939  0  3.867925  0
C  C79  1  0.89297756  0.09119668  0.82184891  1  0  -0.471344  0  3.640852  0  0  -0.547332  0  3.86925  0  0  -0.554117  0  3.868859  0  0  -0.245287  -0.542008  0  3.867997  0
C  C80  1  0.97557393  0.43653318  0.66536389  1  0  -0.00574  0  3.651612  0  0  -0.099718  0  3.922904  0  0  -0.092868  0  3.928894  0  0  -0.144687  -0.104176  0  3.920787  0
C  C81  1  0.52442558  0.93653340  0.33463731  1  0  -0.005592  0  3.651541  0  0  -0.099554  0  3.922843  0  0  -0.092699  0  3.928827  0  0  -0.144642  -0.104017  0  3.920732  0
C  C82  1  0.02442692  0.56346663  0.33463677  1  0  -0.005644  0  3.65167  0  0  -0.099612  0  3.922947  0  0  -0.09276  0  3.928936  0  0  -0.144682  -0.104074  0  3.920833  0
C  C83  1  0.47557263  0.06346557  0.66536167  1  0  -0.005602  0  3.651615  0  0  -0.099563  0  3.922903  0  0  -0.092708  0  3.928893  0  0  -0.14467  -0.104015  0  3.920796  0
O  O84  1  0.55964721  0.75211767  0.64100483  1  0  -0.843767  0  2.118478  0  0  -0.784522  0  2.371625  0  0  -0.830734  0  2.360746  0  0  -0.444643  -0.7658  0  2.377707  0
O  O85  1  0.94035046  0.25211788  0.35899475  1  0  -0.843856  0  2.11842  0  0  -0.784604  0  2.371587  0  0  -0.830817  0  2.360711  0  0  -0.444698  -0.765882  0  2.377667  0
O  O86  1  0.44035233  0.24788299  0.35899499  1  0  -0.843759  0  2.118417  0  0  -0.784535  0  2.371534  0  0  -0.830746  0  2.360656  0  0  -0.444641  -0.765814  0  2.377616  0
O  O87  1  0.05965040  0.74788194  0.64100424  1  0  -0.843913  0  2.118373  0  0  -0.784662  0  2.371554  0  0  -0.830874  0  2.360677  0  0  -0.444701  -0.765938  0  2.377634  0
O  O88  1  0.73846644  0.62425229  0.56754377  1  0  -0.686433  0  1.950126  0  0  -0.640415  0  2.186258  0  0  -0.673568  0  2.177767  0  0  -0.356794  -0.622947  0  2.190625  0
O  O89  1  0.76153441  0.12425229  0.43245779  1  0  -0.686365  0  1.950108  0  0  -0.64032  0  2.186249  0  0  -0.673469  0  2.177752  0  0  -0.356757  -0.622846  0  2.190601  0
O  O90  1  0.26153309  0.37574753  0.43245772  1  0  -0.686332  0  1.950195  0  0  -0.640337  0  2.186294  0  0  -0.673487  0  2.177796  0  0  -0.356727  -0.622857  0  2.190637  0
O  O91  1  0.23846644  0.87574753  0.56754204  1  0  -0.686392  0  1.950057  0  0  -0.640348  0  2.186214  0  0  -0.673499  0  2.177717  0  0  -0.356755  -0.622873  0  2.190565  0
O  O92  1  0.58084782  0.76999632  0.86583096  1  0  -0.859674  0  2.154383  0  0  -0.798301  0  2.412377  0  0  -0.846296  0  2.402122  0  0  -0.465092  -0.778608  0  2.417672  0
O  O93  1  0.91915109  0.26999643  0.13417038  1  0  -0.859711  0  2.154326  0  0  -0.798347  0  2.412316  0  0  -0.84634  0  2.402058  0  0  -0.465135  -0.778655  0  2.417612  0
O  O94  1  0.41915568  0.23000095  0.13416888  1  0  -0.859654  0  2.154341  0  0  -0.798298  0  2.412323  0  0  -0.846291  0  2.402065  0  0  -0.465111  -0.778607  0  2.41762  0
O  O95  1  0.08084976  0.73000339  0.86582945  1  0  -0.859652  0  2.154447  0  0  -0.798292  0  2.412441  0  0  -0.846288  0  2.402188  0  0  -0.465082  -0.778598  0  2.417735  0
O  O96  1  0.37259173  0.86570570  0.95226162  1  0  -0.675144  0  1.951428  0  0  -0.626001  0  2.182566  0  0  -0.659235  0  2.173875  0  0  -0.351367  -0.608669  0  2.187184  0
O  O97  1  0.12740653  0.36570510  0.04773893  1  0  -0.675105  0  1.951434  0  0  -0.625988  0  2.1826  0  0  -0.65922  0  2.173909  0  0  -0.351335  -0.608656  0  2.187217  0
O  O98  1  0.62740913  0.13429156  0.04773569  1  0  -0.67517  0  1.951284  0  0  -0.626052  0  2.182418  0  0  -0.659284  0  2.173726  0  0  -0.351392  -0.608717  0  2.18703  0
O  O99  1  0.87259433  0.63429556  0.95226257  1  0  -0.675053  0  1.951526  0  0  -0.625934  0  2.182681  0  0  -0.659163  0  2.173989  0  0  -0.351326  -0.608604  0  2.187302  0
O  O100  1  0.61683891  0.54553280  0.78363424  1  0  -0.710711  0  2.027579  0  0  -0.659491  0  2.277549  0  0  -0.69662  0  2.265148  0  0  -0.38468  -0.64143  0  2.282689  0
O  O101  1  0.88315964  0.04553334  0.21636614  1  0  -0.710731  0  2.027576  0  0  -0.659483  0  2.27754  0  0  -0.696614  0  2.26514  0  0  -0.384695  -0.641424  0  2.282675  0
O  O102  1  0.38316327  0.45446701  0.21636643  1  0  -0.710665  0  2.027601  0  0  -0.659437  0  2.277601  0  0  -0.696568  0  2.265198  0  0  -0.384654  -0.641378  0  2.282739  0
O  O103  1  0.11683857  0.95446648  0.78363367  1  0  -0.710746  0  2.027499  0  0  -0.659448  0  2.277538  0  0  -0.696585  0  2.265133  0  0  -0.384688  -0.641387  0  2.282676  0
O  O104  1  0.33230294  0.59831144  0.75911832  1  0  -0.747662  0  2.043186  0  0  -0.688823  0  2.281785  0  0  -0.726391  0  2.271236  0  0  -0.36892  -0.669796  0  2.287057  0
O  O105  1  0.16769514  0.09831162  0.24088194  1  0  -0.747636  0  2.043206  0  0  -0.688799  0  2.281836  0  0  -0.726363  0  2.271287  0  0  -0.368917  -0.669776  0  2.287105  0
O  O106  1  0.66769792  0.40168837  0.24088151  1  0  -0.747659  0  2.043165  0  0  -0.68882  0  2.281809  0  0  -0.72639  0  2.27126  0  0  -0.368924  -0.669794  0  2.28708  0
O  O107  1  0.83230307  0.90168819  0.75911955  1  0  -0.747732  0  2.043035  0  0  -0.688835  0  2.281739  0  0  -0.726406  0  2.271181  0  0  -0.368951  -0.669809  0  2.28701  0
O  O108  1  0.99998411  0.53093483  0.73962683  1  0  -0.617643  0  2.234722  0  0  -0.551351  0  2.485624  0  0  -0.580337  0  2.47405  0  0  -0.469766  -0.537882  0  2.492084  0
O  O109  1  0.50001583  0.03093455  0.26037517  1  0  -0.617623  0  2.234676  0  0  -0.551333  0  2.485616  0  0  -0.580329  0  2.47406  0  0  -0.469743  -0.537863  0  2.492067  0
O  O110  1  0.00001675  0.46906498  0.26037467  1  0  -0.617604  0  2.234687  0  0  -0.551338  0  2.485642  0  0  -0.580327  0  2.474068  0  0  -0.469745  -0.537867  0  2.492098  0
O  O111  1  0.49998371  0.96906527  0.73962465  1  0  -0.61762  0  2.234683  0  0  -0.551342  0  2.485617  0  0  -0.580328  0  2.474038  0  0  -0.469744  -0.537869  0  2.492067  0
