# generated using pymatgen
data_BaH16C14N4O9
_symmetry_space_group_name_H-M   'P 1'
_cell_length_a   4.44392638
_cell_length_b   12.06900043
_cell_length_c   16.17529708
_cell_angle_alpha   90.00003411
_cell_angle_beta   90.00020427
_cell_angle_gamma   98.35496684
_symmetry_Int_Tables_number   1
_chemical_formula_structural   BaH16C14N4O9
_chemical_formula_sum   'Ba2 H32 C28 N8 O18'
_cell_volume   858.33447449
_cell_formula_units_Z   2
loop_
 _symmetry_equiv_pos_site_id
 _symmetry_equiv_pos_as_xyz
  1  'x, y, z'
loop_
 _atom_site_type_symbol
 _atom_site_label
 _atom_site_symmetry_multiplicity
 _atom_site_fract_x
 _atom_site_fract_y
 _atom_site_fract_z
 _atom_site_occupancy
 _atom_site_pbe_bader_spin_density
 _atom_site_pbe_cm5_charge
 _atom_site_pbe_ddec_charge
 _atom_site_pbe_ddec_spin_density
 _atom_site_pbe_ddec_sum_bond_order
 _atom_site_pbe_magmom
Ba  Ba0  1  0.26019645  0.56353723  0.24878826  1  0  0.944565  1.485672  0  1.582438  0
Ba  Ba1  1  0.26019277  0.06353614  0.75121046  1  0  0.94456  1.485647  0  1.582448  0
H  H2  1  0.03975952  0.15646029  0.00451558  1  0  0.316983  0.297125  0  0.965557  0
H  H3  1  0.03976452  0.65645751  0.99548482  1  0  0.31695  0.297109  0  0.965581  0
H  H4  1  0.06083638  0.55012856  0.47924143  1  0  0.325364  0.293974  0  0.960529  0
H  H5  1  0.06083926  0.05012878  0.52075895  1  0  0.325357  0.293951  0  0.960552  0
H  H6  1  0.76412231  0.43639938  0.93986265  1  0  0.28929  0.342069  0  1.017889  0
H  H7  1  0.76412569  0.93640018  0.06013611  1  0  0.289281  0.342038  0  1.01785  0
H  H8  1  0.25506849  0.29323559  0.42625573  1  0  0.293976  0.345494  0  1.020797  0
H  H9  1  0.25507139  0.79323551  0.57374370  1  0  0.293982  0.345535  0  1.020667  0
H  H10  1  0.81682236  0.76693051  0.30898964  1  0  0.289696  0.346959  0  1.018442  0
H  H11  1  0.81682045  0.26693016  0.69101033  1  0  0.289683  0.346924  0  1.01849  0
H  H12  1  0.82576402  0.76004494  0.21120349  1  0  0.313746  0.386817  0  0.935869  0
H  H13  1  0.82576310  0.26004390  0.78879649  1  0  0.313746  0.386801  0  0.935905  0
H  H14  1  0.92617592  0.10852800  0.17492648  1  0  0.102339  0.108985  0  0.980549  0
H  H15  1  0.92617323  0.60852832  0.82507415  1  0  0.102344  0.108993  0  0.980538  0
H  H16  1  0.63397085  0.17115115  0.13015252  1  0  0.098616  0.103177  0  0.992256  0
H  H17  1  0.63396999  0.67114902  0.86984661  1  0  0.098622  0.103181  0  0.992256  0
H  H18  1  0.69452772  0.32187791  0.23833174  1  0  0.100658  0.118577  0  1.052671  0
H  H19  1  0.69452799  0.82187644  0.76166690  1  0  0.10067  0.118614  0  1.052639  0
H  H20  1  0.00780592  0.26637397  0.28180694  1  0  0.094603  0.126326  0  1.040739  0
H  H21  1  0.00780110  0.76637245  0.71819285  1  0  0.094622  0.126345  0  1.040736  0
H  H22  1  0.63540900  0.18884520  0.28584858  1  0  0.086961  0.119899  0  1.020513  0
H  H23  1  0.63541155  0.68884534  0.71415180  1  0  0.086969  0.119917  0  1.020553  0
H  H24  1  0.15548764  0.59628487  0.65556962  1  0  0.103418  0.114219  0  0.987748  0
H  H25  1  0.15548847  0.09628566  0.34443087  1  0  0.103408  0.114196  0  0.987755  0
H  H26  1  0.44299774  0.53007581  0.61275940  1  0  0.09912  0.104405  0  0.997262  0
H  H27  1  0.44299881  0.03007582  0.38724133  1  0  0.099119  0.104403  0  0.997242  0
H  H28  1  0.33428028  0.37367928  0.71998950  1  0  0.097043  0.123127  0  1.029079  0
H  H29  1  0.33427696  0.87367876  0.28001067  1  0  0.097042  0.123132  0  1.029063  0
H  H30  1  0.05273166  0.44547690  0.76433724  1  0  0.088326  0.116815  0  1.031253  0
H  H31  1  0.05273257  0.94547713  0.23566391  1  0  0.088325  0.116814  0  1.031267  0
H  H32  1  0.44006974  0.50669400  0.76516093  1  0  0.087406  0.118554  0  1.025649  0
H  H33  1  0.44006909  0.00669461  0.23483980  1  0  0.087392  0.118554  0  1.025637  0
C  C34  1  0.68395564  0.48278789  0.07089991  1  0  0.228397  0.581128  0  4.220358  0
C  C35  1  0.68395367  0.98278669  0.92910002  1  0  0.228468  0.581257  0  4.220384  0
C  C36  1  0.43856590  0.38515842  0.06655735  1  0  0.08368  -0.010865  0  4.034216  0
C  C37  1  0.43856782  0.88515555  0.93344231  1  0  0.083713  -0.010805  0  4.034208  0
C  C38  1  0.36477838  0.30827652  0.00248799  1  0  0.080021  -0.031932  0  3.993299  0
C  C39  1  0.36478375  0.80827458  0.99751217  1  0  0.079918  -0.032116  0  3.993483  0
C  C40  1  0.47064492  0.29958230  0.91725084  1  0  0.236658  0.581973  0  4.179773  0
C  C41  1  0.47064793  0.79958146  0.08275066  1  0  0.236698  0.58203  0  4.179834  0
C  C42  1  0.07693728  0.25975659  0.11228242  1  0  0.233577  0.355078  0  3.934683  0
C  C43  1  0.07693891  0.75975449  0.88771744  1  0  0.233612  0.355176  0  3.934593  0
C  C44  1  0.84765887  0.19016643  0.16526728  1  0  -0.151261  -0.190414  0  3.975859  0
C  C45  1  0.84765821  0.69016592  0.83473269  1  0  -0.151264  -0.190444  0  3.975881  0
C  C46  1  0.79443375  0.24499382  0.24763114  1  0  -0.244522  -0.361773  0  3.939306  0
C  C47  1  0.79443390  0.74499234  0.75236942  1  0  -0.244556  -0.36183  0  3.939379  0
C  C48  1  0.38035709  0.23393278  0.53633784  1  0  0.23363  0.578558  0  4.161926  0
C  C49  1  0.38035851  0.73393253  0.46366169  1  0  0.233645  0.57863  0  4.161818  0
C  C50  1  0.62134321  0.33183673  0.53943715  1  0  0.080389  -0.022306  0  4.027683  0
C  C51  1  0.62134267  0.83183732  0.46056266  1  0  0.080421  -0.022281  0  4.027594  0
C  C52  1  0.70995186  0.41063552  0.47745195  1  0  0.092181  -0.005221  0  3.953865  0
C  C53  1  0.70995182  0.91063537  0.52254798  1  0  0.092222  -0.005181  0  3.953866  0
C  C54  1  0.60274820  0.42728518  0.39251436  1  0  0.224824  0.570342  0  4.243728  0
C  C55  1  0.60274515  0.92728600  0.60748486  1  0  0.224808  0.570347  0  4.243827  0
C  C56  1  0.99586554  0.44921032  0.58945808  1  0  0.231646  0.343887  0  3.923102  0
C  C57  1  0.99586590  0.94920915  0.41054277  1  0  0.231692  0.34388  0  3.923071  0
C  C58  1  0.22446603  0.51324910  0.64573550  1  0  -0.155263  -0.201649  0  3.988723  0
C  C59  1  0.22446666  0.01324906  0.35426501  1  0  -0.155262  -0.201605  0  3.988704  0
C  C60  1  0.26395559  0.45625486  0.72822859  1  0  -0.246504  -0.352818  0  3.946631  0
C  C61  1  0.26395474  0.95625516  0.27177216  1  0  -0.246493  -0.35285  0  3.946662  0
N  N62  1  0.25535319  0.35435694  0.13387410  1  0  -0.339826  -0.406141  0  3.275513  0
N  N63  1  0.25535229  0.85435480  0.86612598  1  0  -0.339842  -0.406162  0  3.275528  0
N  N64  1  0.13743538  0.22983467  0.03351048  1  0  -0.365691  -0.274332  0  3.622063  0
N  N65  1  0.13743775  0.72983185  0.96648943  1  0  -0.365661  -0.274344  0  3.622097  0
N  N66  1  0.80391686  0.35667963  0.60781126  1  0  -0.305545  -0.337086  0  3.283614  0
N  N67  1  0.80391697  0.85667844  0.39218874  1  0  -0.305619  -0.337131  0  3.283638  0
N  N68  1  0.94584767  0.48247552  0.51061561  1  0  -0.361811  -0.267117  0  3.636657  0
N  N69  1  0.94584493  0.98247532  0.48938520  1  0  -0.361864  -0.267135  0  3.636636  0
O  O70  1  0.73790332  0.53089618  0.13946994  1  0  -0.360661  -0.614587  0  2.279431  0
O  O71  1  0.73790303  0.03089442  0.86053047  1  0  -0.36066  -0.614603  0  2.279369  0
O  O72  1  0.83343077  0.51224892  0.00384527  1  0  -0.309071  -0.538205  0  2.230748  0
O  O73  1  0.83342815  0.01224821  0.99615337  1  0  -0.309101  -0.538239  0  2.230788  0
O  O74  1  0.69874527  0.37452045  0.89171017  1  0  -0.321983  -0.490713  0  2.29823  0
O  O75  1  0.69875122  0.87452049  0.10829035  1  0  -0.321995  -0.490702  0  2.298168  0
O  O76  1  0.34667335  0.22372175  0.87172208  1  0  -0.334511  -0.543929  0  2.238335  0
O  O77  1  0.34668181  0.72372182  0.12827803  1  0  -0.334516  -0.543928  0  2.238403  0
O  O78  1  0.34667160  0.16105892  0.59139707  1  0  -0.315533  -0.530959  0  2.197759  0
O  O79  1  0.34667069  0.66106027  0.40860177  1  0  -0.315531  -0.53101  0  2.197772  0
O  O80  1  0.19857594  0.22507536  0.47161374  1  0  -0.3283  -0.503408  0  2.334817  0
O  O81  1  0.19857564  0.72507438  0.52838437  1  0  -0.328314  -0.503467  0  2.334722  0
O  O82  1  0.34436536  0.37223473  0.37046083  1  0  -0.314657  -0.549876  0  2.29463  0
O  O83  1  0.34436710  0.87223558  0.62953934  1  0  -0.314662  -0.549898  0  2.294646  0
O  O84  1  0.75950188  0.49639134  0.34596383  1  0  -0.368414  -0.604529  0  2.294195  0
O  O85  1  0.75950171  0.99639223  0.65403495  1  0  -0.36838  -0.604508  0  2.294215  0
O  O86  1  0.82348271  0.71405478  0.26092807  1  0  -0.633559  -0.825284  0  2.149438  0
O  O87  1  0.82348179  0.21405534  0.73907189  1  0  -0.633549  -0.825249  0  2.149472  0
