# generated using pymatgen
data_Cd3H34C54(NO6)2
_symmetry_space_group_name_H-M   'P 1'
_cell_length_a   9.37218507
_cell_length_b   13.39627273
_cell_length_c   23.37602375
_cell_angle_alpha   94.65240420
_cell_angle_beta   90.00003955
_cell_angle_gamma   90.00007393
_symmetry_Int_Tables_number   1
_chemical_formula_structural   Cd3H34C54(NO6)2
_chemical_formula_sum   'Cd6 H68 C108 N4 O24'
_cell_volume   2925.24443012
_cell_formula_units_Z   2
loop_
 _symmetry_equiv_pos_site_id
 _symmetry_equiv_pos_as_xyz
  1  'x, y, z'
loop_
 _atom_site_type_symbol
 _atom_site_label
 _atom_site_symmetry_multiplicity
 _atom_site_fract_x
 _atom_site_fract_y
 _atom_site_fract_z
 _atom_site_occupancy
 _atom_site_pbe_bader_charge
 _atom_site_pbe_bader_spin_density
 _atom_site_pbe_cm5_charge
 _atom_site_pbe_ddec_charge
 _atom_site_pbe_ddec_spin_density
 _atom_site_pbe_ddec_sum_bond_order
 _atom_site_pbe_magmom
Cd  Cd0  1  0.64901714  0.97157709  0.04522478  1  1.310196  0  0.779479  0.952168  0  2.202684  0
Cd  Cd1  1  0.64901815  0.52842344  0.45477615  1  1.310163  0  0.779477  0.952175  0  2.202687  0
Cd  Cd2  1  0.35098303  0.02842229  0.95477496  1  1.310156  0  0.779462  0.952147  0  2.202677  0
Cd  Cd3  1  0.35098309  0.47157744  0.54522494  1  1.310158  0  0.779487  0.952181  0  2.202686  0
Cd  Cd4  1  0.99999982  0.50000058  0.49999984  1  1.407309  0  0.808772  1.1344  0  2.177876  0
Cd  Cd5  1  0.00000000  0.00000000  0.00000000  1  1.407316  0  0.808751  1.134352  0  2.177903  0
H  H6  1  0.82966650  0.66829487  0.27237772  1  0.06928  0  0.10301  0.10476  0  1.003988  0
H  H7  1  0.82966554  0.83170658  0.22762245  1  0.069422  0  0.103016  0.104763  0  1.004005  0
H  H8  1  0.17033474  0.33170451  0.72762202  1  0.069448  0  0.103035  0.104787  0  1.003929  0
H  H9  1  0.17033356  0.16829505  0.77237740  1  0.069272  0  0.103012  0.104763  0  1.003971  0
H  H10  1  0.01243331  0.66680702  0.19471018  1  0.084077  0  0.098241  0.100354  0  1.036343  0
H  H11  1  0.01243250  0.83319291  0.30528969  1  0.084078  0  0.098243  0.100359  0  1.036334  0
H  H12  1  0.98756685  0.33319236  0.80528956  1  0.084085  0  0.098245  0.100349  0  1.036387  0
H  H13  1  0.98756661  0.16680723  0.69471008  1  0.084087  0  0.098238  0.100344  0  1.036394  0
H  H14  1  0.28395582  0.48424205  0.29137098  1  0.067604  0  0.09392  0.086842  0  1.048838  0
H  H15  1  0.28395639  0.01575880  0.20862981  1  0.067457  0  0.093923  0.086833  0  1.048853  0
H  H16  1  0.71604328  0.51575734  0.70862919  1  0.067593  0  0.093942  0.086829  0  1.048857  0
H  H17  1  0.71604378  0.98424209  0.79137086  1  0.067599  0  0.093915  0.086819  0  1.048863  0
H  H18  1  0.10223413  0.48743437  0.36945886  1  0.113555  0  0.098763  0.105519  0  1.038318  0
H  H19  1  0.10223562  0.01256631  0.13054144  1  0.113589  0  0.09877  0.10553  0  1.03831  0
H  H20  1  0.89776604  0.51256577  0.63054134  1  0.113559  0  0.098767  0.105531  0  1.038314  0
H  H21  1  0.89776561  0.98743457  0.86945837  1  0.113568  0  0.098765  0.105508  0  1.038362  0
H  H22  1  0.37504771  0.55896642  0.21120966  1  0.050118  0  0.105765  0.085268  0  0.970082  0
H  H23  1  0.37504919  0.94103311  0.28878987  1  0.050107  0  0.105768  0.085272  0  0.970073  0
H  H24  1  0.62495246  0.44103222  0.78879005  1  0.050192  0  0.105764  0.08527  0  0.97009  0
H  H25  1  0.62494991  0.05896927  0.71121001  1  0.050168  0  0.105767  0.085271  0  0.970094  0
H  H26  1  0.02615241  0.44502501  0.17065301  1  0.063798  0  0.096551  0.098691  0  1.0247  0
H  H27  1  0.02615325  0.05497260  0.32934627  1  0.063777  0  0.096527  0.098647  0  1.024732  0
H  H28  1  0.97384669  0.55497288  0.82934623  1  0.063768  0  0.096528  0.098661  0  1.024715  0
H  H29  1  0.97384585  0.94503053  0.67065279  1  0.063717  0  0.096508  0.09865  0  1.024696  0
H  H30  1  0.00418615  0.28418586  0.10933102  1  0.080483  0  0.09977  0.101133  0  1.020773  0
H  H31  1  0.00418632  0.21581173  0.39066783  1  0.080368  0  0.099791  0.101173  0  1.020772  0
H  H32  1  0.99581402  0.71581203  0.89066780  1  0.080482  0  0.099783  0.101144  0  1.020802  0
H  H33  1  0.99581598  0.78419141  0.60933251  1  0.080551  0  0.099801  0.101193  0  1.020846  0
H  H34  1  0.45091225  0.29289708  0.07063114  1  0.083985  0  0.103954  0.111301  0  0.999338  0
H  H35  1  0.45091248  0.20710393  0.42936928  1  0.083861  0  0.103935  0.111296  0  0.999268  0
H  H36  1  0.54908791  0.70710306  0.92936864  1  0.084004  0  0.103943  0.111304  0  0.99925  0
H  H37  1  0.54909089  0.79289321  0.57063207  1  0.08389  0  0.103936  0.111307  0  0.999244  0
H  H38  1  0.47527924  0.45263238  0.13274963  1  0.064019  0  0.101304  0.103864  0  0.993297  0
H  H39  1  0.47527906  0.04736865  0.36725079  1  0.064027  0  0.101323  0.103902  0  0.993233  0
H  H40  1  0.52472200  0.54736775  0.86725057  1  0.064018  0  0.101328  0.103902  0  0.993289  0
H  H41  1  0.52472004  0.95262924  0.63274930  1  0.06407  0  0.101312  0.103884  0  0.993278  0
H  H42  1  0.46046121  0.71335360  0.19335258  1  0.043497  0  0.100163  0.099498  0  1.002722  0
H  H43  1  0.46046138  0.78664675  0.30664743  1  0.043623  0  0.100162  0.099487  0  1.002738  0
H  H44  1  0.53953789  0.28664578  0.80664716  1  0.043499  0  0.100161  0.099491  0  1.002707  0
H  H45  1  0.53953879  0.21335413  0.69335280  1  0.043625  0  0.100167  0.099514  0  1.002715  0
H  H46  1  0.47906421  0.85063932  0.12948329  1  0.122313  0  0.101358  0.110405  0  1.04225  0
H  H47  1  0.47906422  0.64936106  0.37051759  1  0.122321  0  0.101365  0.110405  0  1.042279  0
H  H48  1  0.52093596  0.14936082  0.87051734  1  0.122315  0  0.101358  0.110419  0  1.042248  0
H  H49  1  0.52093488  0.35063908  0.62948262  1  0.12231  0  0.101353  0.110408  0  1.042244  0
H  H50  1  0.10530593  0.73957211  0.03763482  1  0.088364  0  0.106537  0.114242  0  0.993672  0
H  H51  1  0.10530418  0.76042866  0.46236512  1  0.088354  0  0.106525  0.114231  0  0.993677  0
H  H52  1  0.89469637  0.26042803  0.96236539  1  0.088346  0  0.10653  0.114229  0  0.993675  0
H  H53  1  0.89469492  0.23957298  0.53763515  1  0.088361  0  0.10654  0.114263  0  0.993657  0
H  H54  1  0.09350284  0.59665681  0.09920969  1  0.061364  0  0.102534  0.105226  0  1.002524  0
H  H55  1  0.09350232  0.90334170  0.40078928  1  0.061576  0  0.102539  0.105218  0  1.00254  0
H  H56  1  0.90649839  0.40334183  0.90078916  1  0.061572  0  0.102537  0.105217  0  1.002534  0
H  H57  1  0.90649785  0.09665844  0.59921093  1  0.061583  0  0.10255  0.10522  0  1.002529  0
H  H58  1  0.40677511  0.06563265  0.13276205  1  0.105656  0  0.120591  0.095347  0  0.997272  0
H  H59  1  0.40677565  0.43436607  0.36723824  1  0.105669  0  0.120602  0.095384  0  0.997264  0
H  H60  1  0.59322506  0.93436599  0.86723808  1  0.105717  0  0.120595  0.095358  0  0.997286  0
H  H61  1  0.59322345  0.56563481  0.63276199  1  0.105669  0  0.120597  0.095372  0  0.997298  0
H  H62  1  0.39438970  0.16760856  0.22752074  1  0.079943  0  0.112284  0.118734  0  1.00502  0
H  H63  1  0.39438989  0.33239165  0.27247919  1  0.079954  0  0.112283  0.11872  0  1.00503  0
H  H64  1  0.60561047  0.83239158  0.77247903  1  0.079942  0  0.112301  0.118753  0  1.005076  0
H  H65  1  0.60561028  0.66760924  0.72752105  1  0.079961  0  0.11228  0.118713  0  1.005046  0
H  H66  1  0.82925847  0.25909616  0.19878085  1  0.051241  0  0.11296  0.120575  0  0.995536  0
H  H67  1  0.82925854  0.24090521  0.30121968  1  0.051247  0  0.112964  0.120576  0  0.995541  0
H  H68  1  0.17074170  0.74090548  0.80121856  1  0.051222  0  0.112961  0.120543  0  0.995567  0
H  H69  1  0.17074270  0.75909642  0.69878016  1  0.051237  0  0.112964  0.120545  0  0.995561  0
H  H70  1  0.82201452  0.15416333  0.10531492  1  0.14005  0  0.121964  0.103074  0  1.005578  0
H  H71  1  0.82201601  0.34583728  0.39468558  1  0.140061  0  0.121971  0.103103  0  1.005526  0
H  H72  1  0.17798352  0.84583755  0.89468489  1  0.140187  0  0.121978  0.103109  0  1.005534  0
H  H73  1  0.17798309  0.65416286  0.60531376  1  0.14005  0  0.121958  0.10307  0  1.005544  0
C  C74  1  0.84443787  0.57755627  0.37100246  1  1.51825  0  0.197961  0.582529  0  4.202949  0
C  C75  1  0.84443904  0.92244370  0.12899764  1  1.518215  0  0.197933  0.582466  0  4.203019  0
C  C76  1  0.15556123  0.42244386  0.62899774  1  1.518178  0  0.197956  0.582603  0  4.202911  0
C  C77  1  0.15556112  0.07755644  0.87100213  1  1.518221  0  0.197957  0.582515  0  4.202979  0
C  C78  1  0.95536180  0.57901798  0.32561525  1  -0.012647  0  -0.024957  -0.044436  0  3.99553  0
C  C79  1  0.95536305  0.92098360  0.17438454  1  -0.012668  0  -0.024947  -0.044336  0  3.995674  0
C  C80  1  0.04463730  0.42098216  0.67438410  1  -0.012642  0  -0.024948  -0.044402  0  3.995687  0
C  C81  1  0.04463605  0.07901804  0.82561531  1  -0.012617  0  -0.024954  -0.044433  0  3.99564  0
C  C82  1  0.93026414  0.62844767  0.27611084  1  -0.020121  0  -0.083359  -0.08571  0  3.986731  0
C  C83  1  0.93026325  0.87155388  0.22388893  1  -0.020065  0  -0.083393  -0.085796  0  3.986887  0
C  C84  1  0.06973390  0.37155172  0.72388847  1  -0.02007  0  -0.083391  -0.085763  0  3.986791  0
C  C85  1  0.06973478  0.12844850  0.77611095  1  -0.0201  0  -0.083338  -0.085675  0  3.986704  0
C  C86  1  0.03210855  0.62658861  0.23261803  1  -0.031837  0  -0.094101  -0.143358  0  3.988947  0
C  C87  1  0.03210774  0.87341134  0.26738184  1  -0.032145  0  -0.094081  -0.143306  0  3.988846  0
C  C88  1  0.96789055  0.37340928  0.76738207  1  -0.032223  0  -0.094102  -0.143311  0  3.988871  0
C  C89  1  0.96789136  0.12659030  0.73261800  1  -0.031868  0  -0.094117  -0.143375  0  3.988913  0
C  C90  1  0.15981939  0.57393640  0.23768943  1  -0.128183  0  -0.003393  0.101731  0  3.94649  0
C  C91  1  0.15981973  0.92606367  0.26231049  1  -0.12816  0  -0.003392  0.101698  0  3.946442  0
C  C92  1  0.84018078  0.42606224  0.76231027  1  -0.128177  0  -0.003364  0.101696  0  3.946342  0
C  C93  1  0.84017937  0.07393796  0.73769021  1  -0.128354  0  -0.003362  0.101737  0  3.946395  0
C  C94  1  0.18418937  0.52494437  0.28749509  1  -0.031373  0  -0.097148  -0.144885  0  4.006574  0
C  C95  1  0.18419079  0.97505572  0.21250526  1  -0.031176  0  -0.097156  -0.144856  0  4.006558  0
C  C96  1  0.81580973  0.47505502  0.71250508  1  -0.03136  0  -0.097197  -0.144867  0  4.006582  0
C  C97  1  0.81580938  0.02494516  0.78749498  1  -0.031189  0  -0.097167  -0.144856  0  4.006547  0
C  C98  1  0.08388302  0.52713795  0.33122223  1  -0.044495  0  -0.088342  -0.084584  0  3.97778  0
C  C99  1  0.08388329  0.97286205  0.16877809  1  -0.044602  0  -0.088324  -0.08461  0  3.977776  0
C  C100  1  0.91611715  0.47286144  0.66877794  1  -0.044495  0  -0.088334  -0.084613  0  3.977804  0
C  C101  1  0.91611687  0.02713883  0.83122215  1  -0.044505  0  -0.08834  -0.084601  0  3.977862  0
C  C102  1  0.27002736  0.56076823  0.19011512  1  0.029721  0  -0.070471  -0.114402  0  3.923682  0
C  C103  1  0.27002781  0.93922970  0.30988515  1  0.029703  0  -0.070488  -0.114447  0  3.92373  0
C  C104  1  0.72997174  0.43923041  0.80988458  1  0.029645  0  -0.070501  -0.114445  0  3.923628  0
C  C105  1  0.72997022  0.06076968  0.69011544  1  0.02969  0  -0.070496  -0.114412  0  3.923648  0
C  C106  1  0.25217441  0.46001144  0.15549222  1  0.004941  0  -0.004746  0.095926  0  3.949058  0
C  C107  1  0.25217525  0.03998788  0.34450806  1  0.00541  0  -0.004668  0.09606  0  3.949091  0
C  C108  1  0.74782363  0.53998795  0.84450838  1  0.005539  0  -0.004688  0.096035  0  3.949091  0
C  C109  1  0.74782385  0.96001150  0.65549210  1  0.005105  0  -0.00467  0.096101  0  3.949101  0
C  C110  1  0.11978581  0.41171964  0.14890996  1  -0.103909  0  -0.100471  -0.150712  0  4.005542  0
C  C111  1  0.11978568  0.08827881  0.35109024  1  -0.103933  0  -0.100464  -0.150688  0  4.005571  0
C  C112  1  0.88021543  0.58827825  0.85108971  1  -0.104085  0  -0.100488  -0.150724  0  4.005595  0
C  C113  1  0.88021342  0.91172358  0.64891092  1  -0.104208  0  -0.100447  -0.15071  0  4.00561  0
C  C114  1  0.10704267  0.32167362  0.11490465  1  -0.001297  0  -0.090077  -0.093066  0  3.997794  0
C  C115  1  0.10704277  0.17832406  0.38509509  1  -0.000949  0  -0.090084  -0.093136  0  3.997939  0
C  C116  1  0.89295857  0.67832426  0.88509459  1  -0.001257  0  -0.090059  -0.093096  0  3.997902  0
C  C117  1  0.89296274  0.82167757  0.61490690  1  -0.001152  0  -0.090094  -0.093191  0  3.997896  0
C  C118  1  0.22607141  0.27874253  0.08638346  1  -0.057798  0  -0.02449  -0.043666  0  3.980112  0
C  C119  1  0.22606950  0.22125602  0.41361592  1  -0.058038  0  -0.024547  -0.04364  0  3.980147  0
C  C120  1  0.77392982  0.72125611  0.91361582  1  -0.057802  0  -0.024523  -0.043578  0  3.980051  0
C  C121  1  0.77393173  0.77874262  0.58638592  1  -0.057947  0  -0.024546  -0.043631  0  3.979922  0
C  C122  1  0.35882706  0.32664430  0.09311797  1  -0.014296  0  -0.085421  -0.084097  0  3.990892  0
C  C123  1  0.35882505  0.17335587  0.40688195  1  -0.01416  0  -0.085395  -0.084111  0  3.99085  0
C  C124  1  0.64117418  0.67335434  0.90688174  1  -0.014283  0  -0.085393  -0.084093  0  3.990802  0
C  C125  1  0.64117405  0.82664277  0.59311946  1  -0.014142  0  -0.08538  -0.084091  0  3.990777  0
C  C126  1  0.37162568  0.41567833  0.12766949  1  -0.090706  0  -0.096181  -0.146036  0  4.002926  0
C  C127  1  0.37162451  0.08432035  0.37233037  1  -0.091175  0  -0.096223  -0.146119  0  4.002936  0
C  C128  1  0.62837449  0.58431956  0.87233018  1  -0.091187  0  -0.096235  -0.146154  0  4.002983  0
C  C129  1  0.62837459  0.91567903  0.62767065  1  -0.090729  0  -0.096218  -0.146138  0  4.002988  0
C  C130  1  0.21374439  0.18342820  0.04812360  1  1.579118  0  0.208406  0.591208  0  4.207374  0
C  C131  1  0.21374272  0.31657184  0.45187628  1  1.579187  0  0.20838  0.591139  0  4.207476  0
C  C132  1  0.78625791  0.81657194  0.95187661  1  1.579179  0  0.208346  0.590992  0  4.207731  0
C  C133  1  0.78625958  0.68342680  0.54812514  1  1.579168  0  0.20845  0.591261  0  4.207386  0
C  C134  1  0.27512333  0.64612392  0.15120722  1  -0.020591  0  0.002796  0.109947  0  3.931386  0
C  C135  1  0.27512263  0.85387626  0.34879231  1  -0.02063  0  0.002823  0.110023  0  3.931326  0
C  C136  1  0.72487683  0.35387472  0.84879249  1  -0.020583  0  0.002849  0.110089  0  3.931448  0
C  C137  1  0.72487647  0.14612612  0.65120757  1  -0.02058  0  0.002811  0.109943  0  3.931375  0
C  C138  1  0.38226598  0.71889363  0.15910541  1  -0.067898  0  -0.089415  -0.135686  0  3.970727  0
C  C139  1  0.38226619  0.78110591  0.34089412  1  -0.067866  0  -0.089393  -0.13566  0  3.970691  0
C  C140  1  0.61773526  0.28110651  0.84089479  1  -0.068466  0  -0.089409  -0.1357  0  3.970807  0
C  C141  1  0.61773504  0.21889348  0.65910605  1  -0.067859  0  -0.089433  -0.135739  0  3.970844  0
C  C142  1  0.39213992  0.79687649  0.12339244  1  -0.02368  0  -0.081075  -0.074954  0  3.954849  0
C  C143  1  0.39213898  0.70312380  0.37660798  1  -0.023689  0  -0.081066  -0.074933  0  3.954909  0
C  C144  1  0.60786132  0.20312289  0.87660816  1  -0.023121  0  -0.081061  -0.074969  0  3.954896  0
C  C145  1  0.60786119  0.29687709  0.62339225  1  -0.023734  0  -0.081057  -0.074944  0  3.954892  0
C  C146  1  0.29176842  0.80445144  0.07950143  1  -0.036923  0  -0.024273  -0.053649  0  3.994589  0
C  C147  1  0.29176861  0.69554801  0.42049892  1  -0.036959  0  -0.024293  -0.053682  0  3.994692  0
C  C148  1  0.70823175  0.19554795  0.92049874  1  -0.036963  0  -0.024312  -0.053686  0  3.994695  0
C  C149  1  0.70823049  0.30445287  0.57950132  1  -0.036928  0  -0.024262  -0.053604  0  3.994576  0
C  C150  1  0.18273934  0.73277391  0.07187482  1  -0.013063  0  -0.079568  -0.074484  0  3.963081  0
C  C151  1  0.18273968  0.76722543  0.42812507  1  -0.013002  0  -0.079569  -0.07449  0  3.963081  0
C  C152  1  0.81726189  0.26722548  0.92812492  1  -0.013028  0  -0.079556  -0.074449  0  3.962996  0
C  C153  1  0.81726156  0.23277395  0.57187510  1  -0.013024  0  -0.07964  -0.074626  0  3.963097  0
C  C154  1  0.17575693  0.65380325  0.10685389  1  -0.031873  0  -0.091823  -0.140122  0  3.979972  0
C  C155  1  0.17575522  0.84619608  0.39314515  1  -0.032098  0  -0.091885  -0.1402  0  3.979971  0
C  C156  1  0.82424430  0.34619613  0.89314543  1  -0.032064  0  -0.091883  -0.140221  0  3.979977  0
C  C157  1  0.82424495  0.15380480  0.60685424  1  -0.032106  0  -0.091806  -0.140032  0  3.97988  0
C  C158  1  0.29878603  0.88577296  0.04004840  1  1.527349  0  0.214197  0.600514  0  4.159269  0
C  C159  1  0.29878614  0.61422724  0.45995156  1  1.527323  0  0.21424  0.600562  0  4.159439  0
C  C160  1  0.70121414  0.11422717  0.95995180  1  1.52733  0  0.214197  0.600498  0  4.159409  0
C  C161  1  0.70121403  0.38577365  0.54004825  1  1.527333  0  0.214211  0.600518  0  4.159355  0
C  C162  1  0.49736984  0.11025866  0.14927262  1  0.546227  0  0.054545  0.105368  0  3.947827  0
C  C163  1  0.49737027  0.38974090  0.35072774  1  0.546252  0  0.054536  0.105262  0  3.947853  0
C  C164  1  0.50262926  0.88974148  0.85072758  1  0.546074  0  0.054537  0.105312  0  3.947883  0
C  C165  1  0.50262884  0.61025924  0.64927203  1  0.546276  0  0.054525  0.10526  0  3.947885  0
C  C166  1  0.49134039  0.16709691  0.20173912  1  -0.100426  0  -0.077748  -0.172383  0  3.934596  0
C  C167  1  0.49134169  0.33290264  0.29826081  1  -0.100431  0  -0.077747  -0.172324  0  3.93463  0
C  C168  1  0.50865871  0.83290248  0.79826019  1  -0.100292  0  -0.077783  -0.17241  0  3.93465  0
C  C169  1  0.50865741  0.66709750  0.70173896  1  -0.100438  0  -0.077717  -0.172289  0  3.934592  0
C  C170  1  0.61230478  0.22080174  0.22178477  1  0.005435  0  0.015324  0.107118  0  3.978317  0
C  C171  1  0.61230595  0.27919867  0.27821566  1  0.043541  0  0.015322  0.107108  0  3.978438  0
C  C172  1  0.38769432  0.77919915  0.77821504  1  0.043538  0  0.015335  0.107094  0  3.978435  0
C  C173  1  0.38769315  0.72080221  0.72178414  1  0.005438  0  0.015313  0.107085  0  3.978481  0
C  C174  1  0.73318797  0.21692299  0.18620152  1  -0.003297  0  -0.077439  -0.170629  0  3.923142  0
C  C175  1  0.73318814  0.28307679  0.31379849  1  -0.003338  0  -0.077456  -0.170633  0  3.923266  0
C  C176  1  0.26681113  0.78307715  0.81379783  1  -0.003329  0  -0.077431  -0.170509  0  3.923199  0
C  C177  1  0.26681096  0.71692410  0.68620089  1  -0.003355  0  -0.077466  -0.170579  0  3.92328  0
C  C178  1  0.72984074  0.15937419  0.13391397  1  0.493416  0  0.05301  0.104991  0  3.926813  0
C  C179  1  0.72984003  0.34062483  0.36608557  1  0.493418  0  0.052965  0.104871  0  3.926759  0
C  C180  1  0.27015943  0.84062519  0.86608448  1  0.493229  0  0.052964  0.104868  0  3.926655  0
C  C181  1  0.27016013  0.65937530  0.63391463  1  0.493419  0  0.053002  0.104939  0  3.926661  0
N  N182  1  0.61456553  0.10553971  0.11603166  1  -1.222364  0  -0.321  -0.237848  0  3.478591  0
N  N183  1  0.61456495  0.39446070  0.38396877  1  -1.22237  0  -0.320949  -0.237701  0  3.478469  0
N  N184  1  0.38543678  0.89446117  0.88396815  1  -1.222268  0  -0.320951  -0.237747  0  3.478377  0
N  N185  1  0.38543521  0.60553944  0.61603143  1  -1.222393  0  -0.320979  -0.237767  0  3.478413  0
O  O186  1  0.87933368  0.53837445  0.41803285  1  -1.182755  0  -0.351787  -0.627005  0  2.423774  0
O  O187  1  0.87933485  0.96162630  0.08196645  1  -1.182736  0  -0.351774  -0.627009  0  2.423789  0
O  O188  1  0.12066542  0.46162643  0.58196696  1  -1.182741  0  -0.35179  -0.627062  0  2.423769  0
O  O189  1  0.12066531  0.03837309  0.91803329  1  -1.182757  0  -0.351791  -0.627025  0  2.423792  0
O  O190  1  0.71945423  0.60793266  0.36264627  1  -1.163858  0  -0.326874  -0.550951  0  2.130775  0
O  O191  1  0.71945536  0.89206720  0.13735337  1  -1.163828  0  -0.326858  -0.55089  0  2.130755  0
O  O192  1  0.28054487  0.39206823  0.63735354  1  -1.163829  0  -0.326852  -0.550956  0  2.130756  0
O  O193  1  0.28054587  0.10793294  0.86264683  1  -1.163845  0  -0.326874  -0.550926  0  2.130765  0
O  O194  1  0.40553494  0.94617485  0.04159758  1  -1.171033  0  -0.332253  -0.576351  0  2.372008  0
O  O195  1  0.40553280  0.55382620  0.45840246  1  -1.170958  0  -0.332296  -0.576387  0  2.372152  0
O  O196  1  0.59446629  0.05382603  0.95840266  1  -1.170964  0  -0.332258  -0.576352  0  2.372095  0
O  O197  1  0.59446630  0.44617469  0.54159778  1  -1.171008  0  -0.332263  -0.576347  0  2.372059  0
O  O198  1  0.19813712  0.89418923  0.00398199  1  -1.197075  0  -0.330377  -0.598015  0  2.335407  0
O  O199  1  0.19813834  0.60581088  0.49601837  1  -1.197069  0  -0.330377  -0.598027  0  2.335432  0
O  O200  1  0.80186198  0.10581091  0.99601821  1  -1.19708  0  -0.330379  -0.598002  0  2.335407  0
O  O201  1  0.80186183  0.39418926  0.50398183  1  -1.197072  0  -0.330378  -0.598024  0  2.335414  0
O  O202  1  0.10188996  0.13030707  0.05321310  1  -1.16967  0  -0.33237  -0.587015  0  2.288857  0
O  O203  1  0.10188838  0.36969211  0.44678670  1  -1.169691  0  -0.332368  -0.587001  0  2.288913  0
O  O204  1  0.89811021  0.86969157  0.94678618  1  -1.1697  0  -0.332337  -0.586894  0  2.288973  0
O  O205  1  0.89811499  0.63030803  0.55321478  1  -1.169752  0  -0.332375  -0.587033  0  2.288977  0
O  O206  1  0.31807220  0.16447782  0.01422488  1  -1.165533  0  -0.330582  -0.549466  0  2.295394  0
O  O207  1  0.31807063  0.33552157  0.48577499  1  -1.165547  0  -0.330568  -0.549452  0  2.295482  0
O  O208  1  0.68193010  0.83552157  0.98577400  1  -1.165547  0  -0.330584  -0.54943  0  2.295594  0
O  O209  1  0.68193061  0.66447707  0.51422728  1  -1.165474  0  -0.330638  -0.549539  0  2.295367  0
