# generated using pymatgen
data_ErH10(C3O2)4
_symmetry_space_group_name_H-M   'P 1'
_cell_length_a   6.12190324
_cell_length_b   9.98684746
_cell_length_c   10.01451568
_cell_angle_alpha   102.76736802
_cell_angle_beta   91.44390907
_cell_angle_gamma   100.33342857
_symmetry_Int_Tables_number   1
_chemical_formula_structural   ErH10(C3O2)4
_chemical_formula_sum   'Er2 H20 C24 O16'
_cell_volume   586.10624895
_cell_formula_units_Z   2
loop_
 _symmetry_equiv_pos_site_id
 _symmetry_equiv_pos_as_xyz
  1  'x, y, z'
loop_
 _atom_site_type_symbol
 _atom_site_label
 _atom_site_symmetry_multiplicity
 _atom_site_fract_x
 _atom_site_fract_y
 _atom_site_fract_z
 _atom_site_occupancy
 _atom_site_pbe_bader_spin_density
 _atom_site_pbe_cm5_charge
 _atom_site_pbe_ddec_charge
 _atom_site_pbe_ddec_spin_density
 _atom_site_pbe_ddec_sum_bond_order
 _atom_site_pbe_magmom
Er  Er0  1  0.01457843  0.51582052  0.75822127  1  0  1.494368  2.133754  0  2.093873  0
Er  Er1  1  0.98540624  0.48418922  0.24177796  1  0  1.494343  2.133668  0  2.09406  0
H  H2  1  0.72897207  0.47474586  0.51576582  1  0  0.303816  0.388109  0  0.953181  0
H  H3  1  0.27102599  0.52525966  0.48423769  1  0  0.303848  0.388207  0  0.953054  0
H  H4  1  0.55549564  0.45953495  0.62690173  1  0  0.309578  0.404257  0  0.913486  0
H  H5  1  0.44449980  0.54046742  0.37309807  1  0  0.309584  0.404338  0  0.91339  0
H  H6  1  0.26844012  0.39249441  0.95975262  1  0  0.304474  0.402966  0  0.927555  0
H  H7  1  0.73155433  0.60749961  0.04024837  1  0  0.304469  0.402926  0  0.92758  0
H  H8  1  0.43066208  0.44867710  0.85709610  1  0  0.305407  0.396206  0  0.931994  0
H  H9  1  0.56932877  0.55131586  0.14289961  1  0  0.305387  0.396239  0  0.931942  0
H  H10  1  0.75731828  0.84320209  0.03593660  1  0  0.106415  0.108656  0  1.005113  0
H  H11  1  0.24269280  0.15679288  0.96406085  1  0  0.106404  0.108699  0  1.00506  0
H  H12  1  0.84920408  0.10443922  0.08763376  1  0  0.108836  0.108086  0  1.032886  0
H  H13  1  0.15080245  0.89555686  0.91237185  1  0  0.108834  0.108095  0  1.032831  0
H  H14  1  0.59446615  0.09924480  0.68298996  1  0  0.109859  0.117385  0  0.992645  0
H  H15  1  0.40553776  0.90075336  0.31701106  1  0  0.109887  0.117452  0  0.99255  0
H  H16  1  0.47825653  0.83783082  0.63593798  1  0  0.10893  0.117111  0  0.995387  0
H  H17  1  0.52174413  0.16216736  0.36406499  1  0  0.108952  0.117171  0  0.995349  0
H  H18  1  0.85558360  0.04300291  0.28276902  1  0  0.104347  0.105747  0  1.030932  0
H  H19  1  0.14442031  0.95700044  0.71722613  1  0  0.104339  0.105755  0  1.030902  0
H  H20  1  0.18711021  0.20104683  0.68522334  1  0  0.106739  0.1127  0  1.040943  0
H  H21  1  0.81288653  0.79895448  0.31477626  1  0  0.106726  0.11267  0  1.040968  0
C  C22  1  0.55711056  0.66998744  0.80242556  1  0  0.234459  0.625355  0  4.152499  0
C  C23  1  0.44289662  0.33001071  0.19757751  1  0  0.234538  0.625419  0  4.152666  0
C  C24  1  0.61420512  0.82523058  0.83240204  1  0  -0.008022  -0.02847  0  3.948811  0
C  C25  1  0.38579684  0.17476654  0.16759873  1  0  -0.00809  -0.028604  0  3.949047  0
C  C26  1  0.71929330  0.89961160  0.95961865  1  0  -0.076924  -0.082793  0  3.959488  0
C  C27  1  0.28071355  0.10038550  0.04038319  1  0  -0.076855  -0.082708  0  3.959386  0
C  C28  1  0.77159411  0.04446510  0.98845649  1  0  -0.078571  -0.091168  0  3.984615  0
C  C29  1  0.22840883  0.95552993  0.01154684  1  0  -0.078605  -0.091178  0  3.984572  0
C  C30  1  0.73009696  0.11630169  0.88823340  1  0  -0.012924  -0.044859  0  3.945636  0
C  C31  1  0.26989913  0.88369756  0.11176974  1  0  -0.012942  -0.044991  0  3.945929  0
C  C32  1  0.62505578  0.04214389  0.76038656  1  0  -0.076159  -0.084875  0  3.951167  0
C  C33  1  0.37494455  0.95785325  0.23961719  1  0  -0.076149  -0.084857  0  3.951134  0
C  C34  1  0.56234622  0.89731098  0.73390272  1  0  -0.077034  -0.088629  0  3.940388  0
C  C35  1  0.43765151  0.10268826  0.26610044  1  0  -0.077075  -0.088726  0  3.940526  0
C  C36  1  0.80748518  0.27106650  0.91869709  1  0  0.23924  0.671717  0  4.119392  0
C  C37  1  0.19251874  0.72893689  0.08130606  1  0  0.239325  0.671805  0  4.119306  0
C  C38  1  0.04841167  0.28191813  0.46033096  1  0  0.242359  0.664398  0  4.099909  0
C  C39  1  0.95158212  0.71808422  0.53966382  1  0  0.242275  0.664295  0  4.099964  0
C  C40  1  0.02259363  0.13672450  0.48160069  1  0  -0.009916  -0.041865  0  3.945071  0
C  C41  1  0.97741844  0.86327881  0.51839458  1  0  -0.009919  -0.041931  0  3.944979  0
C  C42  1  0.91743851  0.02306497  0.37784031  1  0  -0.078549  -0.084169  0  3.959678  0
C  C43  1  0.08256867  0.97693837  0.62215588  1  0  -0.078483  -0.084063  0  3.959518  0
C  C44  1  0.10590814  0.11280472  0.60429266  1  0  -0.076692  -0.089502  0  3.944565  0
C  C45  1  0.89409251  0.88719866  0.39570544  1  0  -0.076663  -0.089415  0  3.944421  0
O  O46  1  0.67663567  0.60222170  0.86033406  1  0  -0.351263  -0.673197  0  2.320325  0
O  O47  1  0.32336890  0.39777331  0.13966530  1  0  -0.351281  -0.673242  0  2.320338  0
O  O48  1  0.39216320  0.60690834  0.71831558  1  0  -0.371103  -0.654444  0  2.342298  0
O  O49  1  0.60784692  0.39309394  0.28168044  1  0  -0.371107  -0.654389  0  2.342386  0
O  O50  1  0.80882799  0.33208992  0.81989307  1  0  -0.410019  -0.66516  0  2.315962  0
O  O51  1  0.19117233  0.66790718  0.18010368  1  0  -0.41005  -0.665148  0  2.31594  0
O  O52  1  0.87419093  0.33416440  0.04176192  1  0  -0.419288  -0.714426  0  2.3967  0
O  O53  1  0.12580386  0.66583590  0.95824143  1  0  -0.419334  -0.714457  0  2.39661  0
O  O54  1  0.11931847  0.38468097  0.56334466  1  0  -0.407514  -0.697319  0  2.364755  0
O  O55  1  0.88068381  0.61532239  0.43665047  1  0  -0.407486  -0.697217  0  2.364942  0
O  O56  1  0.00461198  0.29874408  0.34131169  1  0  -0.384232  -0.662729  0  2.319531  0
O  O57  1  0.99538312  0.70125724  0.65868689  1  0  -0.38426  -0.662795  0  2.319461  0
O  O58  1  0.69320928  0.43022534  0.59345841  1  0  -0.624304  -0.818917  0  2.08855  0
O  O59  1  0.30678551  0.56977497  0.40654594  1  0  -0.624344  -0.819107  0  2.088482  0
O  O60  1  0.27664979  0.40072740  0.86322686  1  0  -0.616308  -0.833937  0  2.087555  0
O  O61  1  0.72334304  0.59927709  0.13677636  1  0  -0.616274  -0.833901  0  2.087643  0
