# generated using pymatgen
data_CdH8(C4N)4
_symmetry_space_group_name_H-M   'P 1'
_cell_length_a   7.35196659
_cell_length_b   8.27017546
_cell_length_c   12.47507808
_cell_angle_alpha   103.20494451
_cell_angle_beta   107.11918450
_cell_angle_gamma   90.03585634
_symmetry_Int_Tables_number   1
_chemical_formula_structural   CdH8(C4N)4
_chemical_formula_sum   'Cd2 H16 C32 N8'
_cell_volume   703.85713533
_cell_formula_units_Z   2
loop_
 _symmetry_equiv_pos_site_id
 _symmetry_equiv_pos_as_xyz
  1  'x, y, z'
loop_
 _atom_site_type_symbol
 _atom_site_label
 _atom_site_symmetry_multiplicity
 _atom_site_fract_x
 _atom_site_fract_y
 _atom_site_fract_z
 _atom_site_occupancy
 _atom_site_hle17_bader_spin_density
 _atom_site_hle17_ddec_charge
 _atom_site_hle17_ddec_spin_density
 _atom_site_hle17_ddec_sum_bond_order
 _atom_site_hle17_magmom
 _atom_site_hse06_10hf_bader_spin_density
 _atom_site_hse06_10hf_ddec_charge
 _atom_site_hse06_10hf_ddec_spin_density
 _atom_site_hse06_10hf_ddec_sum_bond_order
 _atom_site_hse06_10hf_magmom
 _atom_site_hse06_bader_spin_density
 _atom_site_hse06_ddec_charge
 _atom_site_hse06_ddec_spin_density
 _atom_site_hse06_ddec_sum_bond_order
 _atom_site_hse06_magmom
 _atom_site_pbe_bader_spin_density
 _atom_site_pbe_cm5_charge
 _atom_site_pbe_ddec_charge
 _atom_site_pbe_ddec_spin_density
 _atom_site_pbe_ddec_sum_bond_order
 _atom_site_pbe_magmom
Cd  Cd0  1  0.00000801  0.00000433  0.50000173  1  0  0.852596  0  2.137826  0  0  0.664288  0  2.60579  0  0  0.70684  0  2.567389  0  0  0.664253  0.634841  0  2.631585  0
Cd  Cd1  1  0.49999796  0.50000083  0.49999987  1  0  0.853274  0  2.138106  0  0  0.66522  0  2.606276  0  0  0.707725  0  2.567803  0  0  0.664669  0.63577  0  2.632149  0
H  H2  1  0.88283475  0.76776466  0.22299918  1  0  0.076761  0  0.936193  0  0  0.085346  0  0.999735  0  0  0.087618  0  0.998235  0  0  0.113494  0.083674  0  1.000867  0
H  H3  1  0.65933119  0.73240922  0.77672911  1  0  0.076954  0  0.936057  0  0  0.085892  0  0.999235  0  0  0.088082  0  0.997831  0  0  0.113556  0.084204  0  1.000405  0
H  H4  1  0.11716571  0.23222459  0.77699687  1  0  0.076751  0  0.936188  0  0  0.085337  0  0.999721  0  0  0.087603  0  0.998232  0  0  0.113492  0.083665  0  1.000851  0
H  H5  1  0.34066577  0.26758599  0.22327776  1  0  0.076988  0  0.936113  0  0  0.085915  0  0.999286  0  0  0.088106  0  0.99789  0  0  0.113593  0.084223  0  1.000469  0
H  H6  1  0.59892725  0.60022199  0.07687740  1  0  0.10217  0  0.96609  0  0  0.110291  0  1.031379  0  0  0.113307  0  1.031135  0  0  0.103197  0.108119  0  1.03174  0
H  H7  1  0.52137380  0.90071986  0.92245823  1  0  0.102293  0  0.966789  0  0  0.110879  0  1.031691  0  0  0.113854  0  1.031467  0  0  0.103074  0.108729  0  1.031991  0
H  H8  1  0.40107945  0.39977346  0.92312071  1  0  0.10213  0  0.966233  0  0  0.11027  0  1.031499  0  0  0.113285  0  1.031256  0  0  0.103187  0.108098  0  1.03186  0
H  H9  1  0.47862376  0.09928431  0.07754138  1  0  0.10224  0  0.966741  0  0  0.11083  0  1.03166  0  0  0.113805  0  1.031434  0  0  0.103048  0.108681  0  1.03196  0
H  H10  1  0.25073594  0.88333063  0.26947451  1  0  0.12021  0  0.951287  0  0  0.128428  0  1.012145  0  0  0.131736  0  1.010936  0  0  0.110495  0.126037  0  1.013178  0
H  H11  1  0.98078632  0.61658982  0.73054548  1  0  0.120053  0  0.950812  0  0  0.127598  0  1.012643  0  0  0.130926  0  1.011408  0  0  0.11033  0.125196  0  1.013689  0
H  H12  1  0.74927178  0.11667322  0.73053716  1  0  0.120214  0  0.951322  0  0  0.128477  0  1.012129  0  0  0.131763  0  1.010943  0  0  0.110506  0.126084  0  1.013161  0
H  H13  1  0.01920422  0.38341564  0.26945237  1  0  0.119968  0  0.950884  0  0  0.127531  0  1.012721  0  0  0.130863  0  1.01148  0  0  0.110289  0.125131  0  1.013766  0
H  H14  1  0.54914906  0.03758558  0.40597633  1  0  0.079767  0  0.952349  0  0  0.086911  0  1.019047  0  0  0.088371  0  1.018946  0  0  0.112669  0.085826  0  1.019193  0
H  H15  1  0.14277304  0.46190479  0.59422741  1  0  0.080565  0  0.952711  0  0  0.087525  0  1.019618  0  0  0.088966  0  1.019503  0  0  0.112832  0.086436  0  1.019766  0
H  H16  1  0.45086352  0.96241098  0.59402695  1  0  0.079799  0  0.952307  0  0  0.086944  0  1.019009  0  0  0.088361  0  1.018952  0  0  0.112668  0.085859  0  1.019154  0
H  H17  1  0.85721985  0.53809435  0.40577301  1  0  0.080608  0  0.952762  0  0  0.08757  0  1.019651  0  0  0.089012  0  1.019536  0  0  0.112868  0.086482  0  1.0198  0
C  C18  1  0.73952390  0.79031283  0.22925821  1  0  0.122928  0  3.738128  0  0  0.094138  0  3.993093  0  0  0.100177  0  4.011502  0  0  0.045148  0.090252  0  3.980446  0
C  C19  1  0.50970277  0.70993453  0.77049563  1  0  0.123046  0  3.739385  0  0  0.093997  0  3.994263  0  0  0.100092  0  4.012695  0  0  0.045564  0.090099  0  3.98165  0
C  C20  1  0.26048147  0.20968391  0.77073829  1  0  0.123086  0  3.737992  0  0  0.094301  0  3.992951  0  0  0.100342  0  4.01136  0  0  0.045241  0.09041  0  3.980304  0
C  C21  1  0.49028903  0.29006835  0.22950522  1  0  0.123016  0  3.739544  0  0  0.093992  0  3.994407  0  0  0.100077  0  4.012834  0  0  0.04559  0.090092  0  3.98181  0
C  C22  1  0.58096838  0.69643965  0.14803345  1  0  -0.159362  0  3.689175  0  0  -0.176279  0  3.933436  0  0  -0.182919  0  3.953168  0  0  -0.081349  -0.171924  0  3.920102  0
C  C23  1  0.43234448  0.80413605  0.85151453  1  0  -0.159933  0  3.689517  0  0  -0.177357  0  3.933899  0  0  -0.18397  0  3.953668  0  0  -0.081355  -0.173025  0  3.920608  0
C  C24  1  0.41903047  0.30356328  0.85196537  1  0  -0.159408  0  3.689261  0  0  -0.176358  0  3.933547  0  0  -0.183  0  3.953282  0  0  -0.081429  -0.172005  0  3.920213  0
C  C25  1  0.56764498  0.19587315  0.14848375  1  0  -0.159868  0  3.68951  0  0  -0.177326  0  3.9339  0  0  -0.183938  0  3.953672  0  0  -0.081346  -0.172992  0  3.920611  0
C  C26  1  0.39938586  0.72451615  0.16243687  1  0  0.149243  0  3.888121  0  0  0.158369  0  4.120428  0  0  0.164302  0  4.140023  0  0  0.014701  0.154518  0  4.10699  0
C  C27  1  0.23642754  0.77582298  0.83724592  1  0  0.148983  0  3.88798  0  0  0.157646  0  4.120806  0  0  0.163552  0  4.140444  0  0  0.013924  0.153807  0  4.10734  0
C  C28  1  0.60060994  0.27548428  0.83756184  1  0  0.149222  0  3.887632  0  0  0.158337  0  4.119955  0  0  0.164274  0  4.139548  0  0  0.014746  0.154481  0  4.106516  0
C  C29  1  0.76356604  0.22418500  0.16275124  1  0  0.148898  0  3.888083  0  0  0.157617  0  4.120818  0  0  0.163524  0  4.14045  0  0  0.013937  0.15378  0  4.107356  0
C  C30  1  0.38705287  0.85373386  0.25520720  1  0  -0.129829  0  3.643091  0  0  -0.14687  0  3.883205  0  0  -0.153463  0  3.90294  0  0  -0.067995  -0.142597  0  3.870045  0
C  C31  1  0.13130258  0.64631686  0.74467386  1  0  -0.129652  0  3.639884  0  0  -0.146217  0  3.880452  0  0  -0.152806  0  3.900144  0  0  -0.068094  -0.141944  0  3.867283  0
C  C32  1  0.61295570  0.14626657  0.74479203  1  0  -0.129871  0  3.643144  0  0  -0.146944  0  3.883248  0  0  -0.153516  0  3.902982  0  0  -0.06803  -0.142669  0  3.870081  0
C  C33  1  0.86869068  0.35368736  0.25532344  1  0  -0.129454  0  3.639952  0  0  -0.146053  0  3.880482  0  0  -0.152643  0  3.900174  0  0  -0.068011  -0.14178  0  3.867314  0
C  C34  1  0.55407872  0.93997217  0.33162029  1  0  0.134125  0  3.711698  0  0  0.105167  0  3.963585  0  0  0.110824  0  3.98352  0  0  0.0482  0.101507  0  3.950002  0
C  C35  1  0.22197580  0.55983210  0.66837453  1  0  0.132299  0  3.709776  0  0  0.103569  0  3.961422  0  0  0.109259  0  3.981378  0  0  0.047617  0.099913  0  3.947818  0
C  C36  1  0.44593268  0.06002826  0.66837861  1  0  0.134154  0  3.711549  0  0  0.105184  0  3.963458  0  0  0.110875  0  3.983399  0  0  0.048189  0.101523  0  3.94987  0
C  C37  1  0.77801742  0.44017077  0.33162656  1  0  0.132173  0  3.709912  0  0  0.103438  0  3.96158  0  0  0.109124  0  3.981539  0  0  0.047526  0.099783  0  3.947976  0
C  C38  1  0.23339983  0.62537909  0.08998829  1  0  -0.061904  0  3.771353  0  0  -0.061396  0  4.016229  0  0  -0.064669  0  4.044182  0  0  -0.007261  -0.059104  0  3.997088  0
C  C39  1  0.14317831  0.87483374  0.90984697  1  0  -0.061004  0  3.771146  0  0  -0.06013  0  4.015809  0  0  -0.063378  0  4.043725  0  0  -0.006926  -0.057847  0  3.99668  0
C  C40  1  0.76663255  0.37463099  0.91002450  1  0  -0.062042  0  3.771993  0  0  -0.06151  0  4.016792  0  0  -0.064783  0  4.044729  0  0  -0.007353  -0.059212  0  3.997656  0
C  C41  1  0.85681215  0.12517044  0.09015226  1  0  -0.060978  0  3.771013  0  0  -0.06011  0  4.015655  0  0  -0.063357  0  4.043566  0  0  -0.006926  -0.05783  0  3.996529  0
C  C42  1  0.08264646  0.54404573  0.03230167  1  0  -0.029587  0  4.03202  0  0  -0.025371  0  4.273254  0  0  -0.025556  0  4.299813  0  0  -0.026915  -0.025181  0  4.255098  0
C  C43  1  0.05035506  0.95603441  0.96770226  1  0  -0.030448  0  4.032304  0  0  -0.026329  0  4.273542  0  0  -0.026522  0  4.300084  0  0  -0.027383  -0.026143  0  4.255428  0
C  C44  1  0.91733326  0.45593355  0.96769252  1  0  -0.029327  0  4.033326  0  0  -0.025132  0  4.274537  0  0  -0.025313  0  4.301086  0  0  -0.026913  -0.024951  0  4.256386  0
C  C45  1  0.94963978  0.04395197  0.03230763  1  0  -0.030366  0  4.032156  0  0  -0.02626  0  4.273402  0  0  -0.026454  0  4.299941  0  0  -0.02732  -0.026072  0  4.255289  0
C  C46  1  0.85358699  0.22767560  0.55640747  1  0  -0.100444  0  3.22159  0  0  -0.084565  0  3.535244  0  0  -0.083107  0  3.545551  0  0  -0.001195  -0.08518  0  3.52784  0
C  C47  1  0.29701379  0.27270626  0.44367535  1  0  -0.09962  0  3.222768  0  0  -0.083938  0  3.536755  0  0  -0.08247  0  3.547012  0  0  -0.0011  -0.084535  0  3.529392  0
C  C48  1  0.14642337  0.77232851  0.44359426  1  0  -0.100436  0  3.221653  0  0  -0.084576  0  3.535331  0  0  -0.083117  0  3.545635  0  0  -0.001234  -0.085191  0  3.52793  0
C  C49  1  0.70297969  0.72730046  0.55632239  1  0  -0.099551  0  3.222736  0  0  -0.083855  0  3.536688  0  0  -0.082387  0  3.546939  0  0  -0.001093  -0.084454  0  3.529331  0
N  N50  1  0.72781588  0.90779796  0.32079665  1  0  -0.313939  0  3.215473  0  0  -0.246422  0  3.478183  0  0  -0.26309  0  3.497142  0  0  -0.322939  -0.234999  0  3.465019  0
N  N51  1  0.40655026  0.59203745  0.67916873  1  0  -0.313555  0  3.214913  0  0  -0.246042  0  3.477471  0  0  -0.262685  0  3.496333  0  0  -0.322609  -0.234653  0  3.464331  0
N  N52  1  0.27218831  0.09220123  0.67920165  1  0  -0.314068  0  3.215524  0  0  -0.246538  0  3.478225  0  0  -0.263205  0  3.497169  0  0  -0.322964  -0.235111  0  3.465055  0
N  N53  1  0.59344144  0.40796418  0.32083189  1  0  -0.313523  0  3.21506  0  0  -0.246016  0  3.477627  0  0  -0.262658  0  3.496491  0  0  -0.322623  -0.23463  0  3.464499  0
N  N54  1  0.77097428  0.34284521  0.58473147  1  0  -0.416747  0  2.986095  0  0  -0.3601  0  3.258294  0  0  -0.377151  0  3.27414  0  0  -0.372261  -0.348536  0  3.247262  0
N  N55  1  0.18651158  0.15713606  0.41545454  1  0  -0.416389  0  2.986711  0  0  -0.359559  0  3.258857  0  0  -0.37662  0  3.274686  0  0  -0.371864  -0.348011  0  3.24784  0
N  N56  1  0.22902722  0.65715520  0.41526818  1  0  -0.416738  0  2.986179  0  0  -0.360089  0  3.258402  0  0  -0.377141  0  3.274247  0  0  -0.372237  -0.348526  0  3.247374  0
N  N57  1  0.81349105  0.84286194  0.58454170  1  0  -0.416468  0  2.986702  0  0  -0.359666  0  3.258895  0  0  -0.376724  0  3.274715  0  0  -0.37188  -0.348117  0  3.24788  0
