# generated using pymatgen
data_KCu2H27C38N6O5
_symmetry_space_group_name_H-M   'P 1'
_cell_length_a   8.24774675
_cell_length_b   19.80008072
_cell_length_c   22.23506612
_cell_angle_alpha   89.99958746
_cell_angle_beta   90.00000477
_cell_angle_gamma   89.99947381
_symmetry_Int_Tables_number   1
_chemical_formula_structural   KCu2H27C38N6O5
_chemical_formula_sum   'K4 Cu8 H108 C152 N24 O20'
_cell_volume   3631.12085165
_cell_formula_units_Z   4
loop_
 _symmetry_equiv_pos_site_id
 _symmetry_equiv_pos_as_xyz
  1  'x, y, z'
loop_
 _atom_site_type_symbol
 _atom_site_label
 _atom_site_symmetry_multiplicity
 _atom_site_fract_x
 _atom_site_fract_y
 _atom_site_fract_z
 _atom_site_occupancy
 _atom_site_pbe_bader_charge
 _atom_site_pbe_bader_spin_density
 _atom_site_pbe_cm5_charge
 _atom_site_pbe_ddec_charge
 _atom_site_pbe_ddec_spin_density
 _atom_site_pbe_ddec_sum_bond_order
 _atom_site_pbe_magmom
K  K0  1  0.82475127  0.99761870  0.35153658  1  0.887959  0.000224  0.800979  0.877283  0.000141  0.68325  0.0
K  K1  1  0.67524870  0.00237759  0.85153469  1  0.887921  -0.000112  0.80099  0.87735  -9.1e-05  0.683193  0.0
K  K2  1  0.32474503  0.50238159  0.64846329  1  0.887982  -0.000366  0.801007  0.877279  -0.000304  0.683265  0.0
K  K3  1  0.17525937  0.49762128  0.14846299  1  0.887969  3e-05  0.800983  0.877338  7.2e-05  0.683199  0.0
Cu  Cu4  1  0.99732891  0.92599193  0.59138049  1  0.981025  0.45948  0.738808  0.720461  0.630564  2.381732  0.46
Cu  Cu5  1  0.50265769  0.07400948  0.09138515  1  0.981009  0.459374  0.738799  0.720421  0.630487  2.381934  0.46
Cu  Cu6  1  0.49733318  0.57401324  0.40861849  1  0.981037  -0.459484  0.738761  0.720431  -0.631472  2.381718  -0.46
Cu  Cu7  1  0.00265186  0.42598904  0.90861342  1  0.981017  0.459361  0.738759  0.720372  0.630472  2.381975  0.46
Cu  Cu8  1  0.32019351  0.83013436  0.63381556  1  0.969624  -0.455073  0.735848  0.713714  -0.626348  2.386238  -0.455
Cu  Cu9  1  0.17979270  0.16986307  0.13381332  1  0.969599  -0.455716  0.735858  0.713824  -0.627066  2.386188  -0.456
Cu  Cu10  1  0.82020333  0.66986190  0.36618072  1  0.969919  0.455082  0.735845  0.713723  0.625467  2.386275  0.455
Cu  Cu11  1  0.67979058  0.33013477  0.86618437  1  0.969896  -0.455712  0.735833  0.713756  -0.627066  2.386273  -0.456
H  H12  1  0.18241867  0.85118594  0.53707415  1  0.581709  8.1e-05  0.278093  0.349902  0.000237  0.995618  0.0
H  H13  1  0.31756389  0.14880318  0.03707295  1  0.581743  7e-05  0.278056  0.349893  0.000214  0.995632  0.0
H  H14  1  0.68243140  0.64881489  0.46292302  1  0.581761  -8e-05  0.278088  0.349997  -0.000239  0.995528  0.0
H  H15  1  0.81756495  0.35119363  0.96292789  1  0.58171  7e-05  0.278036  0.349886  0.000214  0.995613  0.0
H  H16  1  0.17519635  0.05650925  0.44699782  1  0.069168  1.2e-05  0.105864  0.113822  -2.2e-05  1.008445  0.0
H  H17  1  0.32480809  0.94348717  0.94700113  1  0.06902  1.3e-05  0.105891  0.113945  -2e-05  1.008358  0.0
H  H18  1  0.67520139  0.44349063  0.55300436  1  0.069018  -9e-06  0.105862  0.113829  2.3e-05  1.008277  0.0
H  H19  1  0.82479854  0.55651160  0.05300009  1  0.069128  1e-05  0.105881  0.113903  -2.1e-05  1.008337  0.0
H  H20  1  0.36459504  0.02891539  0.36415354  1  0.06487  0.000176  0.105676  0.097255  2.8e-05  1.022892  0.0
H  H21  1  0.13541787  0.97107664  0.86415307  1  0.064792  0.000176  0.10567  0.097251  2.9e-05  1.022879  0.0
H  H22  1  0.86461040  0.47108831  0.63584730  1  0.064852  -0.000184  0.105658  0.097253  -5.3e-05  1.022821  0.0
H  H23  1  0.63540409  0.52892032  0.13584769  1  0.06473  0.000184  0.10565  0.097205  5.5e-05  1.022915  0.0
H  H24  1  0.38945030  0.91086190  0.32718297  1  0.044513  0.000177  0.102394  0.09396  0.000107  1.022785  0.0
H  H25  1  0.11055655  0.08912892  0.82717873  1  0.044373  0.000181  0.102322  0.093945  0.000115  1.022688  0.0
H  H26  1  0.88947044  0.58914066  0.67281780  1  0.044122  -0.00012  0.102382  0.093905  -5.1e-05  1.022773  0.0
H  H27  1  0.61054285  0.41086717  0.17282030  1  0.044214  0.000124  0.102336  0.093905  5.8e-05  1.022739  0.0
H  H28  1  0.23309831  0.81919166  0.37819728  1  0.043154  -5.2e-05  0.097394  0.091659  -8.3e-05  1.018571  0.0
H  H29  1  0.26690491  0.18080279  0.87819065  1  0.043303  -2.8e-05  0.097373  0.09166  -3.6e-05  1.01857  0.0
H  H30  1  0.73311399  0.68081150  0.62180394  1  0.043291  5.1e-05  0.097353  0.091547  8.1e-05  1.018689  0.0
H  H31  1  0.76689443  0.31919421  0.12180704  1  0.043492  -2.8e-05  0.097409  0.091641  -3.4e-05  1.018495  0.0
H  H32  1  0.04363051  0.84650976  0.46107978  1  0.079393  -0.000149  0.103847  0.114038  -0.000132  1.031758  0.0
H  H33  1  0.45636181  0.15348756  0.96107874  1  0.079539  -0.000236  0.103774  0.113987  -0.000244  1.031826  0.0
H  H34  1  0.54364678  0.65349715  0.53892053  1  0.079505  0.000149  0.10386  0.113992  0.000131  1.031862  0.0
H  H35  1  0.95635314  0.34650973  0.03892166  1  0.079652  -0.000236  0.103831  0.114055  -0.000244  1.03187  0.0
H  H36  1  0.66974522  0.12504555  0.53529732  1  0.098578  0.001499  0.115269  0.125536  0.000843  0.981662  0.001
H  H37  1  0.83027168  0.87496692  0.03530135  1  0.098599  0.001498  0.115276  0.125544  0.000843  0.981636  0.001
H  H38  1  0.16974893  0.37496092  0.46470666  1  0.098461  -0.001501  0.115269  0.125486  -0.000845  0.981653  -0.001
H  H39  1  0.33026400  0.62503132  0.96470212  1  0.098554  0.001499  0.115277  0.125474  0.000844  0.981573  0.001
H  H40  1  0.57166850  0.14701996  0.64128794  1  0.110821  -6.5e-05  0.10714  0.100659  -3.1e-05  1.005105  0.0
H  H41  1  0.92833992  0.85298458  0.14129256  1  0.110626  -0.000111  0.107154  0.100598  -7.7e-05  1.005216  0.0
H  H42  1  0.07168238  0.35298536  0.35871469  1  0.111063  0.000111  0.107158  0.100651  7.6e-05  1.005074  0.0
H  H43  1  0.42832083  0.64700975  0.85870911  1  0.110877  -6.5e-05  0.107184  0.100638  -3.1e-05  1.00514  0.0
H  H44  1  0.67237682  0.07379347  0.72559465  1  0.136958  0.00121  0.117689  0.122165  0.000606  1.024866  0.001
H  H45  1  0.82762919  0.92620484  0.22559970  1  0.136851  0.001477  0.117716  0.122218  0.000888  1.024931  0.001
H  H46  1  0.17237695  0.42620945  0.27440663  1  0.137053  -0.001476  0.117682  0.122079  -0.000893  1.02474  -0.001
H  H47  1  0.32761776  0.57379341  0.77439838  1  0.136723  0.001208  0.117696  0.122194  0.000609  1.024849  0.001
H  H48  1  0.09453463  0.91150150  0.79174196  1  0.103053  1.6e-05  0.101858  0.108097  2e-06  1.051147  0.0
H  H49  1  0.40545524  0.08850072  0.29174790  1  0.102406  1.7e-05  0.101881  0.108132  3e-06  1.051052  0.0
H  H50  1  0.59452803  0.58850269  0.20825745  1  0.102835  -1.2e-05  0.101833  0.108054  -4e-06  1.051062  0.0
H  H51  1  0.90544645  0.41150081  0.70825384  1  0.102314  1e-05  0.101904  0.108089  3e-06  1.051085  0.0
H  H52  1  0.18118242  0.81245554  0.85150419  1  0.037408  0.00033  0.09637  0.092199  0.00014  0.996303  0.0
H  H53  1  0.31881231  0.18754872  0.35150409  1  0.037403  0.000335  0.096365  0.092235  0.000142  0.996317  0.0
H  H54  1  0.68118091  0.68755085  0.14850107  1  0.037536  -0.000336  0.096328  0.092096  -0.000145  0.996313  0.0
H  H55  1  0.81880691  0.31245465  0.64849540  1  0.037071  0.00033  0.096407  0.092249  0.000142  0.996365  0.0
H  H56  1  0.14407054  0.69572948  0.81073518  1  0.052978  5e-05  0.09056  0.086047  2e-05  1.048438  0.0
H  H57  1  0.35592419  0.30427511  0.31073433  1  0.05286  0.000161  0.090616  0.086039  0.000117  1.04837  0.0
H  H58  1  0.64406767  0.80427604  0.18927143  1  0.05301  -0.000161  0.090557  0.085982  -0.000117  1.048362  0.0
H  H59  1  0.85592621  0.19572711  0.68926426  1  0.052955  5e-05  0.090558  0.086031  2e-05  1.04842  0.0
H  H60  1  0.03283546  0.68097512  0.70738721  1  0.062353  1.4e-05  0.098464  0.093267  -7e-06  1.018286  0.0
H  H61  1  0.46715440  0.31902828  0.20738447  1  0.062242  2.5e-05  0.098491  0.093381  -2.5e-05  1.01811  0.0
H  H62  1  0.53282380  0.81903133  0.29261940  1  0.062103  -2.1e-05  0.098462  0.093255  6e-06  1.018095  0.0
H  H63  1  0.96716040  0.18097098  0.79261413  1  0.062241  1.8e-05  0.098501  0.093355  -2.6e-05  1.018099  0.0
H  H64  1  0.94981814  0.78077421  0.64732997  1  0.088367  4.1e-05  0.098706  0.108546  -8e-06  1.034321  0.0
H  H65  1  0.55017332  0.21922675  0.14733145  1  0.088252  4.2e-05  0.098725  0.108643  -5e-06  1.034117  0.0
H  H66  1  0.44980950  0.71922711  0.35267261  1  0.088201  -4.2e-05  0.098681  0.108563  7e-06  1.034353  0.0
H  H67  1  0.05017189  0.28077361  0.85266803  1  0.088243  4.1e-05  0.09876  0.108661  -5e-06  1.034206  0.0
H  H68  1  0.65936709  0.85565054  0.81700540  1  0.081454  -0.001524  0.120442  0.117566  -0.000823  1.003032  -0.001
H  H69  1  0.84063651  0.14434754  0.31700378  1  0.081091  -0.001524  0.12041  0.117555  -0.000829  1.003071  -0.001
H  H70  1  0.15937584  0.64434785  0.18299176  1  0.081298  0.001538  0.120447  0.117573  0.00084  1.002959  0.001
H  H71  1  0.34063947  0.35565272  0.68299436  1  0.081024  -0.001536  0.120462  0.11762  -0.000834  1.002978  -0.001
H  H72  1  0.71273940  0.73122566  0.82635410  1  0.080116  1.5e-05  0.107565  0.100447  -8e-06  1.014283  0.0
H  H73  1  0.78727633  0.26877285  0.32635663  1  0.080726  0.000184  0.107594  0.100485  0.00012  1.014279  0.0
H  H74  1  0.21273935  0.76877354  0.17364262  1  0.080585  -0.000183  0.107565  0.100485  -0.00012  1.014289  0.0
H  H75  1  0.28726263  0.23122812  0.67364421  1  0.080112  1.3e-05  0.107572  0.100477  -1e-05  1.014328  0.0
H  H76  1  0.57694804  0.65056441  0.75474135  1  0.132176  -0.001309  0.115839  0.125642  -0.000739  1.011506  -0.001
H  H77  1  0.92306282  0.34943366  0.25474156  1  0.13229  -0.001286  0.115823  0.125572  -0.000705  1.011497  -0.001
H  H78  1  0.07693895  0.84943429  0.24525492  1  0.132249  0.001322  0.115819  0.125562  0.000733  1.011544  0.001
H  H79  1  0.42306182  0.15056578  0.74525703  1  0.132268  -0.001272  0.115813  0.125558  -0.000709  1.01152  -0.001
H  H80  1  0.23216636  0.01255356  0.74725342  1  0.090275  7.3e-05  0.105032  0.116991  7.2e-05  1.025071  0.0
H  H81  1  0.26783805  0.98744143  0.24725627  1  0.090255  7.1e-05  0.105029  0.11705  7.1e-05  1.024979  0.0
H  H82  1  0.73217402  0.48743852  0.25274427  1  0.090286  4.2e-05  0.105061  0.117129  1.4e-05  1.024909  0.0
H  H83  1  0.76782594  0.51256058  0.75274360  1  0.090295  -4.1e-05  0.105017  0.117051  -1.4e-05  1.025024  0.0
H  H84  1  0.11242094  0.12129691  0.71558777  1  0.018313  -0.000207  0.094414  0.086108  -7e-05  1.040052  0.0
H  H85  1  0.38757862  0.87869986  0.21558683  1  0.018241  -0.000236  0.094463  0.086226  -7.8e-05  1.040023  0.0
H  H86  1  0.61242372  0.37869967  0.28441396  1  0.018286  0.000251  0.094419  0.086119  8.1e-05  1.040089  0.0
H  H87  1  0.88757503  0.62129917  0.78441575  1  0.018339  -0.000223  0.094425  0.086188  -7.5e-05  1.040102  0.0
H  H88  1  0.13017567  0.15873958  0.60863542  1  0.007315  -0.000165  0.093817  0.090114  -6.1e-05  1.011316  0.0
H  H89  1  0.36983357  0.84126108  0.10863471  1  0.006883  -0.000222  0.093831  0.090136  -9.8e-05  1.011294  0.0
H  H90  1  0.63017445  0.34126350  0.39136721  1  0.007025  0.000221  0.093829  0.090145  9.8e-05  1.011313  0.0
H  H91  1  0.86982311  0.65873448  0.89136831  1  0.006904  -0.000166  0.093825  0.090113  -6.1e-05  1.011271  0.0
H  H92  1  0.26895257  0.08444699  0.53381915  1  0.024983  6.8e-05  0.095475  0.09159  8.4e-05  1.016431  0.0
H  H93  1  0.23105666  0.91555781  0.03381841  1  0.025006  6.6e-05  0.095537  0.091714  8.4e-05  1.016477  0.0
H  H94  1  0.76895214  0.41555859  0.46618169  1  0.025017  -6.7e-05  0.09554  0.091659  -8.3e-05  1.016494  0.0
H  H95  1  0.73104542  0.58443980  0.96618325  1  0.024956  6.7e-05  0.095504  0.091647  8.3e-05  1.016487  0.0
H  H96  1  0.38049688  0.97390919  0.56490907  1  0.072149  -0.000116  0.099333  0.111146  -4.1e-05  1.021248  0.0
H  H97  1  0.11950266  0.02609233  0.06491090  1  0.072082  -0.000136  0.099327  0.111088  -4.6e-05  1.021321  0.0
H  H98  1  0.88050018  0.52609240  0.43508721  1  0.072191  0.000117  0.09936  0.111191  4.1e-05  1.021295  0.0
H  H99  1  0.61950102  0.47390473  0.93508903  1  0.072003  -0.000138  0.099369  0.111213  -4.7e-05  1.021323  0.0
H  H100  1  0.37471697  0.76672647  0.49991780  1  0.069364  4.8e-05  0.096983  0.106086  8.4e-05  1.03411  0.0
H  H101  1  0.12526081  0.23328417  0.99990813  1  0.069146  -5e-06  0.097055  0.106162  3.6e-05  1.033966  0.0
H  H102  1  0.87473511  0.73327160  0.50008387  1  0.068904  -4.8e-05  0.097035  0.10614  -8.4e-05  1.03412  0.0
H  H103  1  0.62526481  0.26671893  0.00008551  1  0.068978  -4e-06  0.097038  0.106122  3.7e-05  1.034002  0.0
H  H104  1  0.25593723  0.71346465  0.40864547  1  0.053042  5e-06  0.09495  0.090032  4.4e-05  1.034376  0.0
H  H105  1  0.24406115  0.28654824  0.90863906  1  0.052855  3.5e-05  0.094913  0.090049  4.4e-05  1.034308  0.0
H  H106  1  0.75594694  0.78653438  0.59135395  1  0.05288  -5e-06  0.094977  0.090089  -4.4e-05  1.034438  0.0
H  H107  1  0.74406148  0.21345744  0.09135728  1  0.052976  3.5e-05  0.094898  0.090015  4.4e-05  1.034331  0.0
H  H108  1  0.07101265  0.61522396  0.41751061  1  0.049048  -0.000652  0.088167  0.077049  -0.000468  1.076761  0.0
H  H109  1  0.42899421  0.38478482  0.91751212  1  0.049879  0.000405  0.088142  0.077053  0.000285  1.0768  0.0
H  H110  1  0.57101414  0.88477528  0.58249060  1  0.049039  0.000652  0.088164  0.077031  0.000468  1.07676  0.0
H  H111  1  0.92900277  0.11521863  0.08249052  1  0.04985  0.000405  0.088125  0.07702  0.000285  1.07683  0.0
H  H112  1  0.98602664  0.57590781  0.52025837  1  0.045737  -0.000219  0.09533  0.089142  -9.1e-05  1.035558  0.0
H  H113  1  0.51398298  0.42409114  0.02026258  1  0.045843  -0.000175  0.095315  0.089173  -3.1e-05  1.035599  0.0
H  H114  1  0.48602927  0.92408983  0.47973881  1  0.045954  0.000219  0.095302  0.08912  9.1e-05  1.035622  0.0
H  H115  1  0.01399094  0.07590885  0.97974094  1  0.04575  -0.000175  0.09533  0.089116  -3e-05  1.035599  0.0
H  H116  1  0.10041205  0.62985741  0.61067482  1  0.059474  -0.000154  0.099965  0.094025  -0.000102  1.064591  0.0
H  H117  1  0.39959355  0.37013617  0.11067670  1  0.059446  0.000116  0.099951  0.094029  0.000104  1.064577  0.0
H  H118  1  0.60041746  0.87013717  0.38932414  1  0.059493  0.000157  0.099975  0.094057  0.000107  1.064578  0.0
H  H119  1  0.89959949  0.12986033  0.88932504  1  0.059484  0.000119  0.099968  0.094025  0.000109  1.064511  0.0
C  C120  1  0.09744403  0.95331074  0.46080510  1  0.358255  -0.002287  0.08073  0.232718  -0.000748  4.070678  -0.003
C  C121  1  0.40254344  0.04668406  0.96080878  1  0.358146  -0.002334  0.080854  0.232788  -0.000792  4.070802  -0.003
C  C122  1  0.59745902  0.54669344  0.53919701  1  0.35744  0.002265  0.080915  0.232893  0.000727  4.070627  0.003
C  C123  1  0.90253363  0.45331293  0.03919206  1  0.357925  -0.002313  0.080892  0.232981  -0.000779  4.07071  -0.003
C  C124  1  0.19013070  0.00433222  0.43261305  1  -0.107182  0.013835  -0.099014  -0.1898  0.009314  3.977562  0.009
C  C125  1  0.30987616  0.99566432  0.93261467  1  -0.107194  0.013629  -0.099144  -0.190027  0.00918  3.977933  0.008
C  C126  1  0.69013459  0.49567063  0.56739003  1  -0.106826  -0.013881  -0.099052  -0.189888  -0.009372  3.977499  -0.009
C  C127  1  0.80986291  0.50433299  0.06738700  1  -0.107164  0.013672  -0.099111  -0.190057  0.009222  3.977851  0.008
C  C128  1  0.29490120  0.98872062  0.38546993  1  0.053259  -0.003222  -0.08564  -0.074378  -0.002104  4.040857  -0.003
C  C129  1  0.20511051  0.01127074  0.88546799  1  0.053201  -0.003179  -0.085699  -0.074475  -0.002068  4.040781  -0.003
C  C130  1  0.79491334  0.51128180  0.61453084  1  0.053041  0.003191  -0.085549  -0.074263  0.002081  4.040814  0.003
C  C131  1  0.70509387  0.48872549  0.11453195  1  0.053094  -0.003148  -0.085606  -0.07431  -0.002048  4.040775  -0.003
C  C132  1  0.31005152  0.92223913  0.36504520  1  -0.065061  0.013979  -0.093452  -0.104888  0.00944  4.022586  0.008
C  C133  1  0.18995533  0.07775189  0.86504328  1  -0.064937  0.013854  -0.093274  -0.10465  0.009371  4.022312  0.008
C  C134  1  0.81006584  0.57776273  0.63495647  1  -0.064737  -0.013947  -0.093493  -0.104891  -0.009411  4.022595  -0.008
C  C135  1  0.68994137  0.42224439  0.13495710  1  -0.064745  0.013819  -0.09335  -0.104646  0.009326  4.022381  0.008
C  C136  1  0.22236632  0.87124949  0.39358272  1  -0.087693  -0.003761  -0.088454  -0.057069  -0.002574  4.015216  -0.003
C  C137  1  0.27763569  0.12874383  0.89358047  1  -0.087159  -0.003728  -0.088469  -0.057168  -0.002515  4.015148  -0.003
C  C138  1  0.72238315  0.62875523  0.60641850  1  -0.088015  0.00374  -0.088402  -0.05698  0.00255  4.015052  0.003
C  C139  1  0.77761800  0.37125263  0.10641676  1  -0.087732  -0.003706  -0.08855  -0.057192  -0.002495  4.015084  -0.003
C  C140  1  0.11755329  0.88626408  0.44101630  1  -0.043256  0.012201  -0.098136  -0.185927  0.008045  3.949184  0.008
C  C141  1  0.38244145  0.11373087  0.94101731  1  -0.043653  0.01216  -0.098077  -0.185864  0.008023  3.948966  0.008
C  C142  1  0.61756680  0.61374154  0.55898401  1  -0.042564  -0.012198  -0.098234  -0.185915  -0.008055  3.949129  -0.008
C  C143  1  0.88242949  0.38626569  0.05898039  1  -0.043332  0.012155  -0.098119  -0.186002  0.008021  3.949153  0.008
C  C144  1  0.88990709  0.02215678  0.50404117  1  1.380779  -7.1e-05  0.211623  0.432388  0.000725  4.207852  0.001
C  C145  1  0.61009404  0.97784533  0.00404858  1  1.380282  -6.8e-05  0.211749  0.432407  0.000724  4.208347  0.001
C  C146  1  0.38991096  0.47785339  0.49595967  1  1.380274  7.1e-05  0.211723  0.432502  -0.000732  4.20792  -0.001
C  C147  1  0.11008136  0.52214971  0.99595084  1  1.38034  -6.8e-05  0.211875  0.432576  0.000723  4.208232  0.001
C  C148  1  0.81135333  0.03956016  0.56289320  1  0.512016  -0.001463  0.123021  0.142097  -0.000461  3.966734  -0.001
C  C149  1  0.68865024  0.96044552  0.06289667  1  0.510929  -0.001502  0.122985  0.142151  -0.0005  3.966664  -0.001
C  C150  1  0.31135515  0.46044829  0.43711034  1  0.5108  0.001467  0.123079  0.14204  0.00046  3.966835  0.001
C  C151  1  0.18864808  0.53955225  0.93710454  1  0.510842  -0.001496  0.122962  0.142051  -0.000496  3.966662  -0.001
C  C152  1  0.70684540  0.09365252  0.57308144  1  0.065746  0.003071  -0.071071  -0.131578  0.002315  3.911266  0.002
C  C153  1  0.79316423  0.90635510  0.07308796  1  0.066061  0.003082  -0.071091  -0.131653  0.002329  3.911215  0.002
C  C154  1  0.20685205  0.40635481  0.42692165  1  0.066303  -0.003093  -0.071185  -0.131638  -0.002335  3.911468  -0.002
C  C155  1  0.29316087  0.59363874  0.92691416  1  0.066303  0.003056  -0.071097  -0.131563  0.00231  3.911375  0.002
C  C156  1  0.65480439  0.10552708  0.63200994  1  -0.149453  -0.003893  -0.061224  -0.018936  -0.002672  3.947991  -0.002
C  C157  1  0.84521010  0.89447956  0.13201609  1  -0.149441  -0.003941  -0.061389  -0.019055  -0.002692  3.948289  -0.002
C  C158  1  0.15480887  0.39447995  0.36799404  1  -0.149962  0.003918  -0.061222  -0.01893  0.002674  3.94788  0.002
C  C159  1  0.34519798  0.60551812  0.86798693  1  -0.149809  -0.003915  -0.061344  -0.019024  -0.002684  3.948085  -0.002
C  C160  1  0.70850436  0.06460675  0.67920534  1  0.072286  0.003302  -0.062043  -0.116369  0.002474  3.871301  0.003
C  C161  1  0.79150043  0.93539647  0.17921303  1  0.072181  0.003467  -0.061923  -0.116232  0.002594  3.871591  0.003
C  C162  1  0.20850551  0.43539906  0.32079684  1  0.072627  -0.003477  -0.062002  -0.116153  -0.002604  3.871208  -0.003
C  C163  1  0.29149164  0.56460191  0.82078684  1  0.072537  0.003289  -0.061933  -0.116187  0.00247  3.871362  0.003
C  C164  1  0.81056192  0.01049774  0.66532429  1  0.45966  -0.001372  0.129016  0.145875  -0.000351  3.943289  -0.001
C  C165  1  0.68943560  0.98950105  0.16532802  1  0.459337  -0.001383  0.128937  0.145774  -0.000366  3.94296  -0.001
C  C166  1  0.31056552  0.48950465  0.33467790  1  0.459569  0.001357  0.128954  0.145514  0.000339  3.943453  0.001
C  C167  1  0.18943163  0.51049369  0.83467184  1  0.459055  -0.001398  0.128959  0.145624  -0.000369  3.943335  -0.001
C  C168  1  0.88085914  0.96091073  0.70932335  1  1.391475  0.001729  0.218876  0.443589  0.001909  4.182849  0.002
C  C169  1  0.61914323  0.03908923  0.20933320  1  1.391947  0.001735  0.218967  0.443624  0.001914  4.183262  0.002
C  C170  1  0.38086538  0.53908984  0.29067652  1  1.391397  -0.001737  0.218945  0.443773  -0.001924  4.182632  -0.002
C  C171  1  0.11914510  0.46090834  0.79066673  1  1.392001  0.001721  0.218875  0.443482  0.001909  4.183319  0.002
C  C172  1  0.00877730  0.85315422  0.71629960  1  0.361977  -0.00049  0.084606  0.247394  0.000462  4.048998  -0.001
C  C173  1  0.49121862  0.14684708  0.21630697  1  0.36197  -0.000487  0.08466  0.2473  0.000467  4.048609  -0.001
C  C174  1  0.50877307  0.64685080  0.28370206  1  0.361695  0.000478  0.084606  0.247402  -0.000476  4.048971  0.001
C  C175  1  0.99121113  0.35315260  0.78369433  1  0.361632  -0.000497  0.084637  0.247311  0.000461  4.048857  -0.001
C  C176  1  0.07883999  0.86097504  0.77386226  1  -0.056299  0.010514  -0.09717  -0.170485  0.007159  3.952284  0.007
C  C177  1  0.42115594  0.13902833  0.27386697  1  -0.055558  0.01052  -0.097144  -0.170537  0.007162  3.952261  0.007
C  C178  1  0.57883471  0.63902921  0.22613940  1  -0.055965  -0.010506  -0.09717  -0.170465  -0.007166  3.952358  -0.007
C  C179  1  0.92114948  0.36097364  0.72613567  1  -0.055317  0.010503  -0.097244  -0.170522  0.007154  3.952333  0.007
C  C180  1  0.12702347  0.80488312  0.80719312  1  -0.059413  -0.001697  -0.101654  -0.08232  -0.001149  4.055486  -0.001
C  C181  1  0.37296883  0.19512251  0.30719568  1  -0.059598  -0.001695  -0.101782  -0.08242  -0.001152  4.055608  -0.001
C  C182  1  0.62701816  0.69512246  0.19281124  1  -0.059108  0.001692  -0.101635  -0.082253  0.001146  4.055172  0.001
C  C183  1  0.87296360  0.30488116  0.69280426  1  -0.059413  -0.001701  -0.101802  -0.08245  -0.001151  4.055522  -0.001
C  C184  1  0.10750249  0.73955473  0.78437802  1  -0.086865  0.008546  -0.10996  -0.111979  0.005741  4.039325  0.005
C  C185  1  0.39248617  0.26044957  0.28437971  1  -0.087609  0.008627  -0.109934  -0.111796  0.005791  4.039201  0.005
C  C186  1  0.60750059  0.76045143  0.21562814  1  -0.087054  -0.008625  -0.109921  -0.111774  -0.005798  4.038765  -0.005
C  C187  1  0.89248845  0.23955150  0.71561889  1  -0.087659  0.008544  -0.109913  -0.11186  0.005739  4.039238  0.005
C  C188  1  0.04340385  0.73140310  0.72668854  1  -0.03869  -0.002015  -0.101038  -0.07994  -0.001342  4.051993  -0.002
C  C189  1  0.45657873  0.26859964  0.22668972  1  -0.037223  -0.001992  -0.101156  -0.080242  -0.001332  4.051844  -0.002
C  C190  1  0.54339451  0.76859978  0.27331537  1  -0.038493  0.001988  -0.10106  -0.08004  0.001323  4.051488  0.002
C  C191  1  0.95658605  0.23139916  0.77330797  1  -0.037196  -0.002017  -0.101114  -0.080107  -0.001347  4.051665  -0.002
C  C192  1  0.99638715  0.78725371  0.69276359  1  -0.059496  0.008548  -0.103259  -0.188316  0.005721  3.978055  0.005
C  C193  1  0.50359218  0.21274840  0.19276556  1  -0.060015  0.008555  -0.103283  -0.188347  0.005728  3.977744  0.005
C  C194  1  0.49638593  0.71274794  0.30724124  1  -0.059537  -0.008556  -0.103209  -0.188338  -0.005733  3.977953  -0.005
C  C195  1  0.00359424  0.28725062  0.80723481  1  -0.059947  0.008547  -0.103323  -0.188422  0.005724  3.977744  0.005
C  C196  1  0.31573362  0.98519121  0.65835512  1  0.422229  0.001336  0.083965  0.244345  0.00012  4.056342  0.002
C  C197  1  0.18426715  0.01480551  0.15835883  1  0.425199  0.00132  0.084009  0.244491  0.000101  4.056474  0.002
C  C198  1  0.81573715  0.51480658  0.34164250  1  0.424892  -0.001316  0.083957  0.244344  -0.000109  4.056281  -0.002
C  C199  1  0.68426524  0.48519383  0.84163886  1  0.425184  0.001322  0.084031  0.24443  0.00011  4.056401  0.002
C  C200  1  0.23944696  0.02808751  0.70048130  1  -0.016903  -0.012376  -0.094229  -0.161986  -0.008404  3.929639  -0.008
C  C201  1  0.26055260  0.97190685  0.20048335  1  -0.016379  -0.012223  -0.09421  -0.162044  -0.008288  3.929614  -0.008
C  C202  1  0.73945133  0.47190960  0.29951683  1  -0.016364  0.012308  -0.094287  -0.162138  0.008361  3.929523  0.008
C  C203  1  0.76054985  0.52809418  0.79951562  1  -0.016419  -0.012467  -0.094224  -0.162077  -0.008492  3.929644  -0.008
C  C204  1  0.17305603  0.08947484  0.68246587  1  -0.035448  0.002309  -0.10173  -0.08571  0.00154  4.053547  0.002
C  C205  1  0.32695201  0.91052220  0.18246517  1  -0.035553  0.002383  -0.101852  -0.085922  0.001596  4.053834  0.002
C  C206  1  0.67306054  0.41052152  0.31753362  1  -0.035444  -0.002373  -0.101725  -0.085749  -0.001585  4.05353  -0.002
C  C207  1  0.82694427  0.58947908  0.81753605  1  -0.03554  0.002284  -0.101809  -0.085903  0.001518  4.05376  0.002
C  C208  1  0.18316522  0.11070780  0.62254603  1  -0.015545  -0.011255  -0.111261  -0.120643  -0.007608  4.053671  -0.007
C  C209  1  0.31684524  0.88929527  0.12254502  1  -0.015106  -0.011209  -0.111281  -0.120697  -0.007584  4.053896  -0.007
C  C210  1  0.68316293  0.38929508  0.37745660  1  -0.015221  0.011208  -0.111295  -0.120741  0.007573  4.053779  0.007
C  C211  1  0.81683947  0.61070100  0.87745755  1  -0.015104  -0.011253  -0.111308  -0.120668  -0.007602  4.053808  -0.007
C  C212  1  0.25957200  0.06891961  0.58069965  1  -0.117485  0.002636  -0.102112  -0.08048  0.001788  4.064472  0.002
C  C213  1  0.24042996  0.93108229  0.08069747  1  -0.117535  0.002626  -0.102172  -0.080598  0.001787  4.064414  0.002
C  C214  1  0.75957365  0.43108146  0.41930118  1  -0.117614  -0.002624  -0.102152  -0.080391  -0.001787  4.064496  -0.002
C  C215  1  0.74042633  0.56891680  0.91930420  1  -0.117554  0.002625  -0.102124  -0.080452  0.001785  4.064327  0.002
C  C216  1  0.32306639  0.00658179  0.59805353  1  -0.047969  -0.010871  -0.102014  -0.187398  -0.007273  3.984779  -0.006
C  C217  1  0.17693557  0.99341946  0.09805453  1  -0.050497  -0.010793  -0.102019  -0.18733  -0.007211  3.984603  -0.006
C  C218  1  0.82307637  0.49341651  0.40194551  1  -0.050456  0.010783  -0.102032  -0.187497  0.007199  3.984616  0.006
C  C219  1  0.67692119  0.50658038  0.90194803  1  -0.05055  -0.010898  -0.102024  -0.187427  -0.00728  3.984387  -0.006
C  C220  1  0.45609031  0.91417277  0.72756001  1  1.387607  -0.001853  0.217821  0.438508  -0.002008  4.18903  -0.002
C  C221  1  0.04390925  0.08582239  0.22756460  1  1.387611  -0.001851  0.217646  0.438224  -0.002006  4.189548  -0.002
C  C222  1  0.95609834  0.58582398  0.27243537  1  1.388021  0.00185  0.217736  0.438381  0.001997  4.189505  0.002
C  C223  1  0.54392224  0.41418002  0.77243308  1  1.388246  -0.00185  0.217527  0.438116  -0.002006  4.189739  -0.002
C  C224  1  0.50694014  0.84244413  0.73910327  1  0.540467  0.000615  0.128311  0.146377  -0.000206  3.948844  0.001
C  C225  1  0.99305739  0.15755255  0.23910112  1  0.540604  0.000607  0.128382  0.146346  -0.00021  3.948744  0.001
C  C226  1  0.00694013  0.65755484  0.26089524  1  0.540908  -0.000605  0.128291  0.146242  0.000207  3.948814  -0.001
C  C227  1  0.49306792  0.34244409  0.76089703  1  0.540612  0.000618  0.128297  0.146311  -0.000201  3.948849  0.001
C  C228  1  0.60537455  0.81969132  0.78596356  1  -0.003619  -0.003212  -0.062976  -0.120251  -0.002391  3.898922  -0.002
C  C229  1  0.89462662  0.18030600  0.28596216  1  -0.003514  -0.00314  -0.062938  -0.120141  -0.002345  3.898972  -0.002
C  C230  1  0.10537646  0.68030626  0.21403271  1  -0.003451  0.003181  -0.062955  -0.120178  0.002373  3.898726  0.002
C  C231  1  0.39462674  0.31969405  0.71403374  1  -0.003278  -0.003174  -0.062947  -0.120168  -0.002368  3.898684  -0.002
C  C232  1  0.63336114  0.75030517  0.79108452  1  -0.019931  0.003297  -0.062109  -0.022841  0.002285  3.948854  0.002
C  C233  1  0.86663882  0.24969211  0.29108402  1  -0.020363  0.003398  -0.06218  -0.023073  0.00236  3.948819  0.002
C  C234  1  0.13335788  0.74969181  0.20891174  1  -0.020102  -0.003396  -0.06217  -0.023017  -0.002361  3.948947  -0.002
C  C235  1  0.36663561  0.25030754  0.70891502  1  -0.019878  0.003296  -0.062177  -0.023044  0.002284  3.948966  0.002
C  C236  1  0.55966879  0.70497788  0.75135463  1  -0.047198  -0.002934  -0.071524  -0.136766  -0.002122  3.908441  -0.002
C  C237  1  0.94034087  0.29501871  0.25135204  1  -0.047365  -0.002929  -0.07142  -0.136527  -0.002147  3.90822  -0.002
C  C238  1  0.05965847  0.79501938  0.24864298  1  -0.047591  0.002972  -0.071465  -0.13663  0.00217  3.908397  0.002
C  C239  1  0.44033746  0.20498167  0.74864655  1  -0.0474  -0.002891  -0.071491  -0.136672  -0.002094  3.908361  -0.002
C  C240  1  0.46347010  0.73139480  0.70548240  1  0.499457  0.000918  0.124324  0.138341  5.2e-05  3.972037  0.001
C  C241  1  0.03652097  0.26860154  0.20547683  1  0.499577  0.000893  0.124348  0.138308  2.1e-05  3.972096  0.001
C  C242  1  0.96346319  0.76860141  0.29451298  1  0.499517  -0.000916  0.124403  0.138422  -5.5e-05  3.971996  -0.001
C  C243  1  0.53652587  0.23139786  0.79451995  1  0.49965  0.000894  0.124334  0.138414  2.3e-05  3.971858  0.001
C  C244  1  0.37383029  0.69140997  0.65884629  1  1.381345  -0.002752  0.219128  0.437049  -0.002793  4.204149  -0.003
C  C245  1  0.12615228  0.30858725  0.15883910  1  1.380737  -0.002636  0.219208  0.437106  -0.002683  4.204436  -0.002
C  C246  1  0.87383221  0.80858507  0.34115224  1  1.380926  0.002752  0.219006  0.436815  0.002787  4.204388  0.003
C  C247  1  0.62616534  0.19141382  0.84115633  1  1.380484  -0.002643  0.21904  0.436899  -0.002682  4.20409  -0.002
C  C248  1  0.24866872  0.70095652  0.56194481  1  0.351395  0.001559  0.089594  0.260955  0.000429  4.022343  0.002
C  C249  1  0.25132475  0.29904300  0.06193994  1  0.351477  0.002166  0.089763  0.261122  0.000868  4.022208  0.002
C  C250  1  0.74867935  0.79904001  0.43805416  1  0.35123  -0.001557  0.089603  0.261012  -0.000436  4.022594  -0.002
C  C251  1  0.75133397  0.20095507  0.93805774  1  0.351504  0.002168  0.089739  0.261062  0.000867  4.022141  0.002
C  C252  1  0.28827442  0.72523032  0.50416977  1  -0.064065  -0.009725  -0.097705  -0.169466  -0.006374  3.929623  -0.006
C  C253  1  0.21171298  0.27477523  0.00416281  1  -0.063731  -0.010443  -0.097917  -0.169692  -0.006939  3.929596  -0.006
C  C254  1  0.78829044  0.77476758  0.49583234  1  -0.063538  0.009722  -0.097764  -0.16946  0.006362  3.929518  0.006
C  C255  1  0.71171562  0.22522401  0.99583622  1  -0.063526  -0.010438  -0.097891  -0.169711  -0.006936  3.929711  -0.006
C  C256  1  0.22316364  0.69477572  0.45308570  1  -0.056468  0.003371  -0.098073  -0.083301  0.002378  4.057705  0.002
C  C257  1  0.27682989  0.30523327  0.95308007  1  -0.056429  0.002765  -0.097956  -0.083143  0.001713  4.057544  0.003
C  C258  1  0.72317414  0.80522040  0.54691507  1  -0.056443  -0.003372  -0.098124  -0.083494  -0.002382  4.057766  -0.002
C  C259  1  0.77683791  0.19477026  0.04691762  1  -0.056447  0.002765  -0.097879  -0.082948  0.001713  4.057413  0.003
C  C260  1  0.11724198  0.63991249  0.45793002  1  -0.039511  -0.011492  -0.110463  -0.132818  -0.007804  4.079953  -0.007
C  C261  1  0.38276246  0.36009495  0.95792854  1  -0.040562  -0.011459  -0.110447  -0.132917  -0.007648  4.080079  -0.007
C  C262  1  0.61724279  0.86008656  0.54206984  1  -0.039716  0.011493  -0.110448  -0.132751  0.007794  4.079855  0.007
C  C263  1  0.88276684  0.13990464  0.04207095  1  -0.040323  -0.011457  -0.110444  -0.132936  -0.007647  4.080138  -0.007
C  C264  1  0.07209051  0.61738012  0.51506507  1  -0.029746  0.002434  -0.09619  -0.074719  0.001577  4.034346  0.002
C  C265  1  0.42791630  0.38261827  0.01506507  1  -0.029666  0.002946  -0.096155  -0.074753  0.001973  4.034495  0.002
C  C266  1  0.57209323  0.88261557  0.48493614  1  -0.02987  -0.002435  -0.096111  -0.074658  -0.001581  4.034315  -0.002
C  C267  1  0.92792252  0.11737963  0.98493802  1  -0.029868  0.002945  -0.096232  -0.074728  0.001972  4.034724  0.002
C  C268  1  0.13631014  0.64764179  0.56645497  1  -0.042931  -0.012085  -0.09674  -0.174065  -0.00823  3.94896  -0.008
C  C269  1  0.36369546  0.35235214  0.06645471  1  -0.043066  -0.01248  -0.096753  -0.174014  -0.008449  3.948845  -0.008
C  C270  1  0.63631474  0.85235114  0.43354489  1  -0.042778  0.012089  -0.096777  -0.174119  0.008221  3.949031  0.008
C  C271  1  0.86370586  0.14764651  0.93354658  1  -0.043008  -0.012481  -0.096724  -0.173977  -0.008451  3.94896  -0.008
N  N272  1  0.99039806  0.96824665  0.50820767  1  -1.213452  0.093743  -0.392185  -0.48211  0.064616  3.519414  0.079
N  N273  1  0.50958610  0.03175644  0.00821486  1  -1.213154  0.093704  -0.39222  -0.482168  0.064568  3.519469  0.079
N  N274  1  0.49040691  0.53176107  0.49179400  1  -1.213124  -0.093747  -0.392314  -0.482434  -0.064708  3.5197  -0.079
N  N275  1  0.00957935  0.46824256  0.99178597  1  -1.213216  0.093695  -0.392327  -0.482421  0.064559  3.519514  0.079
N  N276  1  0.85593190  0.99984991  0.60850500  1  -1.258598  0.08757  -0.359912  -0.272838  0.061485  3.756996  0.076
N  N277  1  0.64407410  0.00015489  0.10851105  1  -1.257513  0.087467  -0.359804  -0.272662  0.061393  3.756443  0.076
N  N278  1  0.35593295  0.50015479  0.39149577  1  -1.257671  -0.08759  -0.35984  -0.272407  -0.061584  3.756652  -0.076
N  N279  1  0.14407149  0.49984207  0.89148799  1  -1.257583  0.087447  -0.35982  -0.272556  0.061382  3.756421  0.076
N  N280  1  0.95020231  0.90720790  0.68173557  1  -1.212301  0.087194  -0.382917  -0.481072  0.060444  3.466832  0.074
N  N281  1  0.54979521  0.09279279  0.18173922  1  -1.212051  0.087196  -0.382943  -0.481012  0.060453  3.466304  0.074
N  N282  1  0.45019888  0.59279493  0.31826385  1  -1.212117  -0.087201  -0.382885  -0.481092  -0.060535  3.466629  -0.074
N  N283  1  0.04978251  0.40720454  0.81826340  1  -1.211826  0.087188  -0.382871  -0.480916  0.060449  3.466351  0.074
N  N284  1  0.37961358  0.92182613  0.67404451  1  -1.193461  -0.087467  -0.384975  -0.487913  -0.060586  3.478198  -0.074
N  N285  1  0.12038718  0.07816946  0.17404556  1  -1.194237  -0.087519  -0.384951  -0.487989  -0.060586  3.478168  -0.074
N  N286  1  0.87961693  0.57817091  0.32595266  1  -1.194547  0.087485  -0.384972  -0.487917  0.060507  3.478198  0.074
N  N287  1  0.62038789  0.42183164  0.82595258  1  -1.194146  -0.087496  -0.38495  -0.487948  -0.060565  3.478473  -0.074
N  N288  1  0.44423381  0.79807893  0.70040013  1  -1.25059  -0.087576  -0.361957  -0.272765  -0.061431  3.74974  -0.076
N  N289  1  0.05574756  0.20192048  0.20039408  1  -1.250539  -0.08754  -0.362137  -0.272828  -0.061393  3.749825  -0.076
N  N290  1  0.94423685  0.70191988  0.29959570  1  -1.251155  0.087577  -0.362047  -0.272688  0.061342  3.749779  0.076
N  N291  1  0.55575463  0.29807884  0.79960180  1  -1.250562  -0.087532  -0.361982  -0.272729  -0.061387  3.749883  -0.076
N  N292  1  0.32463097  0.73023989  0.61216899  1  -1.210723  -0.086869  -0.389109  -0.485718  -0.059864  3.506043  -0.073
N  N293  1  0.17535402  0.26976124  0.11216341  1  -1.210681  -0.08699  -0.389217  -0.485976  -0.059939  3.506228  -0.073
N  N294  1  0.82464223  0.76975584  0.38783088  1  -1.210302  0.086857  -0.389039  -0.485665  0.059772  3.50636  0.073
N  N295  1  0.67536259  0.23023965  0.88783338  1  -1.210599  -0.086991  -0.389188  -0.485863  -0.059943  3.506106  -0.073
O  O296  1  0.15753664  0.85915346  0.57934789  1  -1.128306  0.001368  -0.614798  -0.796622  0.000891  2.38997  0.001
O  O297  1  0.34244956  0.14084694  0.07934719  1  -1.128442  0.001199  -0.614734  -0.796625  0.000786  2.389986  0.001
O  O298  1  0.65755681  0.64084292  0.42065108  1  -1.128826  -0.001366  -0.61477  -0.796785  -0.000939  2.390042  -0.001
O  O299  1  0.84243954  0.35915281  0.92065230  1  -1.128834  0.001197  -0.614674  -0.796609  0.000785  2.389984  0.001
O  O300  1  0.85921468  0.05715385  0.45822829  1  -1.174128  0.013361  -0.408219  -0.577701  0.008928  2.120181  0.011
O  O301  1  0.64077803  0.94284965  0.95823699  1  -1.173674  0.013317  -0.408321  -0.577753  0.008915  2.120723  0.011
O  O302  1  0.35921448  0.44285391  0.54177165  1  -1.173751  -0.013364  -0.408271  -0.577679  -0.008949  2.120155  -0.011
O  O303  1  0.14077171  0.55714426  0.04176152  1  -1.173522  0.013324  -0.408347  -0.577718  0.008923  2.120614  0.011
O  O304  1  0.86780212  0.97231352  0.76466968  1  -1.170433  0.014613  -0.418347  -0.570296  0.009746  2.201145  0.012
O  O305  1  0.63220754  0.02769205  0.26466520  1  -1.170702  0.014648  -0.418289  -0.570167  0.009752  2.202073  0.012
O  O306  1  0.36781830  0.52768610  0.23533154  1  -1.170477  -0.01463  -0.418364  -0.57033  -0.009767  2.201121  -0.012
O  O307  1  0.13221399  0.47230142  0.73533428  1  -1.170622  0.014554  -0.418254  -0.570052  0.009719  2.202043  0.012
O  O308  1  0.48672607  0.95842642  0.76623301  1  -1.175311  -0.017106  -0.401455  -0.555672  -0.011453  2.201658  -0.014
O  O309  1  0.01329168  0.04157297  0.26623699  1  -1.175384  -0.017095  -0.401294  -0.55539  -0.011465  2.202198  -0.014
O  O310  1  0.98673628  0.54157223  0.23376597  1  -1.17535  0.01711  -0.401336  -0.555477  0.011452  2.202096  0.014
O  O311  1  0.51330732  0.45842348  0.73375844  1  -1.176074  -0.017121  -0.401186  -0.555318  -0.011457  2.202239  -0.014
O  O312  1  0.35644078  0.62905467  0.66647408  1  -1.155709  -0.017178  -0.420194  -0.569042  -0.011428  2.221135  -0.014
O  O313  1  0.14353210  0.37094704  0.16646470  1  -1.154961  -0.016955  -0.420284  -0.569046  -0.011304  2.221031  -0.014
O  O314  1  0.85642798  0.87094246  0.33352580  1  -1.155502  0.017304  -0.420157  -0.56901  0.01152  2.221053  0.014
O  O315  1  0.64356108  0.12905347  0.83352894  1  -1.155019  -0.016834  -0.420172  -0.568985  -0.011199  2.220726  -0.014
