# generated using pymatgen
data_CoH34C28(NO2)4
_symmetry_space_group_name_H-M   'P 1'
_cell_length_a   7.66337192
_cell_length_b   8.34119268
_cell_length_c   10.74245380
_cell_angle_alpha   96.10994958
_cell_angle_beta   98.85244827
_cell_angle_gamma   96.85213421
_symmetry_Int_Tables_number   1
_chemical_formula_structural   CoH34C28(NO2)4
_chemical_formula_sum   'Co1 H34 C28 N4 O8'
_cell_volume   668.17664650
_cell_formula_units_Z   1
loop_
 _symmetry_equiv_pos_site_id
 _symmetry_equiv_pos_as_xyz
  1  'x, y, z'
loop_
 _atom_site_type_symbol
 _atom_site_label
 _atom_site_symmetry_multiplicity
 _atom_site_fract_x
 _atom_site_fract_y
 _atom_site_fract_z
 _atom_site_occupancy
 _atom_site_pbe_bader_spin_density
 _atom_site_pbe_cm5_charge
 _atom_site_pbe_ddec_charge
 _atom_site_pbe_ddec_spin_density
 _atom_site_pbe_ddec_sum_bond_order
 _atom_site_pbe_magmom
Co  Co0  1  0.99999978  0.00000004  0.00000115  1  0  0.61374  0.637052  0  2.886356  0
H  H1  1  0.37401137  0.03950478  0.04423662  1  0  0.310699  0.383883  0  0.907595  0
H  H2  1  0.62599625  0.96048864  0.95575298  1  0  0.310746  0.383974  0  0.907499  0
H  H3  1  0.27188889  0.92736307  0.91554630  1  0  0.278475  0.352668  0  1.017894  0
H  H4  1  0.72810277  0.07263034  0.08444507  1  0  0.27842  0.352566  0  1.018013  0
H  H5  1  0.35916644  0.71468889  0.05032578  1  0  0.30369  0.274894  0  0.985035  0
H  H6  1  0.64083718  0.28531413  0.94967168  1  0  0.303652  0.274874  0  0.985125  0
H  H7  1  0.25489607  0.28729512  0.11707135  1  0  0.119836  0.112558  0  1.057454  0
H  H8  1  0.74511228  0.71270533  0.88293204  1  0  0.119841  0.112537  0  1.057554  0
H  H9  1  0.88739718  0.15944677  0.78404612  1  0  0.117929  0.094904  0  1.029653  0
H  H10  1  0.11260969  0.84055249  0.21595604  1  0  0.117921  0.094947  0  1.029675  0
H  H11  1  0.96855104  0.42840968  0.70903388  1  0  0.103786  0.105897  0  1.054996  0
H  H12  1  0.03145338  0.57159080  0.29096809  1  0  0.103768  0.105868  0  1.054994  0
H  H13  1  0.20177566  0.63434508  0.84698858  1  0  0.112876  0.127938  0  1.012592  0
H  H14  1  0.79822745  0.36565541  0.15301324  1  0  0.112887  0.127958  0  1.012546  0
H  H15  1  0.54498079  0.84660361  0.19887640  1  0  0.095047  0.108309  0  1.010312  0
H  H16  1  0.45501724  0.15340665  0.80112570  1  0  0.095041  0.108262  0  1.010382  0
H  H17  1  0.69021196  0.73932521  0.29234052  1  0  0.09772  0.115882  0  1.001124  0
H  H18  1  0.30979855  0.26068758  0.70765590  1  0  0.097701  0.115882  0  1.001119  0
H  H19  1  0.32030318  0.79023557  0.35271217  1  0  0.086544  0.075955  0  1.008779  0
H  H20  1  0.67970665  0.20976606  0.64729245  1  0  0.086517  0.075942  0  1.00885  0
H  H21  1  0.49125195  0.71738823  0.44912616  1  0  0.091137  0.082226  0  1.007659  0
H  H22  1  0.50875634  0.28260257  0.55087167  1  0  0.091179  0.082312  0  1.007621  0
H  H23  1  0.50163328  0.06147434  0.36982259  1  0  0.089909  0.089775  0  0.978799  0
H  H24  1  0.49838241  0.93852349  0.63018798  1  0  0.089927  0.08981  0  0.979003  0
H  H25  1  0.68302943  0.99364015  0.45915737  1  0  0.084521  0.075764  0  1.009429  0
H  H26  1  0.31698298  0.00635290  0.54084863  1  0  0.08453  0.075759  0  1.009454  0
H  H27  1  0.00227816  0.08576599  0.44605215  1  0  0.100491  0.112473  0  1.014126  0
H  H28  1  0.99770507  0.91423453  0.55395000  1  0  0.100526  0.112475  0  1.014212  0
H  H29  1  0.19904033  0.17288188  0.39603008  1  0  0.105778  0.130386  0  0.989911  0
H  H30  1  0.80094418  0.82711009  0.60397237  1  0  0.105809  0.130436  0  0.990013  0
H  H31  1  0.73715978  0.29588187  0.40604870  1  0  0.103015  0.110069  0  1.03419  0
H  H32  1  0.26283209  0.70412128  0.59394359  1  0  0.102997  0.110068  0  1.03413  0
H  H33  1  0.69388188  0.56561387  0.50412579  1  0  0.100024  0.102078  0  1.028941  0
H  H34  1  0.30611002  0.43438931  0.49586558  1  0  0.100004  0.102055  0  1.028857  0
C  C35  1  0.24248197  0.47803791  0.99494950  1  0  0.103372  0.214641  0  4.027988  0
C  C36  1  0.75752212  0.52196868  0.00505207  1  0  0.103296  0.214658  0  4.028085  0
C  C37  1  0.19587866  0.32163779  0.02707522  1  0  0.029105  -0.045596  0  3.878544  0
C  C38  1  0.80412774  0.67836640  0.97292455  1  0  0.029064  -0.045672  0  3.878689  0
C  C39  1  0.98986607  0.25149487  0.83975943  1  0  0.026311  0.04363  0  3.947507  0
C  C40  1  0.01013857  0.74850684  0.16024175  1  0  0.026332  0.043505  0  3.94764  0
C  C41  1  0.03500497  0.40161591  0.79998634  1  0  -0.086238  -0.109623  0  4.016637  0
C  C42  1  0.96499744  0.59838827  0.20001387  1  0  -0.086276  -0.109606  0  4.016584  0
C  C43  1  0.16298352  0.51654642  0.87715758  1  0  -0.07434  -0.130167  0  3.900766  0
C  C44  1  0.83701873  0.48345657  0.12284157  1  0  -0.074308  -0.130198  0  3.900655  0
C  C45  1  0.45499160  0.58931900  0.19398354  1  0  0.239856  0.534547  0  4.065075  0
C  C46  1  0.54501405  0.41069627  0.80601159  1  0  0.240053  0.53487  0  4.06487  0
C  C47  1  0.54921252  0.75187375  0.26248509  1  0  -0.165591  -0.299903  0  3.933563  0
C  C48  1  0.45078989  0.24813044  0.73751512  1  0  -0.165607  -0.299873  0  3.933339  0
C  C49  1  0.46634738  0.80281624  0.37920342  1  0  -0.162991  -0.119918  0  3.938728  0
C  C50  1  0.53366364  0.19718422  0.62079936  1  0  -0.16294  -0.119964  0  3.938628  0
C  C51  1  0.53609930  0.97706647  0.43920829  1  0  -0.167639  -0.15002  0  3.958494  0
C  C52  1  0.46391442  0.02292659  0.56079787  1  0  -0.167717  -0.150171  0  3.958828  0
C  C53  1  0.96428904  0.12295480  0.25337997  1  0  0.222382  0.62242  0  4.103039  0
C  C54  1  0.03569645  0.87704327  0.74662224  1  0  0.22226  0.622286  0  4.103175  0
C  C55  1  0.05583069  0.17767792  0.39002928  1  0  -0.156442  -0.335715  0  3.924177  0
C  C56  1  0.94415299  0.82231657  0.60996958  1  0  -0.156453  -0.335701  0  3.924437  0
C  C57  1  0.02480752  0.34400771  0.44537337  1  0  -0.014941  0.122721  0  3.970485  0
C  C58  1  0.97517821  0.65599162  0.55462712  1  0  -0.014916  0.122805  0  3.970617  0
C  C59  1  0.85291260  0.38419605  0.44825855  1  0  -0.095507  -0.144913  0  3.988782  0
C  C60  1  0.14707511  0.61580699  0.55173974  1  0  -0.095465  -0.144971  0  3.988508  0
C  C61  1  0.82902659  0.53787825  0.50233909  1  0  -0.091369  -0.139382  0  3.992331  0
C  C62  1  0.17096187  0.46212113  0.49765895  1  0  -0.091458  -0.139419  0  3.991982  0
N  N63  1  0.07069240  0.21098331  0.95066500  1  0  -0.346065  -0.177381  0  3.686232  0
N  N64  1  0.92931348  0.78901835  0.04933913  1  0  -0.346031  -0.177248  0  3.686224  0
N  N65  1  0.36010668  0.59948700  0.07585878  1  0  -0.40169  -0.391216  0  3.582861  0
N  N66  1  0.63990085  0.40051597  0.92414102  1  0  -0.40171  -0.391373  0  3.582521  0
O  O67  1  0.46017048  0.46072531  0.24148632  1  0  -0.2988  -0.482965  0  2.074069  0
O  O68  1  0.53984500  0.53927020  0.75851842  1  0  -0.298881  -0.483066  0  2.074624  0
O  O69  1  0.06970305  0.09024308  0.17461221  1  0  -0.304122  -0.506629  0  2.477737  0
O  O70  1  0.93028432  0.90975864  0.82539057  1  0  -0.304057  -0.506499  0  2.47766  0
O  O71  1  0.79637289  0.10980090  0.22657048  1  0  -0.307205  -0.535698  0  2.210791  0
O  O72  1  0.20361776  0.89018746  0.77342866  1  0  -0.307183  -0.5357  0  2.210942  0
O  O73  1  0.29852293  0.93599613  0.01353729  1  0  -0.556401  -0.742989  0  2.092454  0
O  O74  1  0.70147323  0.06400090  0.98645589  1  0  -0.556372  -0.742947  0  2.092373  0
