# generated using pymatgen
data_ZnH21C47N5O12
_symmetry_space_group_name_H-M   'P 1'
_cell_length_a   14.75734258
_cell_length_b   16.19047654
_cell_length_c   27.90654927
_cell_angle_alpha   90.21942802
_cell_angle_beta   89.97143626
_cell_angle_gamma   89.98841730
_symmetry_Int_Tables_number   1
_chemical_formula_structural   ZnH21C47N5O12
_chemical_formula_sum   'Zn2 H42 C94 N10 O24'
_cell_volume   6667.61754801
_cell_formula_units_Z   2
loop_
 _symmetry_equiv_pos_site_id
 _symmetry_equiv_pos_as_xyz
  1  'x, y, z'
loop_
 _atom_site_type_symbol
 _atom_site_label
 _atom_site_symmetry_multiplicity
 _atom_site_fract_x
 _atom_site_fract_y
 _atom_site_fract_z
 _atom_site_occupancy
 _atom_site_pbe_bader_charge
 _atom_site_pbe_bader_spin_density
 _atom_site_pbe_cm5_charge
 _atom_site_pbe_ddec_charge
 _atom_site_pbe_ddec_spin_density
 _atom_site_pbe_ddec_sum_bond_order
 _atom_site_pbe_magmom
Zn  Zn0  1  0.59733784  0.49996223  0.49995730  1  1.313928  0  0.696723  0.897869  0  2.44546  0
Zn  Zn1  1  0.40195981  0.49992769  0.50003119  1  1.332102  0  0.697117  0.894755  0  2.435084  0
H  H2  1  0.64449275  0.49796813  0.35033282  1  0.150116  0  0.112006  0.114977  0  1.000979  0
H  H3  1  0.64461572  0.50326000  0.64960941  1  0.140381  0  0.112316  0.115291  0  1.000679  0
H  H4  1  0.64864866  0.50109022  0.26005407  1  0.051216  0  0.116347  0.124976  0  0.96845  0
H  H5  1  0.64867198  0.50023321  0.73988024  1  0.049746  0  0.116316  0.124801  0  0.968257  0
H  H6  1  0.58240166  0.70505562  0.12255911  1  0.122694  0  0.115071  0.123636  0  0.990477  0
H  H7  1  0.58253481  0.29559197  0.87736714  1  0.120376  0  0.115071  0.123567  0  0.990753  0
H  H8  1  0.35418681  0.49066010  0.65385054  1  0.149786  0  0.122083  0.137376  0  0.995208  0
H  H9  1  0.35400768  0.50875224  0.34616194  1  0.148086  0  0.122108  0.137338  0  0.99539  0
H  H10  1  0.47618668  0.69884284  0.87874657  1  0.132381  0  0.117588  0.123395  0  0.974733  0
H  H11  1  0.47615664  0.30181682  0.12117200  1  0.090792  0  0.11753  0.123718  0  0.974787  0
H  H12  1  0.50297707  0.70534099  0.96639795  1  0.097747  0  0.106946  0.111385  0  1.015424  0
H  H13  1  0.50281896  0.29538167  0.03350827  1  0.105457  0  0.106933  0.111234  0  1.015014  0
H  H14  1  0.05343161  0.53284244  0.37114618  1  0.058697  0  0.103171  0.104159  0  0.994655  0
H  H15  1  0.14273506  0.61409895  0.31258960  1  0.099999  0  0.105471  0.106445  0  0.991673  0
H  H16  1  0.23708502  0.73259671  0.34056992  1  0.046434  0  0.105945  0.101093  0  0.986175  0
H  H17  1  0.24464235  0.76668590  0.42770498  1  0.071737  0  0.099969  0.099288  0  1.011158  0
H  H18  1  0.15908582  0.68305664  0.48637483  1  0.064121  0  0.104896  0.106931  0  0.98987  0
H  H19  1  0.94689216  0.28094061  0.52968981  1  0.076905  0  0.105613  0.106978  0  0.989873  0
H  H20  1  0.86089225  0.18705373  0.58305310  1  0.076197  0  0.10642  0.105985  0  0.989466  0
H  H21  1  0.76907286  0.24500628  0.65027740  1  0.075526  0  0.10757  0.103263  0  0.984868  0
H  H22  1  0.76031261  0.39690645  0.66222270  1  0.062121  0  0.10203  0.096394  0  1.004967  0
H  H23  1  0.84321494  0.49135094  0.60740380  1  0.071979  0  0.102227  0.101611  0  0.994302  0
H  H24  1  0.05304741  0.46678807  0.62893533  1  0.059633  0  0.102947  0.10391  0  0.994555  0
H  H25  1  0.14237846  0.38553312  0.68741990  1  0.101086  0  0.105416  0.106551  0  0.991511  0
H  H26  1  0.23707541  0.26724805  0.65938456  1  0.045771  0  0.105802  0.101019  0  0.986271  0
H  H27  1  0.24490972  0.23335641  0.57221913  1  0.070748  0  0.099915  0.099402  0  1.010465  0
H  H28  1  0.15932024  0.31697947  0.51360013  1  0.063623  0  0.105013  0.107073  0  0.989769  0
H  H29  1  0.94679011  0.71898287  0.47035749  1  0.077099  0  0.105457  0.106724  0  0.990034  0
H  H30  1  0.86084985  0.81283623  0.41697590  1  0.076742  0  0.106651  0.106547  0  0.988911  0
H  H31  1  0.76933069  0.75487810  0.34971925  1  0.066086  0  0.10764  0.10312  0  0.984945  0
H  H32  1  0.76083583  0.60299241  0.33769513  1  0.067898  0  0.10209  0.096601  0  1.004618  0
H  H33  1  0.84367540  0.50854729  0.39252090  1  0.070042  0  0.102337  0.101513  0  0.993535  0
H  H34  1  0.71161519  0.66035798  0.98784262  1  0.070799  0  0.102425  0.102592  0  0.996163  0
H  H35  1  0.78044836  0.78672483  0.95360360  1  0.060076  0  0.106183  0.103837  0  0.984786  0
H  H36  1  0.71943729  0.92542257  0.97537017  1  0.061625  0  0.10154  0.096501  0  1.003435  0
H  H37  1  0.59027998  0.93644280  0.03285324  1  0.059265  0  0.101442  0.09677  0  1.002107  0
H  H38  1  0.52169485  0.80991287  0.06709117  1  0.069634  0  0.106007  0.108348  0  0.991637  0
H  H39  1  0.71128368  0.34049387  0.01213234  1  0.06382  0  0.102645  0.102797  0  0.99609  0
H  H40  1  0.78015209  0.21415535  0.04645975  1  0.034477  0  0.105841  0.10298  0  0.985462  0
H  H41  1  0.71926655  0.07543518  0.02469861  1  0.03873  0  0.101648  0.096321  0  1.004118  0
H  H42  1  0.59039300  0.06432674  0.96717950  1  0.066379  0  0.101491  0.096944  0  1.002771  0
H  H43  1  0.52178275  0.19076585  0.93286468  1  0.067221  0  0.106144  0.108444  0  0.991874  0
C  C44  1  0.50102239  0.66008759  0.49993519  1  1.707935  0  0.224814  0.646958  0  4.266872  0
C  C45  1  0.50107792  0.33980991  0.50009881  1  1.712128  0  0.224967  0.647916  0  4.266121  0
C  C46  1  0.49778132  0.50087345  0.40730766  1  1.549409  0  0.219174  0.593163  0  4.180149  0
C  C47  1  0.49798452  0.49918721  0.59267204  1  1.547693  0  0.218775  0.592085  0  4.18218  0
C  C48  1  0.53313270  0.58288057  0.17944939  1  1.334374  0  0.241946  0.450538  0  4.100444  0
C  C49  1  0.53320742  0.41779935  0.82049282  1  1.333405  0  0.242144  0.450952  0  4.101738  0
C  C50  1  0.49500884  0.43148983  0.17902502  1  1.319984  0  0.240219  0.445268  0  4.106635  0
C  C51  1  0.49503637  0.56919519  0.82092521  1  1.309576  0  0.23965  0.444133  0  4.107867  0
C  C52  1  0.42162706  0.51087654  0.27780392  1  0.255218  0  0.088043  0.007742  0  3.874504  0
C  C53  1  0.42173530  0.48918683  0.72220501  1  0.258189  0  0.088153  0.007845  0  3.873229  0
C  C54  1  0.41887578  0.50770420  0.32763845  1  0.038685  0  -0.06028  -0.107868  0  3.907428  0
C  C55  1  0.41902221  0.49214273  0.67236352  1  0.040804  0  -0.059997  -0.107567  0  3.906146  0
C  C56  1  0.58251996  0.50157183  0.32930242  1  0.026075  0  -0.06311  -0.054253  0  3.933924  0
C  C57  1  0.58263265  0.49921028  0.67064336  1  -0.105607  0  -0.063886  -0.055102  0  3.935298  0
C  C58  1  0.58466625  0.50370000  0.27952585  1  -0.011071  0  -0.074559  -0.142272  0  3.959857  0
C  C59  1  0.58473710  0.49723691  0.72041749  1  0.131867  0  -0.074062  -0.141104  0  3.95889  0
C  C60  1  0.50462724  0.50872273  0.25320604  1  0.393925  0  0.11161  0.177481  0  3.987157  0
C  C61  1  0.50471888  0.49185105  0.74676820  1  0.38728  0  0.11167  0.176705  0  3.987503  0
C  C62  1  0.52959311  0.50369257  0.10172695  1  0.09372  0  0.003392  0.036274  0  4.006029  0
C  C63  1  0.52966173  0.49698659  0.89820659  1  -0.04442  0  0.00361  0.036771  0  4.005225  0
C  C64  1  0.54204726  0.57908974  0.12678294  1  -0.073332  0  -0.010948  -0.064005  0  4.006493  0
C  C65  1  0.54211111  0.42158672  0.87314705  1  -0.000475  0  -0.010576  -0.06427  0  4.009608  0
C  C66  1  0.56701995  0.64940628  0.10197009  1  0.04273  0  -0.064853  -0.11417  0  3.922556  0
C  C67  1  0.56706409  0.35125495  0.89794591  1  0.045778  0  -0.065022  -0.113356  0  3.924728  0
C  C68  1  0.50731576  0.43046677  0.12662439  1  -0.077156  0  -0.010807  -0.070372  0  4.002998  0
C  C69  1  0.50745952  0.57023475  0.87331558  1  -0.01291  0  -0.011016  -0.070689  0  4.000193  0
C  C70  1  0.49952605  0.50353621  0.35356731  1  -0.005057  0  -0.005069  -0.012132  0  3.937317  0
C  C71  1  0.49967331  0.49665767  0.64641032  1  -0.00365  0  -0.004998  -0.012046  0  3.938302  0
C  C72  1  0.53475336  0.57600168  0.97379989  1  -0.015501  0  0.005318  0.04321  0  3.973027  0
C  C73  1  0.53464558  0.42472764  0.02611558  1  -0.019142  0  0.005499  0.042012  0  3.972391  0
C  C74  1  0.55161620  0.42263428  0.97447221  1  -0.000839  0  0.00914  -0.000971  0  3.919992  0
C  C75  1  0.55164250  0.57807879  0.02544661  1  -0.00901  0  0.008327  -0.003002  0  3.919346  0
C  C76  1  0.53882945  0.49839729  0.94913448  1  -0.058207  0  0.003123  0.000845  0  3.930306  0
C  C77  1  0.53880878  0.50230615  0.05078973  1  -0.070109  0  0.003631  0.001719  0  3.928901  0
C  C78  1  0.51065533  0.64662905  0.94782896  1  -0.056033  0  -0.078731  -0.116491  0  3.965196  0
C  C79  1  0.51045375  0.35411307  0.05207660  1  -0.053184  0  -0.079158  -0.115442  0  3.962587  0
C  C80  1  0.49578897  0.64371479  0.89849004  1  0.026046  0  -0.066281  -0.063182  0  3.957924  0
C  C81  1  0.49561760  0.35700859  0.10143793  1  0.072871  0  -0.065947  -0.064329  0  3.960574  0
C  C82  1  0.57402459  0.65035118  0.05161547  1  0.015563  0  0.005243  0.036188  0  3.940971  0
C  C83  1  0.57401995  0.35036047  0.94830378  1  0.028264  0  0.005154  0.033846  0  3.945586  0
C  C84  1  0.58246284  0.04264040  0.49905320  1  0.247814  0  0.104279  0.00617  0  3.86444  0
C  C85  1  0.41965300  0.95723830  0.50112441  1  0.308925  0  0.10378  0.005346  0  3.872312  0
C  C86  1  0.58243901  0.95719098  0.50131962  1  0.283478  0  0.103949  0.008841  0  3.862115  0
C  C87  1  0.41968093  0.04267340  0.49877766  1  0.196033  0  0.103948  0.008062  0  3.870615  0
C  C88  1  0.50107849  0.08854654  0.49801301  1  0.182858  0  0.031136  0.087876  0  4.069237  0
C  C89  1  0.50103805  0.91134123  0.50209655  1  0.242275  0  0.031427  0.08789  0  4.070083  0
C  C90  1  0.50101766  0.17515007  0.49847505  1  0.026187  0  -0.046774  -0.09056  0  4.130789  0
C  C91  1  0.50095998  0.82474286  0.50160015  1  0.02833  0  -0.04721  -0.090895  0  4.131334  0
C  C92  1  0.50086761  0.74969394  0.50034169  1  -0.208037  0  0.006423  -0.064052  0  3.850078  0
C  C93  1  0.50096637  0.25019341  0.49974032  1  -0.205287  0  0.006216  -0.06445  0  3.849707  0
C  C94  1  0.95253598  0.55256426  0.46731923  1  -0.040708  0  0.021739  0.022283  0  3.934396  0
C  C95  1  0.04754751  0.44783813  0.53299458  1  0.145013  0  0.022847  0.023694  0  3.935907  0
C  C96  1  0.95246134  0.44736179  0.53270426  1  -0.059759  0  0.021603  0.020307  0  3.935801  0
C  C97  1  0.04761847  0.55205761  0.46705349  1  0.13413  0  0.022335  0.022379  0  3.936545  0
C  C98  1  0.90755697  0.49995833  0.50000307  1  0.152924  0  0.01753  -0.037765  0  4.038538  0
C  C99  1  0.09235189  0.49995472  0.50003525  1  0.142678  0  0.018772  -0.035308  0  4.037336  0
C  C100  1  0.81140349  0.49995872  0.49996552  1  0.775669  0  0.246461  0.322088  0  3.969927  0
C  C101  1  0.18841795  0.49996300  0.50006998  1  0.775044  0  0.248209  0.323798  0  3.969865  0
C  C102  1  0.10020700  0.60260637  0.43254473  1  -0.033565  0  -0.017469  0.04345  0  4.047864  0
C  C103  1  0.09554666  0.58405768  0.38342608  1  -0.032135  0  -0.086723  -0.121563  0  3.971137  0
C  C104  1  0.14540975  0.63013211  0.35054545  1  -0.074329  0  -0.08633  -0.071133  0  4.009123  0
C  C105  1  0.19888486  0.69604009  0.36637166  1  -0.050871  0  -0.085307  -0.079243  0  4.003744  0
C  C106  1  0.20353511  0.71499525  0.41518102  1  -0.024448  0  -0.086184  -0.064732  0  4.002553  0
C  C107  1  0.15504223  0.66804354  0.44828237  1  -0.003831  0  -0.087958  -0.130184  0  3.97839  0
C  C108  1  0.90053515  0.39220139  0.56502265  1  -0.055392  0  -0.015712  0.049308  0  4.04092  0
C  C109  1  0.90564881  0.30631029  0.55864494  1  -0.024019  0  -0.084002  -0.119154  0  3.964932  0
C  C110  1  0.85770829  0.25363031  0.58883806  1  -0.010872  0  -0.083453  -0.067145  0  4.006956  0
C  C111  1  0.80572789  0.28619612  0.62627744  1  -0.112388  0  -0.083808  -0.077342  0  4.004607  0
C  C112  1  0.80059862  0.37159042  0.63288773  1  0.010594  0  -0.088817  -0.073354  0  4.022558  0
C  C113  1  0.84712035  0.42460041  0.60217807  1  -0.035051  0  -0.090154  -0.134195  0  3.993647  0
C  C114  1  0.10010801  0.39723943  0.56747776  1  -0.031551  0  -0.017775  0.043599  0  4.047544  0
C  C115  1  0.09534323  0.41568733  0.61660413  1  -0.032268  0  -0.086549  -0.121632  0  3.971498  0
C  C116  1  0.14521017  0.36961457  0.64945516  1  -0.075157  0  -0.086212  -0.070866  0  4.008766  0
C  C117  1  0.19885056  0.30379185  0.63359364  1  -0.049749  0  -0.085522  -0.079385  0  4.002605  0
C  C118  1  0.20364576  0.28495725  0.58477450  1  -0.027048  0  -0.085727  -0.064823  0  4.001988  0
C  C119  1  0.15511710  0.33189663  0.55170374  1  -0.003787  0  -0.088094  -0.13049  0  3.979013  0
C  C120  1  0.90072196  0.60771067  0.43496251  1  -0.076436  0  -0.015987  0.048146  0  4.041857  0
C  C121  1  0.90569277  0.69359853  0.44136779  1  -0.026652  0  -0.083691  -0.118315  0  3.965208  0
C  C122  1  0.85780099  0.74627253  0.41116572  1  0.008185  0  -0.083808  -0.068272  0  4.006955  0
C  C123  1  0.80596325  0.71368641  0.37371343  1  -0.115032  0  -0.083834  -0.076966  0  4.005353  0
C  C124  1  0.80097282  0.62829849  0.36706734  1  -0.000289  0  -0.088656  -0.073532  0  4.022962  0
C  C125  1  0.84746851  0.57529841  0.39777670  1  -0.028082  0  -0.090225  -0.133831  0  3.993123  0
C  C126  1  0.61126373  0.72628431  0.02946668  1  -0.017244  0  -0.009599  0.061139  0  4.018583  0
C  C127  1  0.68466539  0.72095108  0.99739797  1  -0.027291  0  -0.088829  -0.128792  0  3.981283  0
C  C128  1  0.72323623  0.79199889  0.97818326  1  -0.042871  0  -0.091039  -0.079011  0  4.031565  0
C  C129  1  0.68921015  0.86987822  0.99057196  1  -0.051454  0  -0.093793  -0.093457  0  4.032074  0
C  C130  1  0.61692238  0.87599050  0.02270226  1  -0.048431  0  -0.094773  -0.085905  0  4.045569  0
C  C131  1  0.57845241  0.80479648  0.04218832  1  -0.078638  0  -0.090151  -0.135217  0  3.978662  0
C  C132  1  0.61119053  0.27445853  0.97048583  1  -0.032234  0  -0.009449  0.062339  0  4.019195  0
C  C133  1  0.68444804  0.27987665  0.00260032  1  -0.032398  0  -0.089138  -0.129554  0  3.981574  0
C  C134  1  0.72302319  0.20887217  0.02185727  1  -0.039975  0  -0.090432  -0.077819  0  4.030251  0
C  C135  1  0.68911698  0.13097224  0.00945629  1  -0.007584  0  -0.094155  -0.093138  0  4.03127  0
C  C136  1  0.61697024  0.12478352  0.97729211  1  -0.050561  0  -0.094504  -0.085917  0  4.04645  0
C  C137  1  0.57849073  0.19592739  0.95776627  1  -0.074512  0  -0.090726  -0.135904  0  3.978645  0
N  N138  1  0.51180807  0.50767920  0.20197424  1  -1.209338  0  -0.237665  -0.236479  0  3.643626  0
N  N139  1  0.51193358  0.49300438  0.79798552  1  -1.212552  0  -0.23766  -0.235267  0  3.642301  0
N  N140  1  0.26694089  0.49997615  0.50008466  1  -1.137168  0  -0.286234  -0.2995  0  3.148047  0
N  N141  1  0.73284872  0.49992229  0.49991992  1  -1.13768  0  -0.286195  -0.301158  0  3.140777  0
N  N142  1  0.33418506  0.48317916  0.74759592  1  0.388151  0  0.062279  0.532388  0  4.192725  0
N  N143  1  0.33408619  0.51649483  0.25243949  1  0.386104  0  0.062457  0.531972  0  4.194389  0
N  N144  1  0.66969661  0.91187170  0.50158748  1  0.441054  0  0.065187  0.514633  0  4.241727  0
N  N145  1  0.33264271  0.08823910  0.49881220  1  0.435059  0  0.064986  0.512533  0  4.24816  0
N  N146  1  0.66973725  0.08788411  0.49904219  1  0.420682  0  0.064936  0.514015  0  4.245772  0
N  N147  1  0.33258677  0.91174778  0.50089209  1  0.429896  0  0.064633  0.512622  0  4.24901  0
O  O148  1  0.57861540  0.62667271  0.49816245  1  -1.123477  0  -0.300564  -0.523161  0  2.252328  0
O  O149  1  0.42358252  0.37352120  0.49856890  1  -1.129174  0  -0.299984  -0.526252  0  2.259567  0
O  O150  1  0.57864296  0.37326914  0.50179877  1  -1.121767  0  -0.300597  -0.523585  0  2.2521  0
O  O151  1  0.42356779  0.62633962  0.50149488  1  -1.126751  0  -0.299993  -0.526046  0  2.259527  0
O  O152  1  0.57442021  0.49691303  0.42804848  1  -1.15539  0  -0.313836  -0.550759  0  2.338508  0
O  O153  1  0.42076554  0.49696308  0.57261964  1  -1.148402  0  -0.309476  -0.535947  0  2.315802  0
O  O154  1  0.57463544  0.50316401  0.57190373  1  -1.157272  0  -0.313742  -0.550519  0  2.338298  0
O  O155  1  0.42055379  0.50292924  0.42740103  1  -1.151365  0  -0.309772  -0.536749  0  2.313791  0
O  O156  1  0.54398662  0.64616403  0.20333057  1  -1.114615  0  -0.28775  -0.446716  0  2.051831  0
O  O157  1  0.54396038  0.35450660  0.79660888  1  -1.109325  0  -0.287875  -0.447007  0  2.052816  0
O  O158  1  0.47223650  0.62979812  0.79731231  1  -1.100559  0  -0.286121  -0.444668  0  2.051984  0
O  O159  1  0.47236759  0.37084869  0.20266178  1  -1.108526  0  -0.286395  -0.444895  0  2.05015  0
O  O160  1  0.26558525  0.50594385  0.72565431  1  -0.452243  0  -0.135766  -0.341585  0  1.888004  0
O  O161  1  0.33384969  0.45465153  0.78880100  1  -0.448897  0  -0.142018  -0.341446  0  1.888296  0
O  O162  1  0.26570017  0.49275273  0.27424088  1  -0.45356  0  -0.136417  -0.341582  0  1.88711  0
O  O163  1  0.33354590  0.54571697  0.21140164  1  -0.445202  0  -0.141653  -0.34093  0  1.888759  0
O  O164  1  0.68461646  0.86756181  0.53637391  1  -0.394194  0  -0.091059  -0.272009  0  1.868842  0
O  O165  1  0.71917512  0.92253642  0.46634430  1  -0.418495  0  -0.110952  -0.302249  0  1.862719  0
O  O166  1  0.31744620  0.13308109  0.46428430  1  -0.389743  0  -0.0894  -0.270002  0  1.87057  0
O  O167  1  0.28367093  0.07774519  0.53429827  1  -0.424821  0  -0.110497  -0.301685  0  1.864287  0
O  O168  1  0.68516702  0.13219248  0.46431020  1  -0.381205  0  -0.091004  -0.271539  0  1.869492  0
O  O169  1  0.71876559  0.07711077  0.53442389  1  -0.414313  0  -0.110784  -0.301513  0  1.864685  0
O  O170  1  0.31699453  0.86698551  0.53541146  1  -0.386407  0  -0.08895  -0.269434  0  1.8711  0
O  O171  1  0.28398886  0.92224146  0.46528409  1  -0.423806  0  -0.110607  -0.301782  0  1.864179  0
