# generated using pymatgen
data_CuH12C18SN3O4
_symmetry_space_group_name_H-M   'P 1'
_cell_length_a   8.30996486
_cell_length_b   9.86096749
_cell_length_c   10.84040853
_cell_angle_alpha   91.73033548
_cell_angle_beta   103.00642435
_cell_angle_gamma   114.89308197
_symmetry_Int_Tables_number   1
_chemical_formula_structural   CuH12C18SN3O4
_chemical_formula_sum   'Cu2 H24 C36 S2 N6 O8'
_cell_volume   777.22578148
_cell_formula_units_Z   2
loop_
 _symmetry_equiv_pos_site_id
 _symmetry_equiv_pos_as_xyz
  1  'x, y, z'
loop_
 _atom_site_type_symbol
 _atom_site_label
 _atom_site_symmetry_multiplicity
 _atom_site_fract_x
 _atom_site_fract_y
 _atom_site_fract_z
 _atom_site_occupancy
 _atom_site_hle17_ddec_charge
 _atom_site_hle17_ddec_spin_density
 _atom_site_hle17_ddec_sum_bond_order
 _atom_site_hle17_magmom
 _atom_site_hse06_10hf_ddec_charge
 _atom_site_hse06_10hf_ddec_spin_density
 _atom_site_hse06_10hf_ddec_sum_bond_order
 _atom_site_hse06_10hf_magmom
 _atom_site_hse06_ddec_charge
 _atom_site_hse06_ddec_spin_density
 _atom_site_hse06_ddec_sum_bond_order
 _atom_site_hse06_magmom
 _atom_site_pbe_cm5_charge
 _atom_site_pbe_ddec_charge
 _atom_site_pbe_ddec_spin_density
 _atom_site_pbe_ddec_sum_bond_order
 _atom_site_pbe_magmom
Cu  Cu0  1  0.84499758  0.79136265  0.34574604  1  0.838336  -0.684533  1.876069  -0.503  0.806994  -0.77283  2.283229  -0.618  0.894752  -0.841846  2.212765  -0.708  0.768944  0.75593  -0.724294  2.33201  -0.56
Cu  Cu1  1  0.15500362  0.20863486  0.65425453  1  0.838318  -0.684547  1.876265  -0.503  0.807044  -0.772837  2.283325  -0.618  0.894747  -0.841868  2.21302  -0.708  0.76896  0.755963  -0.724307  2.332136  -0.56
H  H2  1  0.59870977  0.95654644  0.29638419  1  0.088315  -0.001384  0.951398  -0.002  0.097532  -0.001199  1.01459  -0.002  0.098634  -0.000826  1.01386  -0.002  0.12306  0.096591  -0.001526  1.014852  -0.003
H  H3  1  0.40128466  0.04345223  0.70361338  1  0.088283  -0.001383  0.951302  -0.002  0.097503  -0.001199  1.014485  -0.002  0.098607  -0.000826  1.013753  -0.002  0.123034  0.096562  -0.001526  1.014746  -0.003
H  H4  1  0.26298233  0.88113842  0.20040184  1  0.136075  -0.000394  0.970056  0.0  0.143796  -0.000376  1.029828  -0.001  0.147117  -0.000251  1.028428  0.0  0.112992  0.141325  -0.000466  1.030587  -0.001
H  H5  1  0.73701520  0.11886373  0.79959368  1  0.136091  -0.000394  0.97003  0.0  0.143827  -0.000376  1.029792  -0.001  0.147148  -0.000251  1.028391  0.0  0.113018  0.14135  -0.000466  1.03055  -0.001
H  H6  1  0.06316180  0.61395977  0.09042342  1  0.088032  -0.000145  0.939102  0.0  0.102943  4.8e-05  0.993108  0.0  0.104725  7.5e-05  0.99252  0.0  0.107335  0.101307  1e-05  0.9941  0.0
H  H7  1  0.93683138  0.38604350  0.90957138  1  0.08802  -0.000145  0.939085  0.0  0.102934  4.8e-05  0.993089  0.0  0.104718  7.5e-05  0.992499  0.0  0.107322  0.101298  1e-05  0.994082  0.0
H  H8  1  0.20073958  0.43062024  0.09641838  1  0.117677  -0.000748  0.942492  -0.001  0.129707  -0.0007  0.99937  -0.001  0.132769  -0.000487  0.997799  -0.001  0.113339  0.127426  -0.000878  1.0008  -0.001
H  H9  1  0.79925748  0.56938555  0.90356985  1  0.117614  -0.00075  0.94249  -0.001  0.129693  -0.0007  0.999324  -0.001  0.132756  -0.000487  0.997752  -0.001  0.113308  0.127413  -0.000879  1.000757  -0.001
H  H10  1  0.36069010  0.30301518  0.08647057  1  0.118319  -0.000646  0.949123  -0.001  0.12905  -0.000603  1.0082  -0.001  0.132609  -0.000444  1.005923  -0.001  0.115617  0.126769  -0.000754  1.009577  -0.001
H  H11  1  0.63931464  0.69698904  0.91353279  1  0.118293  -0.000646  0.949137  -0.001  0.129029  -0.000603  1.008206  -0.001  0.132588  -0.000444  1.00593  -0.001  0.115597  0.126748  -0.000754  1.009582  -0.001
H  H12  1  0.89570805  0.31538250  0.24535078  1  0.140568  -0.000358  0.986355  -0.001  0.149208  -0.000429  1.045535  -0.001  0.153948  -0.000318  1.04284  -0.001  0.114479  0.145813  -0.000698  1.046832  -0.001
H  H13  1  0.10429063  0.68461726  0.75464945  1  0.140594  -0.000355  0.986361  -0.001  0.149233  -0.000429  1.045541  -0.001  0.153996  -0.000317  1.042812  -0.001  0.114484  0.14584  -0.000698  1.046836  -0.001
H  H14  1  0.15507326  0.44682072  0.38537659  1  0.133114  -0.000701  0.964916  -0.001  0.140313  -0.00062  1.026504  -0.001  0.144078  -0.000414  1.024994  -0.001  0.111751  0.137206  -0.000876  1.028186  -0.001
H  H15  1  0.84492308  0.55317458  0.61462117  1  0.133152  -0.000703  0.964954  -0.001  0.140361  -0.00062  1.026505  -0.001  0.144132  -0.000414  1.02498  -0.001  0.111778  0.137255  -0.000876  1.02819  -0.001
H  H16  1  0.46271635  0.63607155  0.52495385  1  0.113712  -0.000233  0.925176  0.0  0.12689  8e-06  0.976362  0.0  0.129657  3.6e-05  0.974432  0.0  0.112599  0.124364  -2.8e-05  0.978441  0.0
H  H17  1  0.53727939  0.36392262  0.47504375  1  0.11373  -0.000233  0.925156  0.0  0.126869  8e-06  0.976385  0.0  0.129645  3.6e-05  0.974443  0.0  0.112592  0.124339  -2.8e-05  0.978463  0.0
H  H18  1  0.50760032  0.89315609  0.59207628  1  0.119837  -0.000435  0.974313  -0.001  0.127719  -0.000422  1.036292  -0.001  0.130954  -0.000306  1.035531  0.0  0.109518  0.125122  -0.000522  1.037197  -0.001
H  H19  1  0.49240094  0.10684148  0.40792246  1  0.119891  -0.000435  0.974276  -0.001  0.127708  -0.000422  1.03631  -0.001  0.130946  -0.000306  1.03555  0.0  0.109503  0.125099  -0.000522  1.037269  -0.001
H  H20  1  0.24393399  0.96410864  0.51067254  1  0.094896  -0.001328  0.973037  -0.003  0.098431  -0.001167  1.043279  -0.002  0.100564  -0.000783  1.040283  -0.002  0.120181  0.0962  -0.001481  1.046258  -0.003
H  H21  1  0.75606464  0.03588646  0.48933208  1  0.094846  -0.001329  0.972961  -0.003  0.098431  -0.001167  1.043157  -0.002  0.100563  -0.000784  1.040161  -0.002  0.120136  0.096197  -0.001481  1.046136  -0.003
H  H22  1  0.26931436  0.09354427  0.01175766  1  0.103487  -2.7e-05  0.936814  0.0  0.11751  1.5e-05  0.989598  0.0  0.120646  1.2e-05  0.987322  0.0  0.109243  0.114627  2e-06  0.992043  0.0
H  H23  1  0.73068801  0.90646007  0.98824159  1  0.103513  -2.8e-05  0.936799  0.0  0.117516  1.5e-05  0.989604  0.0  0.120651  1.2e-05  0.987331  0.0  0.109236  0.114631  2e-06  0.99205  0.0
H  H24  1  0.82679992  0.14009244  0.12239660  1  0.111424  5.6e-05  0.986373  0.0  0.122007  1.4e-05  1.044319  0.0  0.126108  1.3e-05  1.04152  0.0  0.104694  0.118347  -5.6e-05  1.047106  0.0
H  H25  1  0.17320244  0.85991189  0.87760265  1  0.111436  5.4e-05  0.986373  0.0  0.122025  1.4e-05  1.044315  0.0  0.126123  1.3e-05  1.04152  0.0  0.104714  0.118367  -5.6e-05  1.0471  0.0
C  C26  1  0.50381182  0.84168765  0.25177946  1  0.150828  0.01017  3.667778  0.007  0.122947  0.003064  3.920044  0.002  0.132155  0.004655  3.939707  0.003  0.061181  0.117275  0.001783  3.906507  0.001
C  C27  1  0.49618500  0.15831554  0.74821876  1  0.150708  0.010148  3.667587  0.007  0.12287  0.003065  3.919781  0.002  0.132077  0.004655  3.939442  0.003  0.061136  0.117201  0.001783  3.906236  0.001
C  C28  1  0.31821541  0.79915292  0.19513256  1  -0.109084  -0.007985  3.687053  -0.009  -0.12175  -0.003905  3.931819  -0.005  -0.128328  -0.003281  3.95321  -0.004  -0.074589  -0.117564  -0.004499  3.916778  -0.006
C  C29  1  0.68178322  0.20085137  0.80486695  1  -0.109033  -0.007969  3.68702  -0.009  -0.121732  -0.003905  3.931762  -0.005  -0.128312  -0.003281  3.953154  -0.004  -0.074595  -0.117544  -0.004499  3.916715  -0.006
C  C30  1  0.20866618  0.65079775  0.13565168  1  -0.004977  0.009539  3.728094  0.006  -0.023323  0.003913  3.980316  0.002  -0.020507  0.004314  3.998976  0.002  -0.066294  -0.024845  0.003761  3.968489  0.002
C  C31  1  0.79133184  0.34920541  0.86434767  1  -0.004947  0.009518  3.728039  0.006  -0.023317  0.003914  3.980301  0.002  -0.020502  0.004315  3.998964  0.002  -0.066273  -0.024843  0.003762  3.968471  0.002
C  C32  1  0.28466268  0.54901667  0.13621208  1  -0.130726  -0.004387  3.700268  -0.004  -0.153648  -0.001968  3.954304  -0.002  -0.158789  -0.001807  3.974237  -0.002  -0.076581  -0.151355  -0.002289  3.941729  -0.002
C  C33  1  0.71533544  0.45098430  0.86378534  1  -0.130696  -0.004368  3.700294  -0.004  -0.15366  -0.001968  3.954329  -0.002  -0.15881  -0.001808  3.974258  -0.002  -0.076594  -0.151369  -0.00229  3.941753  -0.002
C  C34  1  0.47103304  0.59975294  0.19612908  1  0.170155  0.003423  3.752827  0.001  0.168946  -0.000445  3.993855  -0.001  0.174982  0.000943  4.015719  0.0  0.119302  0.165488  -0.001408  3.97821  -0.002
C  C35  1  0.52896261  0.40024802  0.80386789  1  0.170061  0.003401  3.75304  0.001  0.168863  -0.000444  3.994045  -0.001  0.174921  0.000943  4.015874  0.0  0.119278  0.165397  -0.001407  3.978399  -0.002
C  C36  1  0.57057612  0.50605701  0.20440963  1  0.194913  0.005746  3.785703  0.004  0.191628  0.001584  4.032266  0.001  0.202522  0.002732  4.050415  0.002  0.122113  0.184679  0.000876  4.019858  0.0
C  C37  1  0.42942327  0.49394399  0.79558709  1  0.194936  0.005759  3.785735  0.004  0.191623  0.001587  4.032315  0.001  0.202513  0.002731  4.050453  0.002  0.122116  0.18468  0.000877  4.019905  0.0
C  C38  1  0.50283467  0.35967061  0.14290234  1  -0.152019  -0.005058  3.627422  -0.005  -0.181571  -0.002845  3.879396  -0.003  -0.188244  -0.002525  3.896521  -0.003  -0.066415  -0.180221  -0.003097  3.869152  -0.003
C  C39  1  0.49716464  0.64033030  0.85709713  1  -0.15203  -0.005071  3.627433  -0.005  -0.18157  -0.002848  3.879422  -0.003  -0.188243  -0.002524  3.896551  -0.003  -0.066405  -0.180222  -0.003097  3.869183  -0.003
C  C40  1  0.61944066  0.28802615  0.15240713  1  0.126841  0.008977  3.719882  0.006  0.136367  0.004741  3.956258  0.003  0.144416  0.00487  3.97554  0.003  0.020894  0.130675  0.004918  3.943765  0.003
C  C41  1  0.38055865  0.71197708  0.84759061  1  0.12682  0.008995  3.719874  0.006  0.136309  0.004745  3.956291  0.003  0.144356  0.004869  3.975578  0.003  0.02087  0.130615  0.004918  3.943812  0.003
C  C42  1  0.80015227  0.36633763  0.23122049  1  -0.181821  -0.005814  3.606995  -0.006  -0.207201  -0.003181  3.850222  -0.004  -0.21596  -0.002702  3.868303  -0.003  -0.073792  -0.198485  -0.003238  3.835867  -0.004
C  C43  1  0.19984516  0.63366440  0.76877871  1  -0.181812  -0.005831  3.606962  -0.006  -0.207174  -0.003183  3.850195  -0.004  -0.215947  -0.0027  3.868259  -0.003  -0.073773  -0.198459  -0.003238  3.835846  -0.004
C  C44  1  0.85858409  0.51176746  0.29233735  1  0.191765  0.006491  3.800188  0.004  0.187367  0.002315  4.049473  0.002  0.198333  0.00343  4.067884  0.002  0.119073  0.179681  0.001503  4.036289  0.001
C  C45  1  0.14141826  0.48823456  0.70766364  1  0.191719  0.006498  3.800162  0.004  0.187293  0.00232  4.049479  0.002  0.198259  0.003426  4.067889  0.002  0.11906  0.179608  0.001502  4.036295  0.001
C  C46  1  0.04226765  0.60916032  0.37603732  1  0.15671  0.004135  3.765638  0.002  0.157936  -0.000235  4.006074  -0.001  0.164689  0.001185  4.02793  0.0  0.114555  0.153539  -0.001364  3.991793  -0.003
C  C47  1  0.95773416  0.39083603  0.62396423  1  0.156835  0.004136  3.765559  0.002  0.158057  -0.000236  4.005977  -0.001  0.164813  0.001188  4.027826  0.0  0.114635  0.15366  -0.001364  3.991694  -0.003
C  C48  1  0.17992467  0.56198851  0.41637321  1  -0.138486  -0.005402  3.67505  -0.006  -0.156587  -0.002297  3.920713  -0.002  -0.163616  -0.00203  3.940899  -0.002  -0.079581  -0.152223  -0.002379  3.908061  -0.002
C  C49  1  0.82007164  0.43800444  0.58362720  1  -0.138711  -0.005396  3.675291  -0.006  -0.156772  -0.002297  3.92086  -0.002  -0.163804  -0.002032  3.941057  -0.002  -0.079678  -0.152406  -0.00238  3.908204  -0.002
C  C50  1  0.34912064  0.66580374  0.49396596  1  0.018561  0.011194  3.67555  0.007  -0.002635  0.004413  3.926679  0.002  0.002339  0.004783  3.943078  0.003  -0.062413  -0.005441  0.004196  3.915747  0.002
C  C51  1  0.65087445  0.33418693  0.50603505  1  0.018632  0.01119  3.675531  0.007  -0.002534  0.004413  3.926608  0.002  0.002435  0.004784  3.943001  0.003  -0.062356  -0.005336  0.004196  3.915669  0.002
C  C52  1  0.37548246  0.81206830  0.53041099  1  -0.115707  -0.008982  3.67868  -0.01  -0.126829  -0.004058  3.927266  -0.005  -0.13456  -0.003423  3.947615  -0.004  -0.078726  -0.121782  -0.004596  3.913569  -0.006
C  C53  1  0.62451324  0.18792121  0.46959099  1  -0.115814  -0.008978  3.67869  -0.01  -0.126893  -0.004058  3.927302  -0.005  -0.134624  -0.003422  3.947652  -0.004  -0.078758  -0.121862  -0.004595  3.913605  -0.006
C  C54  1  0.23174531  0.85141048  0.48708474  1  0.141247  0.011428  3.663399  0.008  0.112897  0.003363  3.921569  0.002  0.123585  0.004993  3.938193  0.004  0.053356  0.105489  0.002075  3.911905  0.001
C  C55  1  0.76825273  0.14858348  0.51291971  1  0.141433  0.01143  3.663397  0.008  0.113049  0.003363  3.921567  0.002  0.12374  0.004994  3.938185  0.004  0.053419  0.105646  0.002076  3.911898  0.001
C  C56  1  0.55694645  0.13921253  0.07770280  1  0.0328  0.000544  3.758589  0.0  0.050155  0.000632  3.987511  0.0  0.048097  0.000489  4.011453  0.0  -0.004963  0.051116  0.000735  3.971485  0.0
C  C57  1  0.44305413  0.86079074  0.92229424  1  0.032872  0.000495  3.758494  0.0  0.050252  0.000638  3.987415  0.0  0.048194  0.000482  4.011357  0.0  -0.004952  0.05121  0.000735  3.971396  0.0
C  C58  1  0.37325364  0.05539955  0.00674501  1  -0.076185  0.001146  3.706766  0.001  -0.099906  0.000904  3.957707  0.0  -0.101302  0.000871  3.977593  0.0  -0.077759  -0.100353  0.000726  3.945942  0.0
C  C59  1  0.62675001  0.94460485  0.99325263  1  -0.07623  0.001208  3.70672  0.001  -0.099949  0.0009  3.957666  0.0  -0.101346  0.000879  3.977552  0.0  -0.077761  -0.100393  0.000726  3.945898  0.0
C  C60  1  0.68259459  0.08030594  0.06947511  1  -0.09512  0.00125  3.707386  0.001  -0.113736  0.000819  3.951185  0.0  -0.115792  0.000719  3.970925  0.0  -0.081794  -0.113687  0.000854  3.940017  0.0
C  C61  1  0.31740656  0.91969842  0.93052301  1  -0.095148  0.001314  3.70739  0.001  -0.113797  0.000815  3.95123  0.0  -0.115853  0.000727  3.970972  0.0  -0.081824  -0.113748  0.000854  3.940066  0.0
S  S62  1  0.87717806  0.87423167  0.66905888  1  1.543083  0.008643  5.859143  0.006  1.449302  0.001024  6.395713  0.001  1.510946  0.00058  6.358975  0.0  0.540906  1.405882  0.000958  6.417685  0.001
S  S63  1  0.12282741  0.12576233  0.33094690  1  1.543084  0.00865  5.85955  0.006  1.449268  0.001018  6.396149  0.001  1.510917  0.000577  6.359421  0.0  0.540802  1.40582  0.000959  6.418101  0.001
N  N64  1  0.57792199  0.74490907  0.25218859  1  -0.30927  -0.072571  3.264556  -0.092  -0.263497  -0.056112  3.546173  -0.077  -0.292857  -0.045158  3.567553  -0.067  -0.328633  -0.247181  -0.062471  3.533905  -0.081
N  N65  1  0.42207169  0.25509520  0.74781004  1  -0.309124  -0.072562  3.264637  -0.092  -0.263377  -0.056114  3.546225  -0.077  -0.292734  -0.045157  3.567609  -0.067  -0.328598  -0.247058  -0.062473  3.533957  -0.081
N  N66  1  0.74541303  0.57874417  0.27625613  1  -0.371708  -0.083029  3.379408  -0.107  -0.337161  -0.062984  3.681132  -0.087  -0.36759  -0.051497  3.695781  -0.077  -0.357214  -0.318646  -0.068215  3.672919  -0.09
N  N67  1  0.25458571  0.42125565  0.72374227  1  -0.371609  -0.083031  3.379329  -0.107  -0.337056  -0.062981  3.68105  -0.087  -0.367479  -0.051491  3.695724  -0.077  -0.357178  -0.318537  -0.068211  3.672838  -0.09
N  N68  1  0.06900845  0.75224090  0.41139043  1  -0.321142  -0.08011  3.279418  -0.103  -0.279942  -0.057671  3.573398  -0.079  -0.310906  -0.045654  3.593612  -0.068  -0.334197  -0.262521  -0.064579  3.563204  -0.084
N  N69  1  0.93098965  0.24775544  0.58861046  1  -0.321281  -0.080108  3.279469  -0.103  -0.280122  -0.057667  3.573519  -0.079  -0.311082  -0.045649  3.593749  -0.068  -0.334244  -0.262696  -0.064577  3.56332  -0.084
O  O70  1  0.77479586  0.81129104  0.53231572  1  -0.758095  -0.002442  1.99535  -0.006  -0.722883  -0.000506  2.281965  -0.003  -0.750977  0.000887  2.261094  -0.001  -0.383303  -0.701239  -0.00274  2.294962  -0.005
O  O71  1  0.22521640  0.18870642  0.46768959  1  -0.758131  -0.002443  1.995442  -0.006  -0.722853  -0.000506  2.281982  -0.003  -0.750942  0.000888  2.261133  -0.001  -0.383236  -0.701205  -0.002741  2.294977  -0.005
O  O72  1  0.90205770  0.75514168  0.73966231  1  -0.711936  -0.035159  1.917066  -0.046  -0.677943  -0.013123  2.162956  -0.019  -0.705036  -0.006495  2.148044  -0.01  -0.367614  -0.656448  -0.018575  2.170829  -0.025
O  O73  1  0.09795638  0.24485688  0.26034430  1  -0.711941  -0.035179  1.917138  -0.046  -0.677954  -0.013125  2.163033  -0.019  -0.705056  -0.006496  2.148133  -0.01  -0.367614  -0.656446  -0.018583  2.170883  -0.025
O  O74  1  0.92925864  0.00570592  0.32754157  1  -0.72616  -0.077136  2.039928  -0.105  -0.70936  -0.038657  2.36524  -0.058  -0.749235  -0.025775  2.346848  -0.042  -0.389419  -0.680383  -0.049234  2.37657  -0.069
O  O75  1  0.07075793  0.99429728  0.67246201  1  -0.726212  -0.07716  2.039642  -0.105  -0.709417  -0.038666  2.364899  -0.058  -0.749288  -0.02578  2.346534  -0.042  -0.389496  -0.680442  -0.049242  2.37624  -0.069
O  O76  1  0.78159479  0.94308794  0.72869981  1  -0.72819  -0.003742  1.929692  -0.005  -0.69161  -0.000517  2.181902  -0.001  -0.714857  0.00044  2.165723  0.0  -0.371732  -0.672392  -0.002122  2.191273  -0.003
O  O77  1  0.21841736  0.05691399  0.27130661  1  -0.728232  -0.003745  1.929636  -0.006  -0.691644  -0.000516  2.181853  -0.001  -0.714893  0.000441  2.165677  0.0  -0.371781  -0.672422  -0.002122  2.191227  -0.003
