# generated using pymatgen
data_ZnH12C22(NO3)2
_symmetry_space_group_name_H-M   'P 1'
_cell_length_a   9.69856612
_cell_length_b   11.02392304
_cell_length_c   23.69771845
_cell_angle_alpha   90.44253926
_cell_angle_beta   90.04941322
_cell_angle_gamma   88.76129192
_symmetry_Int_Tables_number   1
_chemical_formula_structural   ZnH12C22(NO3)2
_chemical_formula_sum   'Zn2 H24 C44 N4 O12'
_cell_volume   2533.00283472
_cell_formula_units_Z   2
loop_
 _symmetry_equiv_pos_site_id
 _symmetry_equiv_pos_as_xyz
  1  'x, y, z'
loop_
 _atom_site_type_symbol
 _atom_site_label
 _atom_site_symmetry_multiplicity
 _atom_site_fract_x
 _atom_site_fract_y
 _atom_site_fract_z
 _atom_site_occupancy
 _atom_site_pbe_bader_charge
 _atom_site_pbe_bader_spin_density
 _atom_site_pbe_cm5_charge
 _atom_site_pbe_ddec_charge
 _atom_site_pbe_ddec_spin_density
 _atom_site_pbe_ddec_sum_bond_order
 _atom_site_pbe_magmom
Zn  Zn0  1  0.35769030  0.51057092  0.50128970  1  1.278104  0  0.663206  0.807036  0  2.4502  0
Zn  Zn1  1  0.63985643  0.50484221  0.49875978  1  1.285336  0  0.664701  0.811551  0  2.457634  0
H  H2  1  0.60307269  0.78626762  0.04445812  1  0.13143  0  0.118728  0.124491  0  0.976906  0
H  H3  1  0.70966499  0.52981776  0.32166453  1  0.092287  0  0.10564  0.107856  0  1.000905  0
H  H4  1  0.26769237  0.54283290  0.31963250  1  0.095094  0  0.105605  0.107928  0  1.000558  0
H  H5  1  0.72094481  0.88713777  0.50074479  1  0.058244  0  0.098091  0.099484  0  1.017104  0
H  H6  1  0.72566585  0.11171033  0.49008564  1  0.079155  0  0.099959  0.104598  0  1.007403  0
H  H7  1  0.18315913  0.14565193  0.52993646  1  0.06398  0  0.093409  0.102603  0  0.988178  0
H  H8  1  0.18198388  0.11971137  0.45547019  1  0.043983  0  0.093317  0.098844  0  0.989389  0
H  H9  1  0.17312386  0.89415978  0.47179634  1  0.03968  0  0.095165  0.105583  0  0.983523  0
H  H10  1  0.87508020  0.38094609  0.43303310  1  0.143089  0  0.138579  0.12219  0  0.962635  0
H  H11  1  0.61572122  0.76628976  0.93800888  1  0.12439  0  0.119451  0.124715  0  0.976036  0
H  H12  1  0.13583483  0.38222944  0.43488338  1  0.148782  0  0.137905  0.119109  0  0.970306  0
H  H13  1  0.12317661  0.74386076  0.57659214  1  0.118393  0  0.110265  0.130082  0  0.999526  0
H  H14  1  0.85624666  0.62651144  0.62116327  1  0.079475  0  0.113746  0.137892  0  0.969307  0
H  H15  1  0.86085906  0.74802759  0.57199372  1  0.093671  0  0.113727  0.13873  0  0.972211  0
H  H16  1  0.41806740  0.18617040  0.95558681  1  0.119207  0  0.118854  0.124461  0  0.976563  0
H  H17  1  0.40711916  0.20581474  0.06195682  1  0.094671  0  0.12004  0.126418  0  0.973687  0
H  H18  1  0.29687854  0.47980298  0.78850110  1  0.063822  0  0.108964  0.11645  0  0.979601  0
H  H19  1  0.28799198  0.48542483  0.68261667  1  0.085474  0  0.103182  0.101882  0  1.013092  0
H  H20  1  0.72652775  0.43264978  0.67546176  1  0.085122  0  0.105194  0.105644  0  1.003962  0
H  H21  1  0.73688862  0.42584532  0.78131273  1  0.080663  0  0.109947  0.117089  0  0.979367  0
H  H22  1  0.71304805  0.52010366  0.21576492  1  0.072501  0  0.109006  0.115399  0  0.980295  0
H  H23  1  0.26959684  0.53371328  0.21372033  1  0.082883  0  0.109373  0.116094  0  0.980103  0
H  H24  1  0.18173814  0.92111816  0.54613969  1  0.02537  0  0.091217  0.093947  0  1.006737  0
H  H25  1  0.11878119  0.62042337  0.62476120  1  0.077088  0  0.112196  0.133669  0  0.972226  0
C  C26  1  0.49936120  0.74344659  0.51032963  1  1.562334  0  0.214759  0.59506  0  4.181166  0
C  C27  1  0.57853141  0.70143615  0.02314464  1  -0.067632  0  -0.062027  -0.070784  0  3.932819  0
C  C28  1  0.58566414  0.69031390  0.96413734  1  0.014558  0  -0.061365  -0.067423  0  3.930143  0
C  C29  1  0.55388664  0.58149307  0.93764754  1  -0.059789  0  -0.004336  -0.058629  0  3.98442  0
C  C30  1  0.51406333  0.48059691  0.96998464  1  0.049546  0  0.003984  0.029445  0  4.000857  0
C  C31  1  0.48064430  0.36887552  0.94394125  1  -0.04016  0  -0.003943  -0.060691  0  3.982062  0
C  C32  1  0.44305054  0.27102893  0.97678990  1  -0.033286  0  -0.062596  -0.069457  0  3.931452  0
C  C33  1  0.43668215  0.28200294  0.03586542  1  0.043445  0  -0.061163  -0.069741  0  3.926747  0
C  C34  1  0.56034130  0.57225303  0.87525665  1  1.335234  0  0.243235  0.43726  0  4.099087  0
C  C35  1  0.48358488  0.35625764  0.88150321  1  1.366224  0  0.24366  0.440041  0  4.101622  0
C  C36  1  0.39057773  0.46947932  0.76342560  1  0.060299  0  -0.083871  -0.154131  0  3.977734  0
C  C37  1  0.50174888  0.47454747  0.61007208  1  1.554774  0  0.215381  0.591247  0  4.176293  0
C  C38  1  0.38558784  0.47285091  0.70479045  1  -0.087135  0  -0.079254  -0.07429  0  3.976869  0
C  C39  1  0.50698484  0.46188230  0.67306908  1  0.011061  0  -0.013798  -0.029115  0  3.954849  0
C  C40  1  0.63322864  0.44304728  0.70074388  1  0.023573  0  -0.078732  -0.07536  0  3.972146  0
C  C41  1  0.63889001  0.43899996  0.75942539  1  0.005959  0  -0.082932  -0.151633  0  3.975711  0
C  C42  1  0.51754112  0.45427175  0.79039078  1  0.27361  0  0.091155  0.202648  0  4.013823  0
C  C43  1  0.61592445  0.52492528  0.23884159  1  -0.024917  0  -0.083651  -0.151533  0  3.979105  0
C  C44  1  0.61413250  0.53038202  0.29749284  1  -0.043077  0  -0.078189  -0.071671  0  3.967655  0
C  C45  1  0.48854369  0.53551288  0.32665700  1  0.05164  0  -0.013291  -0.029863  0  3.955691  0
C  C46  1  0.36447840  0.53796442  0.29637968  1  0.007691  0  -0.078389  -0.074095  0  3.970584  0
C  C47  1  0.36559639  0.53294374  0.23765369  1  -0.059643  0  -0.083373  -0.150629  0  3.97763  0
C  C48  1  0.50868686  0.27193289  0.48783147  1  1.581451  0  0.213896  0.597857  0  4.177538  0
C  C49  1  0.49144358  0.52502238  0.20935104  1  0.37608  0  0.090551  0.198325  0  4.017915  0
C  C50  1  0.37979619  0.94921682  0.50243957  1  0.01277  0  -0.005414  0.060475  0  3.882438  0
C  C51  1  0.50005440  0.87796210  0.50489388  1  -0.015196  0  -0.014606  -0.072812  0  3.975713  0
C  C52  1  0.62493245  0.94033823  0.49979774  1  -0.055413  0  -0.088888  -0.10431  0  4.00303  0
C  C53  1  0.62763775  0.06578560  0.49340555  1  -0.050133  0  -0.088536  -0.103242  0  4.000057  0
C  C54  1  0.50537861  0.13722145  0.49127143  1  0.031488  0  -0.013914  -0.071826  0  3.975132  0
C  C55  1  0.38251775  0.07478899  0.49543535  1  -0.049554  0  -0.005199  0.063804  0  3.884739  0
C  C56  1  0.22678190  0.08915779  0.49569685  1  -0.01578  0  -0.153798  -0.197069  0  3.894343  0
C  C57  1  0.22357104  0.94733555  0.50498854  1  -0.038047  0  -0.152975  -0.197161  0  3.890364  0
C  C58  1  0.92364966  0.57080731  0.53559827  1  0.547369  0  0.147984  0.199616  0  3.859786  0
C  C59  1  0.48760729  0.53406480  0.38992071  1  1.516401  0  0.21501  0.593956  0  4.171829  0
C  C60  1  0.93055536  0.43684349  0.46320228  1  0.443188  0  0.066859  0.041667  0  3.870878  0
C  C61  1  0.07443303  0.43693136  0.46441458  1  0.495156  0  0.067774  0.045873  0  3.871118  0
C  C62  1  0.06735617  0.56971808  0.53726410  1  0.60218  0  0.14795  0.198261  0  3.861681  0
C  C63  1  0.07317025  0.65815261  0.58613682  1  -0.067938  0  -0.135861  -0.224012  0  3.813751  0
C  C64  1  0.90892212  0.66079216  0.58375238  1  -0.000566  0  -0.135115  -0.228018  0  3.812145  0
C  C65  1  0.45908356  0.40127762  0.12481558  1  1.34612  0  0.244357  0.437173  0  4.097999  0
C  C66  1  0.53379811  0.61773910  0.11815262  1  1.358559  0  0.243165  0.435245  0  4.105897  0
C  C67  1  0.53992305  0.60378267  0.05586096  1  -0.009027  0  -0.00292  -0.055551  0  3.979826  0
C  C68  1  0.50711014  0.49187710  0.02990930  1  -0.032761  0  0.003651  0.02835  0  4.000245  0
C  C69  1  0.46748215  0.39109015  0.06237076  1  -0.047977  0  -0.002623  -0.05602  0  3.980104  0
N  N70  1  0.49380767  0.51472328  0.14854345  1  -1.197067  0  -0.229596  -0.225489  0  3.582099  0
N  N71  1  0.52243273  0.45995136  0.85131741  1  -1.194765  0  -0.230808  -0.2296  0  3.582503  0
N  N72  1  0.85187524  0.50549665  0.49914712  1  -1.215637  0  -0.286376  -0.174567  0  3.465066  0
N  N73  1  0.14598341  0.50482117  0.50203056  1  -1.224881  0  -0.286828  -0.174923  0  3.466394  0
O  O74  1  0.38154853  0.69385450  0.51016785  1  -1.163884  0  -0.315504  -0.539375  0  2.306397  0
O  O75  1  0.56152879  0.71281344  0.14258093  1  -1.090993  0  -0.273938  -0.428536  0  2.062281  0
O  O76  1  0.59479855  0.65674196  0.84524683  1  -1.098167  0  -0.274508  -0.429685  0  2.06049  0
O  O77  1  0.45342855  0.26226012  0.85669099  1  -1.092781  0  -0.277108  -0.432218  0  2.056592  0
O  O78  1  0.61564151  0.68779151  0.51370986  1  -1.168826  0  -0.318655  -0.551133  0  2.33388  0
O  O79  1  0.38324755  0.48914332  0.58760894  1  -1.166431  0  -0.319363  -0.551076  0  2.313174  0
O  O80  1  0.61663311  0.47162209  0.58398555  1  -1.165216  0  -0.318796  -0.552081  0  2.323601  0
O  O81  1  0.39216007  0.32788429  0.49064613  1  -1.158332  0  -0.315592  -0.547309  0  2.327896  0
O  O82  1  0.62579217  0.32144409  0.48394102  1  -1.167629  0  -0.321131  -0.550819  0  2.312361  0
O  O83  1  0.37090224  0.52996322  0.41435526  1  -1.164408  0  -0.320453  -0.553643  0  2.31212  0
O  O84  1  0.60461930  0.53521213  0.41449099  1  -1.168607  0  -0.320972  -0.553923  0  2.325167  0
O  O85  1  0.42476320  0.31687224  0.15484630  1  -1.096952  0  -0.272448  -0.426603  0  2.063017  0
