# generated using pymatgen
data_ZnH15C23N2O5
_symmetry_space_group_name_H-M   'P 1'
_cell_length_a   11.89753293
_cell_length_b   14.65254992
_cell_length_c   15.74461033
_cell_angle_alpha   98.21674103
_cell_angle_beta   92.80878297
_cell_angle_gamma   107.07303583
_symmetry_Int_Tables_number   1
_chemical_formula_structural   ZnH15C23N2O5
_chemical_formula_sum   'Zn2 H30 C46 N4 O10'
_cell_volume   2584.82365866
_cell_formula_units_Z   2
loop_
 _symmetry_equiv_pos_site_id
 _symmetry_equiv_pos_as_xyz
  1  'x, y, z'
loop_
 _atom_site_type_symbol
 _atom_site_label
 _atom_site_symmetry_multiplicity
 _atom_site_fract_x
 _atom_site_fract_y
 _atom_site_fract_z
 _atom_site_occupancy
 _atom_site_pbe_bader_charge
 _atom_site_pbe_bader_spin_density
 _atom_site_pbe_cm5_charge
 _atom_site_pbe_ddec_charge
 _atom_site_pbe_ddec_spin_density
 _atom_site_pbe_ddec_sum_bond_order
 _atom_site_pbe_magmom
Zn  Zn0  1  0.54304069  0.59644754  0.48354076  1  1.288164  0  0.671669  0.824087  0  2.424621  0
Zn  Zn1  1  0.47553983  0.40495536  0.51749921  1  1.29655  0  0.671705  0.823024  0  2.42074  0
H  H2  1  0.64380503  0.76423851  0.05573479  1  0.094077  0  0.096138  0.095571  0  1.028433  0
H  H3  1  0.56260564  0.36781648  0.85993067  1  0.045518  0  0.10063  0.103967  0  1.011847  0
H  H4  1  0.32332532  0.97527498  0.67729170  1  0.046905  0  0.108104  0.102277  0  1.001357  0
H  H5  1  0.66565285  0.01725290  0.31044441  1  0.03898  0  0.105098  0.097705  0  1.014685  0
H  H6  1  0.47154552  0.76547441  0.53722695  1  0.104122  0  0.122505  0.1003  0  1.014307  0
H  H7  1  0.52701565  0.23023455  0.45538807  1  0.100058  0  0.121144  0.100307  0  1.018496  0
H  H8  1  0.67373300  0.69384246  0.34893082  1  0.078455  0  0.125472  0.113162  0  0.984052  0
H  H9  1  0.34363005  0.30895067  0.65365064  1  0.125449  0  0.126033  0.115511  0  0.979416  0
H  H10  1  0.68859909  0.89740201  0.81429556  1  0.038598  0  0.098805  0.057601  0  0.968315  0
H  H11  1  0.81748891  0.86597663  0.84361444  1  0.046576  0  0.100097  0.057404  0  0.961954  0
H  H12  1  0.84424434  0.98326534  0.98587081  1  0.041355  0  0.092808  0.124989  0  0.995694  0
H  H13  1  0.55181914  0.25083783  0.95835538  1  0.094258  0  0.1003  0.102033  0  1.014566  0
H  H14  1  0.85475001  0.04134928  0.89332399  1  0.014103  0  0.094733  0.126456  0  0.994717  0
H  H15  1  0.72337212  0.01933560  0.94665682  1  0.029386  0  0.092267  0.124547  0  1.012975  0
H  H16  1  0.45892722  0.10272185  0.17873499  1  0.03288  0  0.09957  0.058848  0  0.96298  0
H  H17  1  0.61303873  0.16110073  0.20772719  1  0.049692  0  0.097373  0.05536  0  0.974869  0
H  H18  1  0.66219442  0.06262380  0.08020037  1  0.042689  0  0.090983  0.122281  0  1.012842  0
H  H19  1  0.57096861  0.98477049  0.14345884  1  0.016035  0  0.090254  0.120226  0  1.00948  0
H  H20  1  0.50937287  0.00641772  0.04606109  1  0.063825  0  0.096079  0.132065  0  0.986981  0
H  H21  1  0.24591432  0.19300801  0.74053260  1  0.449681  0  0.320843  0.31467  0  0.923303  0
H  H22  1  0.24161237  0.07497807  0.72303215  1  0.448472  0  0.310864  0.300265  0  0.954456  0
H  H23  1  0.76227575  0.80759435  0.25747476  1  0.437659  0  0.319896  0.312909  0  0.923778  0
H  H24  1  0.40167690  0.85846659  0.59787738  1  0.056457  0  0.113551  0.116647  0  0.995677  0
H  H25  1  0.75736792  0.92300341  0.27074765  1  0.433579  0  0.311019  0.300294  0  0.953009  0
H  H26  1  0.58440104  0.13309752  0.38850486  1  0.082029  0  0.110597  0.110985  0  1.008265  0
H  H27  1  0.53051772  0.54169697  0.22164236  1  0.068609  0  0.099641  0.106598  0  1.04025  0
H  H28  1  0.52770681  0.45610554  0.78216077  1  0.063326  0  0.100196  0.106253  0  1.036292  0
H  H29  1  0.50943354  0.25595075  0.26189763  1  0.067035  0  0.099107  0.110515  0  1.053154  0
H  H30  1  0.63882356  0.75160912  0.74764479  1  0.090806  0  0.101306  0.115275  0  1.039615  0
H  H31  1  0.59722329  0.64283006  0.15111435  1  0.056356  0  0.095153  0.093539  0  1.032295  0
C  C32  1  0.54756729  0.56904744  0.66324537  1  1.548797  0  0.21345  0.595047  0  4.159607  0
C  C33  1  0.55307463  0.32445217  0.98322709  1  -0.038157  0  -0.096114  -0.122009  0  4.034038  0
C  C34  1  0.34776660  0.16064534  0.64685561  1  0.434858  0  0.104943  0.219531  0  4.106959  0
C  C35  1  0.65420008  0.83664473  0.34766620  1  0.401955  0  0.105022  0.219596  0  4.103772  0
C  C36  1  0.37323976  0.25076311  0.62043658  1  0.488959  0  0.029861  -0.054938  0  3.918105  0
C  C37  1  0.63617356  0.74913173  0.37795480  1  0.563603  0  0.031148  -0.051109  0  3.920584  0
C  C38  1  0.47745317  0.20620603  0.50852149  1  0.544673  0  0.043967  0.018702  0  3.923303  0
C  C39  1  0.52294231  0.79014000  0.48510554  1  0.516939  0  0.046745  0.024784  0  3.920264  0
C  C40  1  0.45801080  0.11285932  0.52932753  1  0.014157  0  0.001257  0.002229  0  3.986732  0
C  C41  1  0.53645774  0.88154920  0.46131013  1  0.0017  0  0.001251  0.002263  0  3.980653  0
C  C42  1  0.39174293  0.08895974  0.60047612  1  -0.004097  0  -0.003637  -0.003654  0  3.977997  0
C  C43  1  0.49829341  0.42853295  0.34006206  1  1.556795  0  0.213933  0.59536  0  4.151696  0
C  C44  1  0.60338014  0.90576314  0.39049941  1  -0.019737  0  -0.002703  -0.0033  0  3.977691  0
C  C45  1  0.50480163  0.04247150  0.48167357  1  0.038985  0  0.005397  0.045547  0  3.951934  0
C  C46  1  0.48587239  0.95056771  0.50703250  1  0.00824  0  0.005793  0.043922  0  3.954727  0
C  C47  1  0.29001196  0.49826670  0.49894694  1  1.716753  0  0.215875  0.655032  0  4.26172  0
C  C48  1  0.73192843  0.50836397  0.50176777  1  1.685525  0  0.213538  0.64865  0  4.271115  0
C  C49  1  0.41826335  0.92906227  0.57808958  1  0.020488  0  -0.078487  -0.115316  0  3.984773  0
C  C50  1  0.57049974  0.06336215  0.40959874  1  -0.101284  0  -0.079516  -0.115253  0  3.987769  0
C  C51  1  0.37303018  0.99532663  0.62290194  1  -0.073345  0  -0.085846  -0.11498  0  4.012066  0
C  C52  1  0.61733739  0.99773296  0.36558435  1  0.02003  0  -0.087575  -0.118905  0  4.016911  0
C  C53  1  0.16871686  0.49868391  0.49940305  1  0.166559  0  -0.022273  -0.149688  0  3.881101  0
C  C54  1  0.61333077  0.65973073  0.93803679  1  0.003063  0  -0.014569  -0.014994  0  3.987326  0
C  C55  1  0.85275704  0.50679927  0.50103428  1  0.166894  0  -0.021913  -0.147819  0  3.881686  0
C  C56  1  0.06675756  0.50108718  0.49984862  1  -0.290346  0  -0.029101  0.005996  0  4.28045  0
C  C57  1  0.95448321  0.50384952  0.50039001  1  -0.339551  0  -0.028659  0.005752  0  4.279733  0
C  C58  1  0.57696918  0.60086728  0.75836261  1  0.095336  0  -0.020092  0.00224  0  4.011873  0
C  C59  1  0.51701945  0.40124127  0.24780324  1  -0.032019  0  -0.021365  0.000933  0  4.010127  0
C  C60  1  0.63891347  0.72943532  0.88111556  1  0.462612  0  0.079791  0.204457  0  4.058344  0
C  C61  1  0.53677921  0.28212992  0.13108139  1  0.460307  0  0.082226  0.208572  0  4.055589  0
C  C62  1  0.62153925  0.70039083  0.79263117  1  -0.126637  0  -0.113209  -0.255481  0  4.02039  0
C  C63  1  0.52057278  0.30687312  0.21678774  1  0.039098  0  -0.116317  -0.261427  0  4.026937  0
C  C64  1  0.55982255  0.53182806  0.81194992  1  -0.014144  0  -0.095744  -0.16688  0  3.971557  0
C  C65  1  0.54689047  0.35038645  0.07307221  1  -0.031307  0  -0.015353  -0.017661  0  3.987754  0
C  C66  1  0.53376727  0.47020601  0.19422006  1  -0.026908  0  -0.096307  -0.16689  0  3.971574  0
C  C67  1  0.58035044  0.55928950  0.90223767  1  -0.003905  0  -0.00288  0.049347  0  3.975528  0
C  C68  1  0.55018334  0.44712175  0.10659366  1  -0.018126  0  -0.003676  0.04853  0  3.975215  0
C  C69  1  0.74615833  0.89250292  0.86946393  1  0.431765  0  -0.063748  0.092209  0  3.926159  0
C  C70  1  0.79475201  0.98977218  0.92746311  1  -0.045713  0  -0.243524  -0.399127  0  3.987028  0
C  C71  1  0.54559150  0.12543353  0.15283340  1  0.42574  0  -0.065543  0.08685  0  3.931843  0
C  C72  1  0.57374067  0.04004180  0.10249035  1  -0.071177  0  -0.242686  -0.396472  0  3.980897  0
C  C73  1  0.56787693  0.48877505  0.95973563  1  0.023348  0  -0.004199  0.035151  0  3.956625  0
C  C74  1  0.56941519  0.51845663  0.04959726  1  0.031426  0  -0.005432  0.036305  0  3.951824  0
C  C75  1  0.59448952  0.61912363  0.08203072  1  -0.118984  0  -0.096559  -0.134032  0  4.024026  0
C  C76  1  0.55914692  0.39037070  0.92851188  1  -0.057553  0  -0.095391  -0.135573  0  4.020104  0
C  C77  1  0.62003652  0.68754045  0.02895148  1  -0.034897  0  -0.098281  -0.124503  0  4.041093  0
N  N78  1  0.43637581  0.27164654  0.55312248  1  -1.264241  0  -0.324914  -0.167701  0  3.624232  0
N  N79  1  0.57195262  0.72760130  0.44465342  1  -1.24036  0  -0.326044  -0.172644  0  3.622533  0
N  N80  1  0.28687326  0.14396857  0.71821490  1  -1.24062  0  -0.586292  -0.60717  0  3.330529  0
N  N81  1  0.71548946  0.85348667  0.27632522  1  -1.209615  0  -0.585883  -0.605186  0  3.326702  0
O  O82  1  0.58496268  0.63166621  0.61436739  1  -1.165136  0  -0.319249  -0.539394  0  2.297594  0
O  O83  1  0.54449103  0.19333693  0.09563479  1  -1.071679  0  -0.185021  -0.207308  0  2.533939  0
O  O84  1  0.49146528  0.36541728  0.38938318  1  -1.160902  0  -0.319  -0.542639  0  2.306685  0
O  O85  1  0.48621446  0.48102464  0.63817878  1  -1.178096  0  -0.320199  -0.555889  0  2.358522  0
O  O86  1  0.49184760  0.51359543  0.36345751  1  -1.170702  0  -0.32096  -0.555646  0  2.342344  0
O  O87  1  0.36711429  0.58068332  0.50399779  1  -1.148867  0  -0.310818  -0.541687  0  2.271886  0
O  O88  1  0.66162857  0.44109979  0.53340340  1  -1.158147  0  -0.310804  -0.537802  0  2.24905  0
O  O89  1  0.30771788  0.41620788  0.49376460  1  -1.135799  0  -0.31301  -0.5344  0  2.244282  0
O  O90  1  0.70785232  0.57671427  0.47040761  1  -1.144568  0  -0.314583  -0.538584  0  2.246789  0
O  O91  1  0.68078397  0.82449548  0.92020191  1  -1.073668  0  -0.190663  -0.216613  0  2.526791  0
