# generated using pymatgen
data_CuH14C16(NO2)2
_symmetry_space_group_name_H-M   'P 1'
_cell_length_a   10.12776159
_cell_length_b   10.82045359
_cell_length_c   11.04800628
_cell_angle_alpha   86.20554753
_cell_angle_beta   81.39365936
_cell_angle_gamma   62.37398487
_symmetry_Int_Tables_number   1
_chemical_formula_structural   CuH14C16(NO2)2
_chemical_formula_sum   'Cu2 H28 C32 N4 O8'
_cell_volume   1060.60167693
_cell_formula_units_Z   2
loop_
 _symmetry_equiv_pos_site_id
 _symmetry_equiv_pos_as_xyz
  1  'x, y, z'
loop_
 _atom_site_type_symbol
 _atom_site_label
 _atom_site_symmetry_multiplicity
 _atom_site_fract_x
 _atom_site_fract_y
 _atom_site_fract_z
 _atom_site_occupancy
 _atom_site_hle17_ddec_charge
 _atom_site_hle17_ddec_spin_density
 _atom_site_hle17_ddec_sum_bond_order
 _atom_site_hle17_magmom
 _atom_site_hse06_10hf_ddec_charge
 _atom_site_hse06_10hf_ddec_spin_density
 _atom_site_hse06_10hf_ddec_sum_bond_order
 _atom_site_hse06_10hf_magmom
 _atom_site_hse06_ddec_charge
 _atom_site_hse06_ddec_spin_density
 _atom_site_hse06_ddec_sum_bond_order
 _atom_site_hse06_magmom
 _atom_site_pbe_cm5_charge
 _atom_site_pbe_ddec_charge
 _atom_site_pbe_ddec_spin_density
 _atom_site_pbe_ddec_sum_bond_order
 _atom_site_pbe_magmom
Cu  Cu0  1  0.44460446  0.41957880  0.12317429  1  0.86191  0.745337  1.793363  0.508  0.835389  0.812321  2.180556  0.618  0.925299  0.888339  2.111711  0.7  0.741804  0.780475  0.757692  2.227932  0.564
Cu  Cu1  1  0.55539436  0.58042133  0.87682634  1  0.861966  -0.745343  1.793291  -0.508  0.835381  -0.812301  2.180491  -0.618  0.925338  -0.88833  2.111556  -0.7  0.741815  0.780518  -0.75769  2.227848  -0.564
H  H2  1  0.72841282  0.37880486  0.18781030  1  0.082912  0.001052  0.947035  0.002  0.091903  0.000871  1.010066  0.001  0.09347  0.000635  1.008308  0.001  0.11841  0.090588  0.001035  1.011442  0.002
H  H3  1  0.27158651  0.62119421  0.81218943  1  0.082902  -0.001053  0.947019  -0.002  0.091897  -0.000871  1.010062  -0.001  0.093465  -0.000635  1.008305  -0.001  0.118394  0.090579  -0.001035  1.011438  -0.002
H  H4  1  0.81864522  0.47332109  0.34105160  1  0.112487  0.000532  0.922706  0.0  0.128328  0.000585  0.966957  0.0  0.130835  0.000408  0.967535  0.0  0.118386  0.126555  0.000652  0.966604  0.001
H  H5  1  0.18135308  0.52668007  0.65894812  1  0.112505  -0.000531  0.922713  0.0  0.128348  -0.000585  0.966954  0.0  0.130855  -0.000408  0.967533  0.0  0.118401  0.126577  -0.000652  0.966599  -0.001
H  H6  1  0.62734103  0.65929787  0.48732625  1  0.105982  0.000349  0.971807  0.001  0.116809  4.3e-05  1.031305  0.0  0.119143  7e-06  1.029821  0.0  0.108175  0.115077  8.4e-05  1.032414  0.0
H  H7  1  0.37265627  0.34070329  0.51267271  1  0.105981  -0.00035  0.971771  -0.001  0.116831  -4.3e-05  1.031259  0.0  0.119149  -8e-06  1.029795  0.0  0.108192  0.115128  -8.4e-05  1.032338  0.0
H  H8  1  0.35287617  0.74960949  0.46850552  1  0.100966  0.000558  0.939815  0.0  0.114078  0.000601  0.991267  0.001  0.116337  0.000426  0.992265  0.0  0.108778  0.112292  0.000723  0.990941  0.001
H  H9  1  0.64712268  0.25038855  0.53149435  1  0.100965  -0.000557  0.939786  0.0  0.114075  -0.000601  0.991238  -0.001  0.116333  -0.000426  0.992237  0.0  0.108765  0.112288  -0.000723  0.990912  -0.001
H  H10  1  0.28238937  0.64302218  0.30835567  1  0.096692  0.001098  0.939179  0.002  0.104738  0.000937  0.999851  0.001  0.106753  0.000677  0.997583  0.001  0.122397  0.103021  0.001138  1.001697  0.001
H  H11  1  0.71761048  0.35697585  0.69164406  1  0.096712  -0.0011  0.939195  -0.002  0.104768  -0.000938  0.999851  -0.001  0.106784  -0.000677  0.997582  -0.001  0.122398  0.103052  -0.001138  1.001695  -0.001
H  H12  1  0.58745758  0.19757742  0.93821505  1  0.082484  0.001162  0.951152  0.002  0.090977  0.000953  1.015311  0.001  0.09222  0.000691  1.014304  0.001  0.117753  0.089984  0.001111  1.016052  0.002
H  H13  1  0.41254375  0.80242166  0.06178530  1  0.082482  -0.001161  0.951182  -0.002  0.090979  -0.000953  1.015324  -0.001  0.092218  -0.000691  1.014318  -0.001  0.117759  0.089984  -0.001111  1.016067  -0.002
H  H14  1  0.50393476  0.07522221  0.80463744  1  0.105114  0.000461  0.9458  0.0  0.116922  0.000523  0.999438  0.0  0.119103  0.000369  1.000533  0.0  0.108452  0.11513  0.000611  0.999191  0.001
H  H15  1  0.49606255  0.92477897  0.19536423  1  0.105082  -0.000463  0.94579  0.0  0.116882  -0.000523  0.999443  0.0  0.119063  -0.000369  1.000539  0.0  0.108437  0.11509  -0.000611  0.999196  -0.001
H  H16  1  0.22679882  0.14702816  0.82121327  1  0.091745  0.000319  0.944674  0.001  0.103837  -6e-06  1.003749  0.0  0.106424  -2.6e-05  1.00097  0.0  0.109127  0.101791  2.2e-05  1.006183  0.0
H  H17  1  0.77319946  0.85297510  0.17878811  1  0.091732  -0.000317  0.944646  -0.001  0.103823  7e-06  1.003729  0.0  0.10641  2.6e-05  1.000951  0.0  0.109125  0.101775  -2.2e-05  1.006164  0.0
H  H18  1  0.04846843  0.33170350  0.97021401  1  0.109392  0.000526  0.971254  0.001  0.118344  0.00051  1.030826  0.001  0.120124  0.000363  1.032261  0.0  0.106678  0.116948  0.000595  1.030084  0.001
H  H19  1  0.95153085  0.66829976  0.02978813  1  0.109342  -0.000527  0.971315  -0.001  0.11834  -0.00051  1.030834  -0.001  0.12012  -0.000364  1.032269  0.0  0.106673  0.116942  -0.000595  1.03009  -0.001
H  H20  1  0.15238204  0.44502300  0.09839700  1  0.093685  0.0012  0.942902  0.002  0.099396  0.001031  1.0092  0.001  0.101718  0.00074  1.006377  0.001  0.121294  0.097517  0.001221  1.011267  0.001
H  H21  1  0.84762078  0.55497714  0.90160486  1  0.093702  -0.001199  0.94291  -0.002  0.099417  -0.001031  1.009201  -0.001  0.101739  -0.000741  1.006377  -0.001  0.121286  0.097537  -0.001221  1.011272  -0.001
H  H22  1  0.66500189  0.02450011  0.33975648  1  0.108925  -0.000457  0.941201  -0.001  0.119202  4.6e-05  0.998421  0.0  0.123246  2.1e-05  0.996217  0.0  0.102364  0.116281  8e-05  1.000247  0.0
H  H23  1  0.33499844  0.97549896  0.66024220  1  0.108949  0.000457  0.941203  0.001  0.119196  -4.6e-05  0.998451  0.0  0.12324  -2.1e-05  0.996249  0.0  0.102368  0.116276  -8e-05  1.000278  0.0
H  H24  1  0.34679629  0.13094190  0.48293781  1  0.097995  0.000166  0.928162  0.0  0.11055  -3.3e-05  0.982623  0.0  0.113933  -2.1e-05  0.980035  0.0  0.108102  0.10807  -4.7e-05  0.984578  0.0
H  H25  1  0.65320404  0.86905718  0.51706268  1  0.098001  -0.000167  0.928217  0.0  0.110554  3.3e-05  0.982675  0.0  0.113936  2.1e-05  0.980088  0.0  0.108109  0.108074  4.7e-05  0.984628  0.0
H  H26  1  0.23215246  0.82533942  0.91844393  1  0.127528  -0.000378  0.987938  -0.001  0.13295  -8.3e-05  1.055973  0.0  0.138967  -2.8e-05  1.051826  0.0  0.099827  0.128611  -0.000121  1.059015  0.0
H  H27  1  0.76784832  0.17466278  0.08155536  1  0.127558  0.000378  0.987935  0.001  0.132978  8.3e-05  1.055971  0.0  0.138998  2.7e-05  1.05182  0.0  0.099835  0.128642  0.000121  1.05901  0.0
H  H28  1  0.95391857  0.92999752  0.11595851  1  0.090303  0.00012  0.94029  0.0  0.102335  3e-06  0.997822  0.0  0.105679  4e-06  0.995006  0.0  0.103521  0.099824  1.5e-05  1.000094  0.0
H  H29  1  0.04608424  0.07000260  0.88404064  1  0.090278  -0.00012  0.94031  0.0  0.102307  -3e-06  0.997846  0.0  0.105651  -4e-06  0.995029  0.0  0.103494  0.099797  -1.5e-05  1.000118  0.0
C  C30  1  0.65015197  0.46124172  0.25188143  1  0.126125  -0.008401  3.696592  -0.009  0.095848  -0.001336  3.951777  -0.002  0.105334  -0.002321  3.97095  -0.003  0.046412  0.089738  -0.000578  3.939199  -0.001
C  C31  1  0.34984684  0.53875839  0.74811739  1  0.126109  0.008416  3.696663  0.009  0.095805  0.001336  3.951892  0.002  0.105286  0.002327  3.971074  0.003  0.046388  0.089699  0.000578  3.939312  0.001
C  C32  1  0.69869540  0.51421583  0.33724558  1  -0.123667  0.010169  3.744157  0.01  -0.13264  0.003545  3.988446  0.004  -0.140823  0.003367  4.010287  0.004  -0.079605  -0.127205  0.003679  3.973578  0.004
C  C33  1  0.30130393  0.48578324  0.66275325  1  -0.123689  -0.01019  3.744308  -0.01  -0.132648  -0.003545  3.98861  -0.004  -0.14083  -0.003371  4.010449  -0.004  -0.079607  -0.127214  -0.003679  3.973748  -0.004
C  C34  1  0.59188917  0.61892742  0.41737637  1  -0.004766  -0.009882  3.713251  -0.009  -0.02375  -0.002866  3.958055  -0.003  -0.019485  -0.00313  3.977644  -0.003  -0.064481  -0.026357  -0.002651  3.944776  -0.002
C  C35  1  0.40810915  0.38107164  0.58262169  1  -0.004757  0.009907  3.713121  0.009  -0.023761  0.002866  3.95793  0.003  -0.019483  0.003134  3.977524  0.003  -0.064495  -0.026391  0.002652  3.944639  0.002
C  C36  1  0.43991288  0.66787881  0.40777228  1  -0.123227  0.010381  3.74997  0.01  -0.133296  0.003755  3.996948  0.004  -0.141572  0.003575  4.020343  0.004  -0.082904  -0.127947  0.003848  3.981442  0.004
C  C37  1  0.56008546  0.33212025  0.59222668  1  -0.123187  -0.010403  3.749741  -0.01  -0.133253  -0.003757  3.996727  -0.004  -0.141526  -0.003578  4.020116  -0.004  -0.082858  -0.127906  -0.003848  3.981234  -0.004
C  C38  1  0.39924762  0.61008592  0.31994144  1  0.119643  -0.007692  3.678108  -0.008  0.091654  -0.000763  3.930147  -0.002  0.09999  -0.001799  3.950164  -0.003  0.050518  0.086352  2.4e-05  3.917055  -0.001
C  C39  1  0.60075223  0.38991211  0.68005739  1  0.11956  0.007714  3.678057  0.008  0.091575  0.000765  3.930097  0.002  0.099911  0.001805  3.950116  0.003  0.050473  0.086276  -2.5e-05  3.917008  0.001
C  C40  1  0.46935133  0.22388403  0.94151695  1  0.130131  -0.008793  3.682618  -0.009  0.100351  -0.001312  3.935128  -0.002  0.109824  -0.002353  3.953875  -0.003  0.047947  0.09424  -0.000495  3.922717  -0.001
C  C41  1  0.53064849  0.77611610  0.05848444  1  0.130157  0.008779  3.682566  0.009  0.100404  0.001316  3.935058  0.002  0.10988  0.002353  3.953804  0.003  0.047965  0.094294  0.000495  3.922649  0.001
C  C42  1  0.42195817  0.15648225  0.86827623  1  -0.123634  0.010759  3.75019  0.011  -0.132813  0.00375  3.994905  0.004  -0.140558  0.003564  4.017212  0.004  -0.082181  -0.127774  0.003905  3.980311  0.004
C  C43  1  0.57804113  0.84351892  0.13172515  1  -0.123616  -0.010744  3.75022  -0.011  -0.132797  -0.003753  3.994936  -0.004  -0.140542  -0.003561  4.017241  -0.004  -0.082194  -0.127757  -0.003905  3.980339  -0.004
C  C44  1  0.26874770  0.19598460  0.87794811  1  0.000107  -0.010505  3.726097  -0.01  -0.018847  -0.003071  3.970526  -0.003  -0.014775  -0.003335  3.989536  -0.003  -0.062575  -0.021647  -0.002838  3.958215  -0.003
C  C45  1  0.73124957  0.80401866  0.12205342  1  0.000126  0.010488  3.726016  0.01  -0.018827  0.003073  3.970466  0.003  -0.014757  0.003332  3.989476  0.003  -0.062567  -0.021628  0.002838  3.958154  0.003
C  C46  1  0.16836052  0.29994124  0.96144039  1  -0.121302  0.010687  3.73529  0.011  -0.128784  0.003732  3.974  0.004  -0.13707  0.003611  3.997962  0.004  -0.082278  -0.123465  0.003871  3.958155  0.004
C  C47  1  0.83164079  0.70005994  0.03856162  1  -0.121294  -0.010669  3.735117  -0.011  -0.128814  -0.003734  3.973838  -0.004  -0.1371  -0.003607  3.997799  -0.004  -0.082317  -0.123495  -0.003871  3.957991  -0.004
C  C48  1  0.22400336  0.36292556  0.03144494  1  0.1181  -0.008313  3.682331  -0.009  0.090019  -0.00101  3.932244  -0.002  0.098002  -0.002071  3.952191  -0.003  0.048116  0.085024  -0.000206  3.919052  -0.001
C  C49  1  0.77599946  0.63707457  0.96855602  1  0.118083  0.008297  3.68219  0.009  0.090006  0.001012  3.932115  0.002  0.097989  0.002071  3.952064  0.003  0.04813  0.085013  0.000206  3.918929  0.001
C  C50  1  0.47131288  0.22022151  0.29233237  1  0.644211  -0.005144  3.96006  -0.009  0.607214  -0.000815  4.261552  -0.004  0.64428  -0.001254  4.255035  -0.004  0.17919  0.582269  -0.000414  4.2653  -0.004
C  C51  1  0.52868793  0.77977860  0.70766526  1  0.644205  0.005143  3.960048  0.009  0.607204  0.000821  4.261538  0.004  0.644266  0.001256  4.25503  0.004  0.179163  0.582263  0.000414  4.265286  0.004
C  C52  1  0.54475933  0.09153268  0.36527367  1  -0.219739  0.020373  3.657652  0.019  -0.232479  0.007417  3.909958  0.008  -0.241833  0.006129  3.925254  0.006  -0.094694  -0.226485  0.008505  3.899978  0.009
C  C53  1  0.45523646  0.90846953  0.63472724  1  -0.219761  -0.02037  3.657591  -0.019  -0.232475  -0.007412  3.909899  -0.008  -0.241831  -0.006132  3.925197  -0.007  -0.094704  -0.226483  -0.008504  3.899921  -0.009
C  C54  1  0.46705008  0.06001230  0.46192693  1  -0.02332  -0.009152  3.80016  -0.008  -0.042872  -0.001317  4.054622  -0.001  -0.041675  -0.0017  4.07504  -0.002  -0.079476  -0.043503  -0.00116  4.040759  -0.001
C  C55  1  0.53295074  0.93998782  0.53807341  1  -0.023301  0.009151  3.800118  0.008  -0.042846  0.001315  4.054566  0.001  -0.041649  0.001705  4.074984  0.002  -0.079453  -0.043471  0.00116  4.040701  0.001
C  C56  1  0.20885221  0.69023546  0.07095270  1  0.65154  -0.002526  3.944709  -0.006  0.616033  0.000498  4.243452  -0.001  0.653802  2e-05  4.234136  -0.001  0.186631  0.591087  0.000875  4.247873  -0.002
C  C57  1  0.79115163  0.30976256  0.92904465  1  0.651558  0.002526  3.944761  0.006  0.616058  -0.000489  4.243492  0.002  0.653821  -2.2e-05  4.234173  0.001  0.186618  0.591115  -0.000876  4.247915  0.002
C  C58  1  0.15721374  0.82182996  0.99928003  1  -0.246222  0.015591  3.659998  0.015  -0.25996  0.00578  3.910238  0.006  -0.271223  0.004867  3.925202  0.005  -0.104908  -0.252054  0.00655  3.898996  0.007
C  C59  1  0.84278608  0.17817015  0.00071955  1  -0.246322  -0.015596  3.659891  -0.015  -0.26006  -0.00578  3.910138  -0.006  -0.271326  -0.004861  3.925098  -0.005  -0.104942  -0.252162  -0.00655  3.898899  -0.007
C  C60  1  0.02538585  0.93547219  0.03333600  1  -0.012602  -0.006675  3.791063  -0.006  -0.028241  -0.000729  4.036194  0.0  -0.02624  -0.001094  4.056172  -0.001  -0.080079  -0.029095  -0.000519  4.021747  0.0
C  C61  1  0.97461799  0.06452583  0.96666226  1  -0.01253  0.00668  3.790885  0.006  -0.028165  0.000729  4.036006  0.0  -0.026161  0.001096  4.05598  0.001  -0.08002  -0.029012  0.000519  4.021556  0.0
N  N62  1  0.50329902  0.50834980  0.24372557  1  -0.288139  0.078626  3.344192  0.094  -0.237322  0.053099  3.635733  0.069  -0.267576  0.044895  3.65882  0.061  -0.347239  -0.219384  0.057322  3.62217  0.072
N  N63  1  0.49670082  0.49164821  0.75627144  1  -0.288099  -0.078643  3.344172  -0.094  -0.237278  -0.053106  3.635732  -0.069  -0.267542  -0.044905  3.65882  -0.061  -0.347208  -0.219362  -0.057324  3.622193  -0.072
N  N64  1  0.37183340  0.32590901  0.02018301  1  -0.283511  0.081176  3.347535  0.097  -0.232159  0.054578  3.636684  0.071  -0.262085  0.046073  3.659279  0.063  -0.347239  -0.214286  0.05935  3.623173  0.074
N  N65  1  0.62816943  0.67409113  0.97981885  1  -0.283527  -0.081162  3.347423  -0.097  -0.23219  -0.054584  3.636578  -0.071  -0.262125  -0.046077  3.659165  -0.063  -0.34722  -0.214333  -0.059351  3.62309  -0.074
O  O66  1  0.56072075  0.23526013  0.20116369  1  -0.611685  0.118073  2.030558  0.148  -0.588613  0.074033  2.306387  0.103  -0.634272  0.057752  2.301364  0.085  -0.335033  -0.558305  0.084272  2.309835  0.113
O  O67  1  0.43928007  0.76473998  0.79883575  1  -0.611709  -0.118071  2.030533  -0.148  -0.588636  -0.074037  2.306345  -0.103  -0.634295  -0.057759  2.301315  -0.085  -0.33504  -0.558333  -0.084273  2.309799  -0.113
O  O68  1  0.33604111  0.30601499  0.32031899  1  -0.612703  0.000153  1.861525  0.002  -0.585343  -0.000426  2.072516  0.0  -0.609712  -0.001174  2.062349  -0.001  -0.33792  -0.568839  0.000275  2.07921  0.001
O  O69  1  0.66395871  0.69398513  0.67968059  1  -0.612706  -0.000152  1.861536  -0.002  -0.585333  0.000417  2.072526  0.0  -0.609705  0.001175  2.062364  0.001  -0.337913  -0.56883  -0.000274  2.079217  -0.001
O  O70  1  0.34785559  0.59901251  0.03379783  1  -0.651553  0.09093  2.132246  0.114  -0.631873  0.058352  2.447362  0.081  -0.676574  0.046187  2.436538  0.067  -0.340221  -0.601195  0.066639  2.453807  0.09
O  O71  1  0.65214626  0.40098552  0.96620071  1  -0.651586  -0.090929  2.132152  -0.114  -0.631876  -0.058357  2.447246  -0.081  -0.6766  -0.046198  2.436461  -0.067  -0.340237  -0.601204  -0.066639  2.453704  -0.09
O  O72  1  0.12571708  0.67141235  0.15787254  1  -0.611889  -0.000325  1.868704  0.0  -0.577874  -0.000576  2.08212  -0.001  -0.598994  -0.000978  2.07023  -0.001  -0.333032  -0.56333  -0.00024  2.089731  0.0
O  O73  1  0.87428225  0.32858671  0.84212629  1  -0.611891  0.000326  1.868803  0.0  -0.577883  0.000568  2.082209  0.0  -0.598997  0.000982  2.07032  0.001  -0.333025  -0.563338  0.00024  2.089821  0.0
