# generated using pymatgen
data_H8Pb(C5O3)2
_symmetry_space_group_name_H-M   'P 1'
_cell_length_a   7.17045894
_cell_length_b   7.17025472
_cell_length_c   10.02671347
_cell_angle_alpha   81.40258801
_cell_angle_beta   81.39909454
_cell_angle_gamma   86.93794797
_symmetry_Int_Tables_number   1
_chemical_formula_structural   H8Pb(C5O3)2
_chemical_formula_sum   'H16 Pb2 C20 O12'
_cell_volume   503.73411766
_cell_formula_units_Z   2
loop_
 _symmetry_equiv_pos_site_id
 _symmetry_equiv_pos_as_xyz
  1  'x, y, z'
loop_
 _atom_site_type_symbol
 _atom_site_label
 _atom_site_symmetry_multiplicity
 _atom_site_fract_x
 _atom_site_fract_y
 _atom_site_fract_z
 _atom_site_occupancy
 _atom_site_hle17_bader_spin_density
 _atom_site_hle17_ddec_charge
 _atom_site_hle17_ddec_spin_density
 _atom_site_hle17_ddec_sum_bond_order
 _atom_site_hle17_magmom
 _atom_site_hse06_10hf_bader_spin_density
 _atom_site_hse06_10hf_ddec_charge
 _atom_site_hse06_10hf_ddec_spin_density
 _atom_site_hse06_10hf_ddec_sum_bond_order
 _atom_site_hse06_10hf_magmom
 _atom_site_hse06_bader_spin_density
 _atom_site_hse06_ddec_charge
 _atom_site_hse06_ddec_spin_density
 _atom_site_hse06_ddec_sum_bond_order
 _atom_site_hse06_magmom
 _atom_site_pbe_bader_spin_density
 _atom_site_pbe_cm5_charge
 _atom_site_pbe_ddec_charge
 _atom_site_pbe_ddec_spin_density
 _atom_site_pbe_ddec_sum_bond_order
 _atom_site_pbe_magmom
H  H0  1  0.45557603  0.18268023  0.03658126  1  0  0.386519  0  0.90009  0  0  0.356341  0  0.97919  0  0  0.368557  0  0.965571  0  0  0.295646  0.347202  0  0.989285  0
H  H1  1  0.81732180  0.54447048  0.46334990  1  0  0.387001  0  0.899853  0  0  0.356646  0  0.979215  0  0  0.368871  0  0.965579  0  0  0.295707  0.347498  0  0.989321  0
H  H2  1  0.54449819  0.81728269  0.96343366  1  0  0.386827  0  0.899756  0  0  0.35657  0  0.978983  0  0  0.368788  0  0.965351  0  0  0.295664  0.347432  0  0.989077  0
H  H3  1  0.18275394  0.45550848  0.53661037  1  0  0.386869  0  0.899871  0  0  0.356615  0  0.979116  0  0  0.368839  0  0.965474  0  0  0.295763  0.347469  0  0.989228  0
H  H4  1  0.25191360  0.40794152  0.94489304  1  0  0.075031  0  0.924004  0  0  0.081563  0  0.989479  0  0  0.08476  0  0.985782  0  0  0.111742  0.079195  0  0.992308  0
H  H5  1  0.59207599  0.74810763  0.55509801  1  0  0.075027  0  0.924151  0  0  0.081536  0  0.989595  0  0  0.084725  0  0.98591  0  0  0.111763  0.079172  0  0.992425  0
H  H6  1  0.74812835  0.59207104  0.05511214  1  0  0.075163  0  0.923865  0  0  0.081694  0  0.989276  0  0  0.084879  0  0.985589  0  0  0.111822  0.079325  0  0.992111  0
H  H7  1  0.40792089  0.25185451  0.44490293  1  0  0.07518  0  0.923879  0  0  0.081648  0  0.98929  0  0  0.084834  0  0.985597  0  0  0.111768  0.079281  0  0.992121  0
H  H8  1  0.95990224  0.31908648  0.07152001  1  0  0.104527  0  0.946493  0  0  0.113312  0  1.010674  0  0  0.116735  0  1.008594  0  0  0.10393  0.110594  0  1.012615  0
H  H9  1  0.68090956  0.04009694  0.42847425  1  0  0.104494  0  0.94647  0  0  0.113286  0  1.010637  0  0  0.116707  0  1.008548  0  0  0.103945  0.110568  0  1.012575  0
H  H10  1  0.04012207  0.68094864  0.92849564  1  0  0.104482  0  0.946643  0  0  0.11347  0  1.010594  0  0  0.116906  0  1.008503  0  0  0.103982  0.110743  0  1.012551  0
H  H11  1  0.31901522  0.95987844  0.57151572  1  0  0.104539  0  0.946614  0  0  0.113447  0  1.010685  0  0  0.116876  0  1.008596  0  0  0.103989  0.110719  0  1.012643  0
H  H12  1  0.28735130  0.91990829  0.84449554  1  0  0.117059  0  0.958105  0  0  0.128727  0  1.013923  0  0  0.132133  0  1.012486  0  0  0.106362  0.126072  0  1.015412  0
H  H13  1  0.08004987  0.71265560  0.65550659  1  0  0.11702  0  0.958217  0  0  0.128714  0  1.013967  0  0  0.132119  0  1.01253  0  0  0.106355  0.126057  0  1.015456  0
H  H14  1  0.71265594  0.08013981  0.15550058  1  0  0.117096  0  0.958445  0  0  0.128786  0  1.014196  0  0  0.132192  0  1.012755  0  0  0.106409  0.126134  0  1.015679  0
H  H15  1  0.91988124  0.28733931  0.34449970  1  0  0.117091  0  0.958316  0  0  0.128756  0  1.014097  0  0  0.132163  0  1.01266  0  0  0.106373  0.126105  0  1.01558  0
Pb  Pb16  1  0.75196120  0.24806558  0.74992961  1  0  1.324353  0  1.439634  0  0  1.143528  0  1.839638  0  0  1.191415  0  1.807285  0  0  0.658386  1.110457  0  1.860327  0
Pb  Pb17  1  0.24802734  0.75195614  0.25003819  1  0  1.324577  0  1.439491  0  0  1.1437  0  1.839442  0  0  1.191623  0  1.807086  0  0  0.658452  1.110606  0  1.86013  0
C  C18  1  0.28993236  0.27804052  0.89892777  1  0  0.070225  0  3.678016  0  0  0.040015  0  3.926949  0  0  0.042731  0  3.932542  0  0  -0.000814  0.037785  0  3.923491  0
C  C19  1  0.72195719  0.71007954  0.60106452  1  0  0.070189  0  3.678357  0  0  0.040016  0  3.926975  0  0  0.042735  0  3.932585  0  0  -0.000953  0.037782  0  3.923516  0
C  C20  1  0.71013560  0.72200297  0.10106862  1  0  0.069717  0  3.678694  0  0  0.039658  0  3.927523  0  0  0.042386  0  3.933116  0  0  -0.000878  0.037444  0  3.924065  0
C  C21  1  0.27799993  0.28988977  0.39894872  1  0  0.069887  0  3.678491  0  0  0.040164  0  3.926867  0  0  0.042908  0  3.932471  0  0  -0.000708  0.037935  0  3.923409  0
C  C22  1  0.30163183  0.33118731  0.74413549  1  0  0.647627  0  3.830743  0  0  0.595246  0  4.132626  0  0  0.628168  0  4.126228  0  0  0.220161  0.573063  0  4.136004  0
C  C23  1  0.66881847  0.69836399  0.75586750  1  0  0.647531  0  3.830822  0  0  0.595225  0  4.132545  0  0  0.628134  0  4.126152  0  0  0.220162  0.573045  0  4.135918  0
C  C24  1  0.69846078  0.66883935  0.25583816  1  0  0.648317  0  3.83056  0  0  0.595874  0  4.132456  0  0  0.628806  0  4.12604  0  0  0.220312  0.573681  0  4.135847  0
C  C25  1  0.33112793  0.30157987  0.24416038  1  0  0.647512  0  3.831215  0  0  0.594958  0  4.133219  0  0  0.62787  0  4.12683  0  0  0.219838  0.57278  0  4.136592  0
C  C26  1  0.13806314  0.13545731  0.95103939  1  0  0.0251  0  3.793804  0  0  0.042544  0  4.027605  0  0  0.041701  0  4.052631  0  0  -0.015217  0.042607  0  4.010755  0
C  C27  1  0.86455035  0.86195967  0.54897292  1  0  0.025  0  3.7937  0  0  0.04253  0  4.027399  0  0  0.041677  0  4.052437  0  0  -0.015131  0.042596  0  4.010544  0
C  C28  1  0.86196949  0.86459500  0.04894274  1  0  0.025319  0  3.793117  0  0  0.042603  0  4.027151  0  0  0.041754  0  4.052184  0  0  -0.015201  0.04266  0  4.010303  0
C  C29  1  0.13539039  0.13803060  0.45106877  1  0  0.02524  0  3.793201  0  0  0.042338  0  4.027282  0  0  0.041479  0  4.052325  0  0  -0.015225  0.042403  0  4.010426  0
C  C30  1  0.97651554  0.17962795  0.03916883  1  0  -0.133885  0  3.787487  0  0  -0.151028  0  4.039199  0  0  -0.154211  0  4.061471  0  0  -0.089838  -0.148815  0  4.023906  0
C  C31  1  0.82036571  0.02348662  0.46080496  1  0  -0.133759  0  3.786874  0  0  -0.150941  0  4.038553  0  0  -0.154111  0  4.060814  0  0  -0.089859  -0.148735  0  4.023285  0
C  C32  1  0.02352032  0.82039868  0.96084251  1  0  -0.1339  0  3.787696  0  0  -0.151186  0  4.039424  0  0  -0.154389  0  4.061724  0  0  -0.089838  -0.148963  0  4.024121  0
C  C33  1  0.17958098  0.97647493  0.53914530  1  0  -0.133807  0  3.787892  0  0  -0.150995  0  4.039698  0  0  -0.15418  0  4.061976  0  0  -0.089807  -0.148776  0  4.024408  0
C  C34  1  0.16061710  0.95480223  0.91216088  1  0  -0.121948  0  3.749716  0  0  -0.140286  0  3.994718  0  0  -0.143463  0  4.017141  0  0  -0.092352  -0.137907  0  3.979276  0
C  C35  1  0.04516545  0.83940867  0.58786289  1  0  -0.121908  0  3.750152  0  0  -0.140296  0  3.99508  0  0  -0.143469  0  4.017503  0  0  -0.092299  -0.137917  0  3.97964  0
C  C36  1  0.83937521  0.04527699  0.08783359  1  0  -0.122122  0  3.749359  0  0  -0.140402  0  3.994319  0  0  -0.143573  0  4.01673  0  0  -0.092366  -0.138024  0  3.978885  0
C  C37  1  0.95472603  0.16063125  0.41217777  1  0  -0.122243  0  3.749474  0  0  -0.140469  0  3.994504  0  0  -0.143646  0  4.016925  0  0  -0.092383  -0.138092  0  3.979068  0
O  O38  1  0.46750156  0.20368695  0.93298868  1  0  -0.579647  0  2.175989  0  0  -0.512708  0  2.415563  0  0  -0.532077  0  2.404106  0  0  -0.374496  -0.498531  0  2.423355  0
O  O39  1  0.79627857  0.53251582  0.56695087  1  0  -0.580117  0  2.176158  0  0  -0.512919  0  2.415484  0  0  -0.532288  0  2.404011  0  0  -0.374446  -0.498749  0  2.423326  0
O  O40  1  0.53255151  0.79632684  0.06702821  1  0  -0.579977  0  2.176064  0  0  -0.512963  0  2.415503  0  0  -0.532322  0  2.404027  0  0  -0.374547  -0.498791  0  2.423298  0
O  O41  1  0.20369138  0.46746371  0.43301912  1  0  -0.580062  0  2.176514  0  0  -0.51307  0  2.41576  0  0  -0.532452  0  2.404298  0  0  -0.37466  -0.498861  0  2.423494  0
O  O42  1  0.15176021  0.39984960  0.70051790  1  0  -0.64169  0  2.025117  0  0  -0.587481  0  2.263627  0  0  -0.614794  0  2.257691  0  0  -0.303138  -0.568023  0  2.267081  0
O  O43  1  0.60018026  0.84821595  0.79951144  1  0  -0.641526  0  2.025509  0  0  -0.587318  0  2.263923  0  0  -0.61465  0  2.258045  0  0  -0.303083  -0.567861  0  2.267367  0
O  O44  1  0.84830139  0.60016856  0.29947873  1  0  -0.64178  0  2.025504  0  0  -0.58748  0  2.263984  0  0  -0.614804  0  2.258081  0  0  -0.303044  -0.56804  0  2.267483  0
O  O45  1  0.39979271  0.15173190  0.20052431  1  0  -0.641273  0  2.025111  0  0  -0.587179  0  2.26378  0  0  -0.614494  0  2.257884  0  0  -0.302957  -0.567744  0  2.267261  0
O  O46  1  0.45632204  0.30456524  0.66743255  1  0  -0.610992  0  2.000505  0  0  -0.537994  0  2.241102  0  0  -0.565913  0  2.23229  0  0  -0.291199  -0.518444  0  2.24608  0
O  O47  1  0.69539287  0.54364142  0.83254565  1  0  -0.61105  0  2.000213  0  0  -0.538108  0  2.240789  0  0  -0.566019  0  2.231977  0  0  -0.291282  -0.518582  0  2.245826  0
O  O48  1  0.54370790  0.69538864  0.33252696  1  0  -0.611603  0  1.999709  0  0  -0.538559  0  2.240299  0  0  -0.566528  0  2.231551  0  0  -0.291547  -0.51899  0  2.24525  0
O  O49  1  0.30454349  0.45630524  0.16749096  1  0  -0.611228  0  2.000501  0  0  -0.538129  0  2.241124  0  0  -0.566087  0  2.23238  0  0  -0.291263  -0.518566  0  2.24607  0
