# generated using pymatgen
data_NiH20C22(NO2)2
_symmetry_space_group_name_H-M   'P 1'
_cell_length_a   8.69725771
_cell_length_b   8.69727228
_cell_length_c   13.22640198
_cell_angle_alpha   75.85504617
_cell_angle_beta   75.85517749
_cell_angle_gamma   75.82521824
_symmetry_Int_Tables_number   1
_chemical_formula_structural   NiH20C22(NO2)2
_chemical_formula_sum   'Ni2 H40 C44 N4 O8'
_cell_volume   922.30931007
_cell_formula_units_Z   2
loop_
 _symmetry_equiv_pos_site_id
 _symmetry_equiv_pos_as_xyz
  1  'x, y, z'
loop_
 _atom_site_type_symbol
 _atom_site_label
 _atom_site_symmetry_multiplicity
 _atom_site_fract_x
 _atom_site_fract_y
 _atom_site_fract_z
 _atom_site_occupancy
 _atom_site_hle17_ddec_charge
 _atom_site_hle17_ddec_spin_density
 _atom_site_hle17_ddec_sum_bond_order
 _atom_site_hle17_magmom
 _atom_site_hse06_10hf_ddec_charge
 _atom_site_hse06_10hf_ddec_spin_density
 _atom_site_hse06_10hf_ddec_sum_bond_order
 _atom_site_hse06_10hf_magmom
 _atom_site_hse06_ddec_charge
 _atom_site_hse06_ddec_spin_density
 _atom_site_hse06_ddec_sum_bond_order
 _atom_site_hse06_magmom
 _atom_site_pbe_cm5_charge
 _atom_site_pbe_ddec_charge
 _atom_site_pbe_ddec_spin_density
 _atom_site_pbe_ddec_sum_bond_order
 _atom_site_pbe_magmom
Ni  Ni0  1  0.58408253  0.41591740  0.74999964  1  0.737443  -1.858353  2.05852  -1.444  0.741329  -1.854978  2.458057  -1.574  0.846791  -1.928438  2.372936  -1.679  0.643013  0.668894  -1.785821  2.517696  -1.484
Ni  Ni1  1  0.41591429  0.58408427  0.24999940  1  0.7374  1.858351  2.05863  1.444  0.741232  1.854972  2.458229  1.574  0.846704  1.928422  2.373045  1.679  0.643004  0.668807  1.785817  2.51787  1.484
H  H2  1  0.18912486  0.61579756  0.73453418  1  0.129072  9.1e-05  0.967464  0.0  0.148652  5.4e-05  1.025595  0.0  0.151482  6.9e-05  1.024585  0.0  0.094498  0.146231  4.4e-05  1.02692  0.0
H  H3  1  0.38420431  0.81087459  0.76546736  1  0.129052  9.1e-05  0.967466  0.0  0.148636  5.4e-05  1.025596  0.0  0.151467  6.9e-05  1.024583  0.0  0.094493  0.146215  4.4e-05  1.02692  0.0
H  H4  1  0.81087086  0.38420417  0.26546957  1  0.129059  -9e-05  0.967417  0.0  0.148627  -5.4e-05  1.02557  0.0  0.151456  -6.9e-05  1.02456  0.0  0.094499  0.146206  -4.4e-05  1.026893  0.0
H  H5  1  0.61580030  0.18912965  0.23453145  1  0.12906  -9e-05  0.967457  0.0  0.148647  -5.4e-05  1.025581  0.0  0.151478  -6.9e-05  1.02457  0.0  0.094499  0.146226  -4.4e-05  1.026905  0.0
H  H6  1  0.03639754  0.78432947  0.76408536  1  0.103666  -0.000427  0.945719  -0.001  0.125733  -0.000178  1.006263  0.0  0.12649  -0.000144  1.007234  0.0  0.088902  0.125794  -0.000207  1.00492  0.0
H  H7  1  0.21566700  0.96360277  0.73591666  1  0.103634  -0.000427  0.945644  -0.001  0.125701  -0.000178  1.006207  0.0  0.126451  -0.000144  1.007184  0.0  0.088894  0.12576  -0.000207  1.004863  0.0
H  H8  1  0.96359801  0.21566740  0.23591924  1  0.103651  0.000427  0.945629  0.001  0.125714  0.000178  1.006192  0.0  0.126465  0.000144  1.007169  0.0  0.08889  0.125772  0.000207  1.004848  0.0
H  H9  1  0.78433315  0.03640020  0.26408386  1  0.10364  0.000426  0.945715  0.001  0.125718  0.000178  1.006253  0.0  0.126475  0.000144  1.007224  0.0  0.088893  0.125777  0.000207  1.00491  0.0
H  H10  1  0.98451293  0.62274491  0.73119404  1  0.096213  -0.000328  0.968768  0.0  0.116357  -0.000144  1.035473  0.0  0.117306  -0.000112  1.035202  0.0  0.086447  0.115812  -0.000173  1.035756  0.0
H  H11  1  0.37725438  0.01548793  0.76880688  1  0.096198  -0.000329  0.96874  0.0  0.11634  -0.000145  1.035458  0.0  0.11729  -0.000112  1.035184  0.0  0.086446  0.115792  -0.000173  1.035742  0.0
H  H12  1  0.01548136  0.37725802  0.26881051  1  0.096162  0.000328  0.96873  0.0  0.116309  0.000144  1.035445  0.0  0.117257  0.000112  1.035175  0.0  0.086457  0.115762  0.000173  1.035728  0.0
H  H13  1  0.62274497  0.98451863  0.23119091  1  0.096155  0.000328  0.968842  0.0  0.116291  0.000144  1.035556  0.0  0.117238  0.000112  1.035288  0.0  0.086431  0.115744  0.000173  1.03584  0.0
H  H14  1  0.26415199  0.17134824  0.11765584  1  0.09204  -0.000372  0.966771  -0.001  0.110317  -0.000167  1.036809  0.0  0.110313  -0.000123  1.038618  0.0  0.081226  0.111291  -0.00021  1.034238  0.0
H  H15  1  0.82865371  0.73584561  0.38234429  1  0.092041  -0.000371  0.966765  -0.001  0.110319  -0.000167  1.036809  0.0  0.110311  -0.000123  1.038624  0.0  0.08122  0.111294  -0.00021  1.034237  0.0
H  H16  1  0.73584066  0.82865099  0.88234734  1  0.092035  0.000371  0.966825  0.001  0.110299  0.000167  1.036876  0.0  0.110291  0.000123  1.038692  0.0  0.08121  0.111276  0.00021  1.034304  0.0
H  H17  1  0.17134940  0.26415976  0.61765080  1  0.092054  0.000371  0.966808  0.001  0.11032  0.000167  1.036855  0.0  0.110312  0.000123  1.038671  0.0  0.081235  0.111295  0.00021  1.034283  0.0
H  H18  1  0.25943787  0.33165350  0.17864385  1  0.120443  -0.000425  0.973542  0.0  0.138665  -0.000245  1.039269  0.0  0.140409  -0.000225  1.038925  0.0  0.091505  0.137846  -0.000253  1.038817  0.0
H  H19  1  0.66834403  0.74056238  0.32135794  1  0.120417  -0.000425  0.973579  0.0  0.138673  -0.000245  1.039264  0.0  0.140417  -0.000226  1.038919  0.0  0.091503  0.137854  -0.000253  1.038811  0.0
H  H20  1  0.74055818  0.66834093  0.82135957  1  0.120432  0.000425  0.973539  0.0  0.138691  0.000245  1.039224  0.0  0.140435  0.000225  1.038879  0.0  0.091527  0.137871  0.000253  1.038773  0.0
H  H21  1  0.33165819  0.25944180  0.67863976  1  0.120422  0.000426  0.973578  0.0  0.138683  0.000245  1.039249  0.0  0.140428  0.000226  1.038903  0.0  0.091521  0.137865  0.000253  1.038797  0.0
H  H22  1  0.38330699  0.32110137  0.05309736  1  0.116702  5.2e-05  0.960194  0.0  0.136633  1.7e-05  1.020068  0.0  0.138794  1.3e-05  1.018933  0.0  0.091797  0.134936  1.6e-05  1.021213  0.0
H  H23  1  0.67889850  0.61669403  0.44690403  1  0.116686  5.2e-05  0.960215  0.0  0.136612  1.7e-05  1.020099  0.0  0.138775  1.3e-05  1.018962  0.0  0.091766  0.134915  1.6e-05  1.021243  0.0
H  H24  1  0.61668880  0.67889427  0.94690590  1  0.116735  -5.1e-05  0.960226  0.0  0.136636  -1.7e-05  1.020139  0.0  0.138799  -1.3e-05  1.019001  0.0  0.091844  0.134939  -1.6e-05  1.021283  0.0
H  H25  1  0.32110583  0.38331140  0.55309311  1  0.116789  -5.2e-05  0.960174  0.0  0.136661  -1.7e-05  1.020123  0.0  0.138824  -1.3e-05  1.018985  0.0  0.091855  0.134963  -1.6e-05  1.021267  0.0
H  H26  1  0.54866941  0.15213688  0.94073959  1  0.081236  -0.00079  0.96061  -0.002  0.089344  -0.000559  1.02524  -0.001  0.091727  -0.000401  1.02335  -0.001  0.117687  0.086855  -0.000698  1.027878  -0.001
H  H27  1  0.84786419  0.45132707  0.55926028  1  0.081265  -0.000791  0.960615  -0.002  0.089374  -0.000559  1.025239  -0.001  0.091749  -0.000401  1.02336  -0.001  0.117706  0.086884  -0.000698  1.027876  -0.001
H  H28  1  0.45132909  0.84786238  0.05925881  1  0.081208  0.000791  0.960666  0.002  0.08934  0.000559  1.025273  0.001  0.0917  0.000401  1.023416  0.001  0.117693  0.08685  0.000698  1.027909  0.001
H  H29  1  0.15213772  0.54866740  0.44073911  1  0.081233  0.00079  0.960572  0.002  0.089361  0.000559  1.025185  0.001  0.091704  0.000401  1.023341  0.001  0.117685  0.086872  0.000698  1.027827  0.001
H  H30  1  0.73243173  0.94890718  0.04678527  1  0.110382  4.6e-05  0.966677  0.0  0.119696  -0.00015  1.029336  0.0  0.123557  -0.000129  1.027458  0.0  0.110132  0.116649  -0.000168  1.030638  0.0
H  H31  1  0.05108933  0.26756563  0.45321478  1  0.11035  4.6e-05  0.966747  0.0  0.119669  -0.00015  1.029417  0.0  0.123536  -0.000129  1.027521  0.0  0.110111  0.116622  -0.000168  1.030717  0.0
H  H32  1  0.26756797  0.05108594  0.95320867  1  0.11038  -4.5e-05  0.966655  0.0  0.119689  0.00015  1.029323  0.0  0.123553  0.000129  1.027433  0.0  0.110142  0.116639  0.000168  1.030625  0.0
H  H33  1  0.94891649  0.73242779  0.54679093  1  0.11039  -4.7e-05  0.966607  0.0  0.11969  0.00015  1.029306  0.0  0.123568  0.000129  1.027382  0.0  0.110133  0.116639  0.000168  1.030613  0.0
H  H34  1  0.11405530  0.20963486  0.87233705  1  0.113751  -0.000197  0.975742  0.0  0.121067  -0.000428  1.041395  0.0  0.125123  -0.000269  1.039593  0.0  0.109852  0.116804  -0.000711  1.044517  0.0
H  H35  1  0.79036647  0.88593932  0.62766341  1  0.113761  -0.000197  0.975819  0.0  0.121067  -0.000428  1.041471  0.0  0.125135  -0.00027  1.039661  0.0  0.109851  0.116806  -0.000711  1.04459  0.0
H  H36  1  0.88594419  0.79035952  0.12765974  1  0.113712  0.000198  0.975811  0.0  0.121039  0.000428  1.041461  0.0  0.125127  0.00027  1.039595  0.0  0.10985  0.116778  0.000711  1.044583  0.0
H  H37  1  0.20963757  0.11405642  0.37233692  1  0.113737  0.000197  0.975749  0.0  0.121078  0.000428  1.041383  0.0  0.125145  0.00027  1.039551  0.0  0.109856  0.116817  0.000711  1.044505  0.0
H  H38  1  0.91378965  0.39683819  0.77445482  1  0.079577  -0.000736  0.948232  -0.002  0.088945  -0.000488  1.012059  -0.001  0.09077  -0.000354  1.010293  -0.001  0.120248  0.087251  -0.000689  1.013713  -0.002
H  H39  1  0.60316508  0.08620553  0.72554803  1  0.079545  -0.000736  0.948235  -0.002  0.088922  -0.000488  1.012068  -0.001  0.090746  -0.000354  1.010301  -0.001  0.120218  0.087231  -0.000689  1.013722  -0.002
H  H40  1  0.08620750  0.60316233  0.22554814  1  0.079548  0.000736  0.948216  0.002  0.088928  0.000489  1.012047  0.001  0.090751  0.000354  1.010285  0.001  0.120249  0.087238  0.000689  1.013702  0.002
H  H41  1  0.39683629  0.91379134  0.27444954  1  0.079541  0.000735  0.948193  0.002  0.088921  0.000489  1.012003  0.001  0.090744  0.000354  1.010239  0.001  0.120237  0.087234  0.000689  1.013654  0.002
C  C42  1  0.32266857  0.44246652  0.87676610  1  0.639922  0.008218  3.8806  0.012  0.601525  0.001844  4.175977  0.005  0.637806  0.001759  4.172803  0.004  0.202762  0.575608  0.001839  4.177599  0.006
C  C43  1  0.55753812  0.67733414  0.62323696  1  0.639704  0.008216  3.880972  0.012  0.601291  0.001843  4.176357  0.005  0.637568  0.001759  4.173185  0.004  0.202673  0.575373  0.001839  4.177978  0.006
C  C44  1  0.67732525  0.55753886  0.12324038  1  0.639825  -0.008217  3.880867  -0.012  0.601496  -0.001842  4.176129  -0.005  0.637775  -0.001759  4.172959  -0.004  0.202746  0.575579  -0.001839  4.177754  -0.006
C  C45  1  0.44246214  0.32267364  0.37675971  1  0.639916  -0.008217  3.880771  -0.012  0.601566  -0.001843  4.176051  -0.005  0.637846  -0.001759  4.172877  -0.004  0.202784  0.575649  -0.001839  4.177675  -0.006
C  C46  1  0.15538592  0.47472141  0.94121774  1  -0.157319  0.007451  3.736577  0.008  -0.15281  0.00252  3.980434  0.003  -0.157735  0.002492  3.999793  0.003  -0.021368  -0.148739  0.002763  3.965359  0.003
C  C47  1  0.52528015  0.84461553  0.55878360  1  -0.157285  0.007456  3.736602  0.008  -0.152764  0.002521  3.980407  0.003  -0.157687  0.002491  3.999767  0.003  -0.021397  -0.148693  0.002763  3.965334  0.003
C  C48  1  0.84460837  0.52528151  0.05878680  1  -0.157322  -0.007451  3.736479  -0.008  -0.152861  -0.00252  3.980328  -0.003  -0.157787  -0.002491  3.99969  -0.003  -0.021396  -0.14879  -0.002763  3.965256  -0.003
C  C49  1  0.47472013  0.15539226  0.44121382  1  -0.157376  -0.007456  3.736535  -0.008  -0.152898  -0.002521  3.980352  -0.003  -0.157824  -0.002491  3.999713  -0.003  -0.021407  -0.148826  -0.002763  3.965278  -0.003
C  C50  1  0.12783960  0.40163810  0.04959884  1  0.069848  -0.01092  3.727091  -0.012  0.078288  -0.003921  3.978223  -0.005  0.077312  -0.003234  4.004154  -0.004  -0.013597  0.080565  -0.004871  3.95597  -0.006
C  C51  1  0.59836265  0.87216084  0.45040220  1  0.069917  -0.010925  3.727018  -0.012  0.078342  -0.003922  3.978127  -0.005  0.077365  -0.003234  4.004056  -0.004  -0.013554  0.080618  -0.004871  3.955876  -0.006
C  C52  1  0.87215688  0.59835999  0.95040539  1  0.069871  0.010919  3.72715  0.012  0.078361  0.00392  3.978228  0.005  0.077386  0.003234  4.004158  0.004  -0.013623  0.080636  0.004871  3.955978  0.006
C  C53  1  0.40163789  0.12784575  0.54959614  1  0.069918  0.010925  3.727157  0.012  0.078382  0.003922  3.978217  0.005  0.077405  0.003234  4.004148  0.004  -0.01359  0.080657  0.004871  3.955968  0.006
C  C54  1  0.03089927  0.57376651  0.89052267  1  0.069747  -0.010865  3.724387  -0.012  0.078521  -0.004036  3.973421  -0.005  0.077848  -0.003289  3.998902  -0.004  -0.013755  0.079985  -0.004793  3.953685  -0.006
C  C55  1  0.42623447  0.96910123  0.60947798  1  0.069698  -0.010869  3.724542  -0.012  0.078496  -0.004036  3.973529  -0.005  0.077824  -0.003289  3.999008  -0.004  -0.013758  0.079961  -0.004793  3.953794  -0.006
C  C56  1  0.96909408  0.42623517  0.10948073  1  0.069716  0.010865  3.724433  0.012  0.078483  0.004035  3.973525  0.005  0.07781  0.003288  3.999006  0.004  -0.013807  0.079947  0.004793  3.953787  0.006
C  C57  1  0.57376606  0.03090535  0.39051961  1  0.069661  0.01087  3.724462  0.012  0.078473  0.004036  3.973468  0.005  0.0778  0.003288  3.998951  0.004  -0.01381  0.079939  0.004793  3.953731  0.006
C  C58  1  0.06362680  0.65154307  0.77453070  1  -0.328149  0.000623  3.709199  0.001  -0.40482  5.3e-05  3.944439  0.0  -0.407249  7.5e-05  3.954285  0.0  -0.242166  -0.403055  2e-06  3.937494  0.0
C  C59  1  0.34845852  0.93637325  0.72546912  1  -0.328037  0.000624  3.709124  0.001  -0.404713  5.3e-05  3.944368  0.0  -0.407136  7.4e-05  3.954218  0.0  -0.242128  -0.402947  2e-06  3.937424  0.0
C  C60  1  0.93636743  0.34845980  0.22547008  1  -0.32805  -0.000624  3.709073  -0.001  -0.404689  -5.3e-05  3.944329  0.0  -0.407112  -7.4e-05  3.954181  0.0  -0.242145  -0.402925  -2e-06  3.937384  0.0
C  C61  1  0.65154486  0.06363092  0.27452687  1  -0.328009  -0.000624  3.709236  -0.001  -0.404692  -5.3e-05  3.94446  0.0  -0.40712  -7.4e-05  3.954308  0.0  -0.242132  -0.402929  -2e-06  3.937517  0.0
C  C62  1  0.26562174  0.30147202  0.10169475  1  -0.332707  0.000546  3.711516  0.001  -0.410698  -3.1e-05  3.950395  0.0  -0.412766  -1.4e-05  3.960347  0.0  -0.247218  -0.408758  -6.2e-05  3.940406  0.0
C  C63  1  0.69852883  0.73437767  0.39830665  1  -0.332701  0.000546  3.711531  0.001  -0.410732  -3.1e-05  3.950418  0.0  -0.4128  -1.4e-05  3.960371  0.0  -0.2472  -0.408791  -6.3e-05  3.940428  0.0
C  C64  1  0.73437502  0.69852490  0.89831114  1  -0.332753  -0.000546  3.711671  -0.001  -0.410756  3.2e-05  3.950548  0.0  -0.412822  1.4e-05  3.9605  0.0  -0.247253  -0.408814  6.3e-05  3.940559  0.0
C  C65  1  0.30147430  0.26562772  0.60168994  1  -0.332823  -0.000546  3.711675  -0.001  -0.410807  3.1e-05  3.950566  0.0  -0.412873  1.4e-05  3.960515  0.0  -0.247302  -0.408865  6.3e-05  3.940576  0.0
C  C66  1  0.67504738  0.15967326  0.92967112  1  0.120673  0.0131  3.699049  0.015  0.093816  0.002378  3.953358  0.004  0.103478  0.00278  3.969196  0.004  0.045166  0.086008  0.001973  3.946622  0.003
C  C67  1  0.84032557  0.32494863  0.57032856  1  0.120619  0.013099  3.699018  0.015  0.093769  0.002378  3.953333  0.004  0.103433  0.00278  3.969169  0.004  0.045122  0.08597  0.001974  3.946595  0.003
C  C68  1  0.32495332  0.84032117  0.07032697  1  0.120701  -0.013088  3.69912  -0.015  0.09381  -0.002378  3.953394  -0.004  0.103482  -0.002781  3.969238  -0.004  0.04514  0.086012  -0.001973  3.946654  -0.003
C  C69  1  0.15967871  0.67504589  0.42967118  1  0.120558  -0.013091  3.699207  -0.015  0.093669  -0.002379  3.953478  -0.004  0.103355  -0.002782  3.969332  -0.004  0.04507  0.085871  -0.001974  3.946736  -0.003
C  C70  1  0.77939924  0.04699037  0.98830631  1  -0.144501  -0.014436  3.689616  -0.016  -0.1583  -0.00361  3.927465  -0.005  -0.164101  -0.003614  3.944112  -0.005  -0.074914  -0.154966  -0.003527  3.917366  -0.004
C  C71  1  0.95300996  0.22059663  0.51169258  1  -0.144474  -0.014433  3.689725  -0.016  -0.158341  -0.003609  3.927609  -0.005  -0.164139  -0.003615  3.944251  -0.005  -0.074905  -0.15499  -0.003527  3.91752  -0.004
C  C72  1  0.22060286  0.95300283  0.01168949  1  -0.144608  0.014422  3.689469  0.016  -0.158341  0.00361  3.9274  0.005  -0.164147  0.003615  3.944023  0.005  -0.074969  -0.154983  0.003527  3.917321  0.004
C  C73  1  0.04699724  0.77939554  0.48830934  1  -0.144501  0.014428  3.68953  0.016  -0.158284  0.00361  3.927459  0.005  -0.164076  0.003614  3.944095  0.005  -0.074893  -0.154927  0.003527  3.917377  0.004
C  C74  1  0.94252895  0.05917175  0.96998422  1  0.09773  0.014361  3.736714  0.017  0.110289  0.003752  3.962309  0.005  0.115774  0.003494  3.980294  0.004  0.015491  0.105858  0.004047  3.950772  0.005
C  C75  1  0.94082959  0.05746997  0.53001260  1  0.097711  0.014359  3.736699  0.017  0.110319  0.003751  3.962184  0.005  0.115811  0.003495  3.980187  0.004  0.015458  0.105836  0.004048  3.950716  0.005
C  C76  1  0.05747310  0.94082140  0.03000857  1  0.097975  -0.014352  3.736405  -0.017  0.110269  -0.003752  3.962241  -0.005  0.115799  -0.003494  3.980188  -0.004  0.015453  0.105744  -0.004048  3.950789  -0.005
C  C77  1  0.05917736  0.94252343  0.46998990  1  0.097973  -0.014353  3.736428  -0.017  0.110344  -0.003751  3.962151  -0.005  0.115837  -0.003494  3.980145  -0.004  0.015426  0.105835  -0.004048  3.950708  -0.005
C  C78  1  0.99087048  0.18880946  0.89145376  1  -0.141985  -0.014878  3.686809  -0.017  -0.159867  -0.004026  3.93261  -0.005  -0.166109  -0.003904  3.950734  -0.005  -0.072725  -0.156762  -0.004348  3.923315  -0.006
C  C79  1  0.81119264  0.00912644  0.60854623  1  -0.142028  -0.014876  3.686737  -0.017  -0.159893  -0.004026  3.932524  -0.005  -0.166151  -0.003904  3.950638  -0.005  -0.072711  -0.156771  -0.004348  3.923244  -0.006
C  C80  1  0.00913159  0.81118372  0.10854054  1  -0.142008  0.014865  3.686617  0.017  -0.159828  0.004026  3.932475  0.005  -0.16609  0.003904  3.950584  0.005  -0.072709  -0.156701  0.004348  3.923205  0.006
C  C81  1  0.18881432  0.99086696  0.39145628  1  -0.142044  0.01487  3.686525  0.017  -0.159924  0.004027  3.932385  0.005  -0.166165  0.003905  3.950513  0.005  -0.072707  -0.156797  0.004348  3.923112  0.006
C  C82  1  0.87890465  0.29624926  0.83631714  1  0.128233  0.012795  3.696051  0.015  0.100122  0.002064  3.954918  0.003  0.109253  0.002609  3.972808  0.004  0.049867  0.092174  0.002036  3.945619  0.003
C  C83  1  0.70375254  0.12109194  0.66368276  1  0.128262  0.012791  3.695865  0.015  0.100096  0.002064  3.95478  0.003  0.109227  0.002609  3.972671  0.004  0.049885  0.092152  0.002036  3.945486  0.003
C  C84  1  0.12109481  0.70375125  0.16368241  1  0.128299  -0.012782  3.695968  -0.015  0.100125  -0.002064  3.954877  -0.003  0.109252  -0.002611  3.97278  -0.004  0.049877  0.092181  -0.002036  3.945579  -0.003
C  C85  1  0.29625055  0.87890255  0.33631644  1  0.128304  -0.012784  3.695891  -0.015  0.100156  -0.002064  3.954773  -0.003  0.109285  -0.00261  3.972665  -0.004  0.049903  0.092212  -0.002036  3.945482  -0.003
N  N86  1  0.72313275  0.28305609  0.85406231  1  -0.282181  -0.062579  3.346076  -0.088  -0.241139  -0.039035  3.640964  -0.057  -0.270103  -0.032642  3.659416  -0.049  -0.332982  -0.223405  -0.043546  3.631544  -0.062
N  N87  1  0.71694347  0.27686469  0.64593920  1  -0.282127  -0.062575  3.345963  -0.088  -0.241039  -0.039034  3.640832  -0.057  -0.269998  -0.032642  3.659278  -0.049  -0.332926  -0.223325  -0.043544  3.63143  -0.062
N  N88  1  0.27686721  0.71694199  0.14593680  1  -0.28214  0.06257  3.346116  0.088  -0.241027  0.039035  3.640989  0.057  -0.269988  0.032645  3.659428  0.049  -0.33291  -0.223311  0.043546  3.631583  0.062
N  N89  1  0.28305913  0.72313224  0.35406117  1  -0.282119  0.062573  3.346261  0.088  -0.240996  0.039036  3.641083  0.057  -0.269955  0.032646  3.659514  0.049  -0.332911  -0.223292  0.043546  3.631691  0.062
O  O90  1  0.37035882  0.31577606  0.83461685  1  -0.604843  -0.06032  1.929366  -0.088  -0.578487  -0.038417  2.183741  -0.06  -0.619478  -0.027403  2.176988  -0.044  -0.312056  -0.546657  -0.047974  2.187312  -0.072
O  O91  1  0.68423367  0.62964035  0.66538157  1  -0.604758  -0.060314  1.929524  -0.088  -0.578385  -0.038414  2.183883  -0.06  -0.619376  -0.027401  2.177136  -0.044  -0.312018  -0.546554  -0.04797  2.187451  -0.072
O  O92  1  0.62963536  0.68423292  0.16538594  1  -0.604806  0.060315  1.929558  0.088  -0.578447  0.038415  2.18387  0.06  -0.619438  0.027404  2.17711  0.044  -0.312056  -0.546618  0.047972  2.187441  0.072
O  O93  1  0.31576851  0.37036380  0.33461388  1  -0.604859  0.060316  1.929546  0.088  -0.578479  0.038415  2.183852  0.06  -0.619467  0.027404  2.177087  0.044  -0.312081  -0.546649  0.047971  2.187423  0.072
O  O94  1  0.41650758  0.54065104  0.86191929  1  -0.546318  -0.065196  1.965823  -0.094  -0.522534  -0.040867  2.210533  -0.064  -0.563329  -0.030371  2.207195  -0.049  -0.296282  -0.491763  -0.050109  2.211751  -0.075
O  O95  1  0.45935229  0.58349863  0.63808491  1  -0.546246  -0.065193  1.966041  -0.094  -0.522414  -0.040866  2.210686  -0.064  -0.563227  -0.03037  2.207387  -0.049  -0.296227  -0.491644  -0.050106  2.211903  -0.075
O  O96  1  0.58349144  0.45935196  0.13808445  1  -0.546248  0.065193  1.965959  0.094  -0.522472  0.040866  2.210611  0.064  -0.563275  0.030372  2.207286  0.049  -0.296228  -0.4917  0.050107  2.211829  0.075
O  O97  1  0.54064803  0.41650921  0.36191552  1  -0.546275  0.065195  1.965935  0.094  -0.522495  0.040867  2.210594  0.064  -0.5633  0.030373  2.207269  0.049  -0.29623  -0.491723  0.050109  2.21181  0.075
