# generated using pymatgen
data_CuH4C7N2O7
_symmetry_space_group_name_H-M   'P 1'
_cell_length_a   6.68218789
_cell_length_b   7.54019612
_cell_length_c   17.77175581
_cell_angle_alpha   89.99876145
_cell_angle_beta   90.00071392
_cell_angle_gamma   89.99930865
_symmetry_Int_Tables_number   1
_chemical_formula_structural   CuH4C7N2O7
_chemical_formula_sum   'Cu4 H16 C28 N8 O28'
_cell_volume   895.43004393
_cell_formula_units_Z   4
loop_
 _symmetry_equiv_pos_site_id
 _symmetry_equiv_pos_as_xyz
  1  'x, y, z'
loop_
 _atom_site_type_symbol
 _atom_site_label
 _atom_site_symmetry_multiplicity
 _atom_site_fract_x
 _atom_site_fract_y
 _atom_site_fract_z
 _atom_site_occupancy
 _atom_site_hle17_ddec_charge
 _atom_site_hle17_ddec_spin_density
 _atom_site_hle17_ddec_sum_bond_order
 _atom_site_hle17_magmom
 _atom_site_hse06_10hf_ddec_charge
 _atom_site_hse06_10hf_ddec_spin_density
 _atom_site_hse06_10hf_ddec_sum_bond_order
 _atom_site_hse06_10hf_magmom
 _atom_site_hse06_ddec_charge
 _atom_site_hse06_ddec_spin_density
 _atom_site_hse06_ddec_sum_bond_order
 _atom_site_hse06_magmom
 _atom_site_pbe_cm5_charge
 _atom_site_pbe_ddec_charge
 _atom_site_pbe_ddec_spin_density
 _atom_site_pbe_ddec_sum_bond_order
 _atom_site_pbe_magmom
Cu  Cu0  1  0.50064977  0.00489839  0.50244109  1  1.067507  0.676616  1.709845  0.508  1.076251  0.787266  2.112473  0.647  1.154329  0.865983  2.051455  0.737  0.702369  1.015988  0.705035  2.173024  0.564
Cu  Cu1  1  0.00064509  0.99509031  0.49756240  1  1.067533  -0.676633  1.709991  -0.508  1.076264  -0.787271  2.112578  -0.647  1.154295  -0.865984  2.051607  -0.737  0.702419  1.016041  -0.705018  2.173151  -0.564
Cu  Cu2  1  0.50063221  0.50488493  0.99755922  1  1.067337  0.676637  1.710033  0.508  1.076142  0.787276  2.112601  0.647  1.154193  0.865977  2.051612  0.737  0.702338  1.015864  0.705033  2.173191  0.564
Cu  Cu3  1  0.00063571  0.49509979  0.00243583  1  1.06743  -0.676637  1.710057  -0.508  1.076177  -0.787259  2.11262  -0.647  1.154227  -0.865978  2.051633  -0.737  0.702395  1.015913  -0.705039  2.173215  -0.564
H  H4  1  0.75212429  0.80895296  0.55871261  1  0.409412  1.7e-05  0.868776  0.0  0.38907  4.6e-05  0.934826  0.0  0.40034  4.3e-05  0.91893  0.0  0.28669  0.381338  4.6e-05  0.945567  0.0
H  H5  1  0.25213009  0.19103302  0.44129093  1  0.409185  -1.7e-05  0.868997  0.0  0.38887  -4.7e-05  0.935063  0.0  0.400135  -4.3e-05  0.919178  0.0  0.286608  0.381135  -4.5e-05  0.945806  0.0
H  H6  1  0.75212058  0.30895506  0.94128772  1  0.409159  1.7e-05  0.868981  0.0  0.388857  4.6e-05  0.935078  0.0  0.400128  4.3e-05  0.919185  0.0  0.286607  0.381126  4.6e-05  0.945816  0.0
H  H7  1  0.25211584  0.69103225  0.05870963  1  0.409099  -1.6e-05  0.869071  0.0  0.388839  -4.7e-05  0.935062  0.0  0.400101  -4.4e-05  0.919188  0.0  0.286631  0.381105  -4.6e-05  0.945802  0.0
H  H8  1  0.02588744  0.98918638  0.26296552  1  0.144815  -0.000159  0.956383  0.0  0.146712  -0.000136  1.026899  0.0  0.151279  -8.8e-05  1.02156  0.0  0.121973  0.143382  -0.000176  1.030814  0.0
H  H9  1  0.52587592  0.01081530  0.73703865  1  0.144909  0.000149  0.956428  0.0  0.146793  0.000136  1.026972  0.0  0.151355  8.8e-05  1.021654  0.0  0.121991  0.143466  0.000176  1.030863  0.0
H  H10  1  0.02588290  0.48918810  0.23703345  1  0.144852  -0.000158  0.956383  0.0  0.146731  -0.000136  1.026938  0.0  0.151299  -8.8e-05  1.021598  0.0  0.121992  0.143401  -0.000176  1.030855  0.0
H  H11  1  0.52588196  0.51083215  0.76296453  1  0.144794  0.000156  0.956408  0.0  0.14668  0.000136  1.026989  0.0  0.15125  8.8e-05  1.021647  0.0  0.121969  0.143352  0.000176  1.030897  0.0
H  H12  1  0.67940648  0.12063482  0.06465417  1  0.161462  -0.000109  0.957694  0.0  0.158561  -9.6e-05  1.032145  0.0  0.164847  -6.9e-05  1.025032  0.0  0.126367  0.153881  -0.000117  1.037307  0.0
H  H13  1  0.17939254  0.87937317  0.93534846  1  0.161375  0.000107  0.957752  0.0  0.158511  9.5e-05  1.032179  0.0  0.164798  6.9e-05  1.025065  0.0  0.126334  0.153829  0.000117  1.037336  0.0
H  H14  1  0.67943773  0.62066028  0.43534678  1  0.161503  -0.000108  0.957633  0.0  0.158518  -9.5e-05  1.032164  0.0  0.164806  -6.9e-05  1.025069  0.0  0.126318  0.15384  -0.000117  1.037323  0.0
H  H15  1  0.17943612  0.37935169  0.56464967  1  0.161462  0.000108  0.957648  0.0  0.15849  9.5e-05  1.032174  0.0  0.16478  6.9e-05  1.025081  0.0  0.126329  0.153809  0.000117  1.037335  0.0
H  H16  1  0.43587105  0.21546763  0.28639321  1  0.144282  0.000181  0.930862  0.0  0.148036  0.000126  0.996513  0.0  0.153011  8e-05  0.991443  0.0  0.123146  0.144344  0.000164  1.000252  0.0
H  H17  1  0.93586177  0.78453361  0.71360837  1  0.144369  -0.000187  0.930676  0.0  0.148086  -0.000126  0.996383  0.0  0.15306  -8e-05  0.991317  0.0  0.123149  0.144394  -0.000164  1.000122  0.0
H  H18  1  0.43585748  0.71544717  0.21360628  1  0.144293  0.00018  0.930684  0.0  0.148023  0.000126  0.996394  0.0  0.152999  8e-05  0.991315  0.0  0.123154  0.144333  0.000164  1.00013  0.0
H  H19  1  0.93587684  0.28455142  0.78639135  1  0.144288  -0.000184  0.93081  0.0  0.148123  -0.000126  0.996387  0.0  0.153101  -8e-05  0.991307  0.0  0.123194  0.144429  -0.000164  1.000122  0.0
C  C20  1  0.74759453  0.08771392  0.36806851  1  0.659304  0.00152  3.864166  0.002  0.620672  0.001111  4.152233  0.002  0.659157  0.000959  4.148621  0.001  0.218991  0.594742  0.001269  4.151384  0.002
C  C21  1  0.24756552  0.91228670  0.63193332  1  0.659347  -0.001515  3.864392  -0.002  0.620774  -0.001111  4.152342  -0.002  0.659253  -0.000958  4.148737  -0.001  0.219094  0.594842  -0.001267  4.1515  -0.002
C  C22  1  0.74757075  0.58769223  0.13193194  1  0.659306  0.001512  3.864159  0.002  0.620699  0.001109  4.152121  0.002  0.659183  0.000957  4.148515  0.001  0.219129  0.594766  0.001266  4.151272  0.002
C  C23  1  0.24757134  0.41229910  0.86806707  1  0.659062  -0.001511  3.864486  -0.002  0.620551  -0.001111  4.152346  -0.002  0.659034  -0.000958  4.148729  -0.001  0.219092  0.594621  -0.001267  4.151492  -0.002
C  C24  1  0.73310526  0.10130196  0.28364400  1  -0.05368  -0.000825  3.7179  -0.001  -0.027559  -0.000451  3.952267  -0.001  -0.04084  -0.000225  3.97735  0.0  -0.010046  -0.020014  -0.000628  3.936474  -0.001
C  C25  1  0.23309123  0.89870279  0.71635888  1  -0.05351  0.000784  3.718006  0.001  -0.027367  0.00045  3.952304  0.001  -0.04064  0.000224  3.977379  0.0  -0.009976  -0.019829  0.000627  3.936512  0.001
C  C26  1  0.73309627  0.60129197  0.21635850  1  -0.053622  -0.000845  3.718065  -0.001  -0.027504  -0.00045  3.952427  -0.001  -0.040771  -0.000224  3.977495  0.0  -0.010036  -0.019958  -0.000626  3.936628  -0.001
C  C27  1  0.23310021  0.39870483  0.78363875  1  -0.053498  0.000808  3.71821  0.001  -0.027391  0.00045  3.952565  0.001  -0.04066  0.000224  3.977624  0.0  -0.009995  -0.019851  0.000626  3.936768  0.001
C  C28  1  0.88947584  0.04101868  0.23790184  1  -0.05591  0.000359  3.618108  0.001  -0.0996  0.000255  3.878514  0.001  -0.092961  0.000135  3.893928  0.0  -0.054439  -0.103581  0.00039  3.868465  0.001
C  C29  1  0.38945803  0.95898306  0.76210290  1  -0.056142  -0.000293  3.618567  -0.001  -0.099823  -0.000255  3.878923  -0.001  -0.093194  -0.000136  3.894336  0.0  -0.054518  -0.103794  -0.000391  3.868876  -0.001
C  C30  1  0.88947137  0.54101834  0.26209689  1  -0.055986  0.000379  3.618167  0.001  -0.099656  0.000256  3.878565  0.001  -0.093027  0.000136  3.89398  0.0  -0.054447  -0.103628  0.000392  3.868506  0.001
C  C31  1  0.38947447  0.45899667  0.73789884  1  -0.055877  -0.000335  3.618441  -0.001  -0.099627  -0.000256  3.878916  -0.001  -0.092981  -0.000136  3.894306  0.0  -0.05447  -0.103606  -0.000391  3.868867  -0.001
C  C32  1  0.86456650  0.04613469  0.16002087  1  0.081406  0.000612  3.67369  0.001  0.067373  0.000374  3.932787  0.0  0.061107  0.000294  3.954827  0.0  0.082147  0.070979  0.000443  3.918553  0.001
C  C33  1  0.36455734  0.95386466  0.83998262  1  0.081587  -0.000654  3.673696  -0.001  0.0675  -0.000375  3.932806  0.0  0.06124  -0.000294  3.954838  0.0  0.082171  0.0711  -0.000443  3.91857  -0.001
C  C34  1  0.86457810  0.54614106  0.33997994  1  0.081385  0.000596  3.673419  0.001  0.067366  0.000374  3.932565  0.0  0.061105  0.000293  3.954604  0.0  0.082131  0.070971  0.000443  3.918336  0.001
C  C35  1  0.36457717  0.45386758  0.66002018  1  0.081293  -0.00062  3.67382  -0.001  0.067202  -0.000374  3.932904  0.0  0.060936  -0.000295  3.954949  0.0  0.082146  0.070804  -0.000443  3.918672  -0.001
C  C36  1  0.69401204  0.11423948  0.12559475  1  -0.076486  -0.000685  3.604082  -0.001  -0.115019  -0.000465  3.856878  0.0  -0.108567  -0.000332  3.86923  0.0  -0.05059  -0.119463  -0.000647  3.849368  -0.001
C  C37  1  0.19399897  0.88576835  0.87440739  1  -0.076569  0.000724  3.604182  0.001  -0.115149  0.000466  3.857012  0.0  -0.108696  0.000331  3.869356  0.0  -0.050629  -0.119589  0.000647  3.849497  0.001
C  C38  1  0.69403078  0.61424677  0.37440745  1  -0.076649  -0.000663  3.603999  -0.001  -0.115028  -0.000465  3.856813  0.0  -0.108589  -0.000331  3.869169  0.0  -0.05058  -0.119478  -0.000647  3.849311  -0.001
C  C39  1  0.19402812  0.38576238  0.62559131  1  -0.076482  0.000697  3.603967  0.001  -0.114947  0.000465  3.856776  0.0  -0.108487  0.000332  3.869087  0.0  -0.050561  -0.119394  0.000647  3.849273  0.001
C  C40  1  0.54407949  0.17618178  0.17315160  1  0.074421  -8e-06  3.690825  0.0  0.074547  -0.000159  3.943018  0.0  0.06744  -5.2e-05  3.966466  0.0  0.082451  0.078792  -0.000293  3.927887  0.0
C  C41  1  0.04406866  0.82382766  0.82685097  1  0.074706  -2.1e-05  3.691048  0.0  0.074854  0.000158  3.943234  0.0  0.067749  4.7e-05  3.966682  0.0  0.082524  0.079099  0.000293  3.928098  0.0
C  C42  1  0.54409215  0.67617952  0.32684989  1  0.074753  -4.7e-05  3.690571  0.0  0.074719  -0.00016  3.942992  0.0  0.067612  -4.8e-05  3.966447  0.0  0.082574  0.078966  -0.000293  3.92786  0.0
C  C43  1  0.04410090  0.32382197  0.67314705  1  0.074655  1e-06  3.690858  0.0  0.074774  0.000159  3.943067  0.0  0.067669  4.9e-05  3.966525  0.0  0.082588  0.079017  0.000293  3.927936  0.0
C  C44  1  0.55835910  0.16882318  0.25126887  1  -0.066947  -0.001289  3.640789  -0.002  -0.11009  -0.000881  3.89711  -0.001  -0.104354  -0.000644  3.913102  -0.001  -0.057249  -0.113402  -0.001058  3.886533  -0.001
C  C45  1  0.05834706  0.83118611  0.74873601  1  -0.067299  0.001349  3.640888  0.002  -0.110451  0.000881  3.897284  0.001  -0.104718  0.000645  3.913279  0.001  -0.057365  -0.113762  0.001058  3.886709  0.001
C  C46  1  0.55834970  0.66880891  0.24873275  1  -0.067004  -0.001262  3.640556  -0.001  -0.110115  -0.000881  3.896984  -0.001  -0.104374  -0.000644  3.912965  -0.001  -0.057257  -0.113425  -0.001058  3.886404  -0.001
C  C47  1  0.05836544  0.33119375  0.75126426  1  -0.067037  0.001318  3.641024  0.002  -0.110259  0.000881  3.897361  0.001  -0.104523  0.000644  3.913346  0.001  -0.057338  -0.113561  0.001059  3.886775  0.001
N  N48  1  0.02342771  0.97581920  0.11074483  1  0.472202  0.000339  3.927215  0.0  0.523608  0.000382  4.183405  0.0  0.544517  0.000247  4.193493  0.0  0.058314  0.509529  0.000612  4.1771  0.001
N  N49  1  0.52342109  0.02418384  0.88925820  1  0.471921  -0.000342  3.927493  0.0  0.523497  -0.000382  4.183446  0.0  0.544407  -0.000246  4.193527  0.0  0.058285  0.509419  -0.000612  4.177142  -0.001
N  N50  1  0.02344770  0.47582391  0.38925425  1  0.472425  0.000335  3.926796  0.0  0.523573  0.000382  4.183361  0.0  0.544482  0.000248  4.193443  0.0  0.05819  0.509494  0.000612  4.177066  0.001
N  N51  1  0.52345048  0.52418046  0.61074146  1  0.472309  -0.000336  3.927408  0.0  0.5239  -0.000382  4.183284  0.0  0.544811  -0.000247  4.193365  0.0  0.058371  0.509823  -0.000612  4.176986  -0.001
N  N52  1  0.36213802  0.25072277  0.13977821  1  0.505736  -0.001618  3.896013  -0.002  0.528886  -0.00136  4.201694  -0.002  0.551407  -0.000831  4.209926  -0.001  0.051457  0.513235  -0.001917  4.19635  -0.002
N  N53  1  0.86213711  0.74928191  0.86022134  1  0.505609  0.001636  3.896089  0.002  0.52872  0.001359  4.20181  0.002  0.551241  0.000832  4.210034  0.001  0.051374  0.513071  0.001916  4.196465  0.002
N  N54  1  0.36215329  0.75072547  0.36022286  1  0.505718  -0.001616  3.89616  -0.002  0.528838  -0.001358  4.201941  -0.002  0.551358  -0.000831  4.210174  -0.001  0.051262  0.513188  -0.001915  4.196596  -0.002
N  N55  1  0.86216973  0.24927656  0.63977556  1  0.505811  0.001632  3.896209  0.002  0.528913  0.00136  4.201946  0.002  0.551431  0.000831  4.21018  0.001  0.051228  0.51326  0.001917  4.196605  0.002
O  O56  1  0.58190679  0.09887280  0.40302916  1  -0.604264  0.056049  2.094078  0.077  -0.569442  0.041263  2.366513  0.061  -0.607455  0.032485  2.355257  0.05  -0.318091  -0.540835  0.04649  2.3724  0.066
O  O57  1  0.08187677  0.90114155  0.59697302  1  -0.604335  -0.056056  2.094465  -0.077  -0.56949  -0.041264  2.366892  -0.061  -0.607486  -0.032486  2.35563  -0.05  -0.31812  -0.540888  -0.04649  2.372796  -0.066
O  O58  1  0.58186987  0.59880114  0.09697547  1  -0.604165  0.056062  2.094174  0.077  -0.569399  0.041271  2.366726  0.061  -0.607408  0.032493  2.355477  0.05  -0.318203  -0.540786  0.046499  2.372617  0.066
O  O59  1  0.08187178  0.40117607  0.90301939  1  -0.604141  -0.05606  2.09442  -0.077  -0.569359  -0.04127  2.366862  -0.061  -0.607362  -0.03249  2.355612  -0.05  -0.318179  -0.54075  -0.046496  2.372751  -0.066
O  O60  1  0.92181650  0.06647015  0.39509448  1  -0.586535  -0.062972  2.106087  -0.087  -0.56115  -0.044785  2.392943  -0.067  -0.59943  -0.034817  2.381146  -0.055  -0.31034  -0.532005  -0.050822  2.398663  -0.073
O  O61  1  0.42178930  0.93351666  0.60491041  1  -0.586531  0.062973  2.105996  0.087  -0.561222  0.04479  2.392872  0.067  -0.599527  0.03482  2.381102  0.055  -0.31036  -0.53207  0.050829  2.398566  0.073
O  O62  1  0.92179182  0.56647236  0.10490641  1  -0.586581  -0.062975  2.106116  -0.087  -0.561182  -0.044791  2.392934  -0.067  -0.599465  -0.03482  2.381132  -0.055  -0.310332  -0.53203  -0.050829  2.398641  -0.073
O  O63  1  0.42179453  0.43350118  0.89509397  1  -0.58643  0.062965  2.106085  0.087  -0.561085  0.044784  2.392814  0.067  -0.599423  0.034818  2.381144  0.055  -0.310306  -0.53193  0.050821  2.398519  0.073
O  O64  1  0.16801910  0.89989390  0.14122703  1  -0.354924  0.000107  1.772625  0.0  -0.341108  0.000144  1.968481  0.0  -0.355491  0.000114  1.965607  0.0  -0.126096  -0.331992  0.000218  1.971058  0.0
O  O65  1  0.66800745  0.10010094  0.85877667  1  -0.354672  -9.6e-05  1.772601  0.0  -0.340969  -0.000145  1.968463  0.0  -0.355349  -0.000114  1.965592  0.0  -0.126  -0.331856  -0.000218  1.971046  0.0
O  O66  1  0.16803358  0.39989218  0.35877512  1  -0.35497  0.000138  1.77246  0.0  -0.34096  0.000143  1.968344  0.0  -0.355346  0.000114  1.965475  0.0  -0.125993  -0.331834  0.000217  1.970912  0.0
O  O67  1  0.66803037  0.60010930  0.64122183  1  -0.354978  -9.5e-05  1.772853  0.0  -0.341124  -0.000145  1.968558  0.0  -0.355511  -0.000113  1.965682  0.0  -0.126098  -0.331988  -0.000218  1.971096  0.0
O  O68  1  0.00307681  0.99540672  0.04225118  1  -0.292692  0.00074  1.791959  0.0  -0.279554  0.000753  1.987985  0.0  -0.291065  0.000544  1.983495  0.0  -0.092344  -0.272241  0.000989  1.991356  0.001
O  O69  1  0.50306077  0.00460847  0.95775007  1  -0.292623  -0.000754  1.792254  0.0  -0.27951  -0.000752  1.988172  0.0  -0.291021  -0.000544  1.983685  0.0  -0.092354  -0.272196  -0.000989  1.991541  -0.001
O  O70  1  0.00309909  0.49541861  0.45774763  1  -0.292845  0.000711  1.791919  0.0  -0.279663  0.000753  1.988088  0.0  -0.291179  0.000544  1.983605  0.0  -0.092292  -0.27235  0.000989  1.991464  0.001
O  O71  1  0.50309835  0.50457802  0.54225025  1  -0.292762  -0.000764  1.792133  0.0  -0.279729  -0.000751  1.988096  0.0  -0.291244  -0.000544  1.983608  0.0  -0.092341  -0.272417  -0.000989  1.991468  -0.001
O  O72  1  0.34626631  0.24936920  0.07011314  1  -0.373873  0.00156  1.863752  0.003  -0.382604  0.000938  2.133633  0.002  -0.393047  0.00121  2.121414  0.003  -0.118387  -0.375147  0.000574  2.142167  0.002
O  O73  1  0.84626322  0.75063566  0.92988633  1  -0.373857  -0.001588  1.86382  -0.003  -0.382558  -0.000938  2.133691  -0.002  -0.393002  -0.001209  2.121472  -0.003  -0.118357  -0.375103  -0.000574  2.142225  -0.002
O  O74  1  0.34629439  0.74938698  0.42988843  1  -0.37403  0.001559  1.863922  0.003  -0.382618  0.000938  2.133654  0.002  -0.393066  0.001208  2.121438  0.003  -0.118367  -0.375165  0.000574  2.14219  0.002
O  O75  1  0.84630249  0.25061125  0.57010879  1  -0.374055  -0.001596  1.863867  -0.003  -0.382745  -0.000938  2.133729  -0.002  -0.393188  -0.00121  2.121516  -0.003  -0.11843  -0.375298  -0.000573  2.142273  -0.002
O  O76  1  0.23327785  0.31043834  0.18320665  1  -0.352168  -0.002708  1.796162  -0.004  -0.330885  -0.002066  2.01852  -0.003  -0.340603  -0.00177  2.013664  -0.003  -0.119489  -0.325521  -0.00253  2.022577  -0.003
O  O77  1  0.73328528  0.68954652  0.81679398  1  -0.352133  0.002704  1.796133  0.003  -0.330806  0.002065  2.018472  0.003  -0.340521  0.001771  2.013618  0.003  -0.119447  -0.325446  0.002528  2.022531  0.003
O  O78  1  0.23328868  0.81042729  0.31679438  1  -0.352224  -0.002698  1.796398  -0.003  -0.330909  -0.002064  2.018733  -0.003  -0.340625  -0.00177  2.013874  -0.003  -0.11941  -0.325548  -0.002527  2.022798  -0.003
O  O79  1  0.73329989  0.18956950  0.68320625  1  -0.352238  0.002724  1.796294  0.004  -0.330932  0.002066  2.01867  0.003  -0.340646  0.001773  2.013813  0.003  -0.119381  -0.325566  0.002529  2.022723  0.003
O  O80  1  0.74857631  0.87682242  0.51174506  1  -0.903078  -0.000266  1.927178  -0.001  -0.916743  8.8e-05  2.261169  0.0  -0.973624  -0.000268  2.22753  -0.001  -0.596891  -0.872071  0.000803  2.282647  0.0
O  O81  1  0.24858159  0.12316228  0.48825846  1  -0.902745  0.000256  1.9272  0.001  -0.916441  -0.000102  2.261255  0.0  -0.973318  0.000259  2.227611  0.001  -0.596774  -0.871766  -0.000832  2.282732  -0.001
O  O82  1  0.74858015  0.37682880  0.98825462  1  -0.902799  -0.000252  1.927377  -0.001  -0.9165  0.0001  2.261452  0.0  -0.973385  -0.000256  2.22783  -0.001  -0.596793  -0.871814  0.000827  2.282928  0.001
O  O83  1  0.24856428  0.62317181  0.01174046  1  -0.902679  0.000259  1.927362  0.001  -0.916427  -9.4e-05  2.261438  0.0  -0.973304  0.000266  2.22781  0.001  -0.59682  -0.871739  -0.000811  2.282916  0.0
