# generated using pymatgen
data_AlH9C15S4NO19
_symmetry_space_group_name_H-M   'P 1'
_cell_length_a   6.58632157
_cell_length_b   20.39948764
_cell_length_c   22.38511117
_cell_angle_alpha   89.95577357
_cell_angle_beta   89.90894633
_cell_angle_gamma   92.80888481
_symmetry_Int_Tables_number   1
_chemical_formula_structural   AlH9C15S4NO19
_chemical_formula_sum   'Al4 H36 C60 S16 N4 O76'
_cell_volume   3003.99111245
_cell_formula_units_Z   4
loop_
 _symmetry_equiv_pos_site_id
 _symmetry_equiv_pos_as_xyz
  1  'x, y, z'
loop_
 _atom_site_type_symbol
 _atom_site_label
 _atom_site_symmetry_multiplicity
 _atom_site_fract_x
 _atom_site_fract_y
 _atom_site_fract_z
 _atom_site_occupancy
 _atom_site_pbe_bader_charge
 _atom_site_pbe_bader_spin_density
 _atom_site_pbe_cm5_charge
 _atom_site_pbe_ddec_charge
 _atom_site_pbe_ddec_spin_density
 _atom_site_pbe_ddec_sum_bond_order
 _atom_site_pbe_magmom
Al  Al0  1  0.99276710  0.30946897  0.50023987  1  2.499931  0  0.39539  1.636891  0  2.566046  0
Al  Al1  1  0.00053747  0.68669953  0.99943192  1  2.499534  0  0.394487  1.639676  0  2.571396  0
Al  Al2  1  0.48603843  0.31011381  0.49682077  1  2.49859  0  0.399863  1.64732  0  2.549375  0
Al  Al3  1  0.50555990  0.68530934  0.99543910  1  2.499106  0  0.39907  1.647184  0  2.547938  0
H  H4  1  0.03399082  0.50164932  0.05384767  1  0.184507  0  0.131126  0.147691  0  0.978977  0
H  H5  1  0.96059542  0.49300450  0.55193130  1  0.164083  0  0.131504  0.145961  0  0.981152  0
H  H6  1  0.50548810  0.19418219  0.34658311  1  0.13191  0  0.111486  0.123058  0  1.01471  0
H  H7  1  0.48803649  0.80622401  0.84722958  1  0.101922  0  0.113229  0.124382  0  1.010456  0
H  H8  1  0.05425443  0.89313020  0.24335133  1  0.172494  0  0.128943  0.141824  0  1.003188  0
H  H9  1  0.94809547  0.11602026  0.75020828  1  0.183625  0  0.127811  0.143235  0  0.999334  0
H  H10  1  0.96408880  0.01771072  0.35878460  1  0.113355  0  0.122446  0.148547  0  0.976834  0
H  H11  1  0.04014445  0.97880873  0.86565979  1  0.106838  0  0.125326  0.15361  0  0.973427  0
H  H12  1  0.80320175  0.18323347  0.25500208  1  0.654898  0  0.324995  0.38861  0  0.904502  0
H  H13  1  0.21163469  0.82070460  0.74912022  1  0.646206  0  0.33747  0.407612  0  0.868194  0
H  H14  1  0.62007611  0.99254634  0.09811961  1  0.662665  0  0.320421  0.369142  0  0.950317  0
H  H15  1  0.49134496  0.96602694  0.66669275  1  0.65781  0  0.315214  0.367664  0  0.966935  0
H  H16  1  0.74020675  0.82685795  0.08226201  1  0.676678  0  0.317197  0.398628  0  0.944406  0
H  H17  1  0.48265714  0.99325868  0.55647170  1  0.651434  0  0.330583  0.391594  0  0.90148  0
H  H18  1  0.81571383  0.08531448  0.43101246  1  0.62161  0  0.343033  0.378235  0  0.85778  0
H  H19  1  0.18181768  0.90558290  0.93819543  1  0.624529  0  0.339554  0.381574  0  0.86976  0
H  H20  1  0.86409617  0.68287939  0.17340418  1  0.662723  0  0.323756  0.392407  0  0.919845  0
H  H21  1  0.09918996  0.32553010  0.67406800  1  0.65175  0  0.325869  0.396947  0  0.907014  0
H  H22  1  0.45342125  0.31762071  0.20192336  1  0.669395  0  0.353966  0.426696  0  0.819071  0
H  H23  1  0.54971545  0.67792079  0.73367847  1  0.689403  0  0.340081  0.425633  0  0.845414  0
H  H24  1  0.87487243  0.31681047  0.12244742  1  0.682658  0  0.333087  0.40408  0  0.901207  0
H  H25  1  0.06498830  0.68264487  0.60722862  1  0.689445  0  0.336775  0.404612  0  0.888091  0
H  H26  1  0.42620323  0.70083349  0.12766294  1  0.665222  0  0.330979  0.389312  0  0.921685  0
H  H27  1  0.54261888  0.30054009  0.63044032  1  0.672485  0  0.336291  0.397103  0  0.909372  0
H  H28  1  0.32891970  0.51414738  0.47972308  1  0.658627  0  0.340449  0.3944  0  0.866411  0
H  H29  1  0.67801767  0.48311636  0.97136542  1  0.652579  0  0.341197  0.385398  0  0.862872  0
H  H30  1  0.68954030  0.49813372  0.22159076  1  0.686121  0  0.316771  0.380056  0  0.938932  0
H  H31  1  0.32239017  0.51381717  0.71493678  1  0.66098  0  0.311698  0.359287  0  0.957808  0
H  H32  1  0.86142813  0.58604135  0.29502324  1  0.652593  0  0.324652  0.382813  0  0.918359  0
H  H33  1  0.36794368  0.34312358  0.83525195  1  0.653183  0  0.337059  0.405897  0  0.865367  0
H  H34  1  0.91847760  0.26803980  0.31707164  1  0.662018  0  0.335255  0.396057  0  0.901656  0
H  H35  1  0.08195855  0.73230633  0.81104584  1  0.66757  0  0.329434  0.389839  0  0.909486  0
H  H36  1  0.74257098  0.28320659  0.42781713  1  0.631848  0  0.348505  0.431699  0  0.874173  0
H  H37  1  0.24831214  0.71146694  0.92582244  1  0.649035  0  0.348124  0.430282  0  0.876648  0
H  H38  1  0.23614442  0.27163953  0.56897839  1  0.663554  0  0.330519  0.417751  0  0.909609  0
H  H39  1  0.74198628  0.65561624  0.07115138  1  0.633353  0  0.339372  0.416471  0  0.893646  0
C  C40  1  0.73236076  0.39475019  0.57125387  1  1.656838  0  0.270488  0.627977  0  4.14155  0
C  C41  1  0.25752929  0.60151757  0.07117818  1  1.660046  0  0.275079  0.647239  0  4.121041  0
C  C42  1  0.74518004  0.22046857  0.57370397  1  1.653183  0  0.273225  0.639025  0  4.094925  0
C  C43  1  0.24857186  0.77802413  0.07163972  1  1.621818  0  0.267079  0.631166  0  4.081366  0
C  C44  1  0.23333129  0.22133892  0.42733615  1  1.568242  0  0.27217  0.667823  0  4.073437  0
C  C45  1  0.75666272  0.77543893  0.92883923  1  1.601165  0  0.27577  0.67611  0  4.074719  0
C  C46  1  0.23867092  0.39959231  0.42647093  1  1.622491  0  0.269547  0.641034  0  4.102555  0
C  C47  1  0.75665580  0.59769906  0.92363166  1  1.59866  0  0.263195  0.643166  0  4.113117  0
C  C48  1  0.05577943  0.44492119  0.13396877  1  -0.173792  0  -0.008282  -0.125048  0  3.909824  0
C  C49  1  0.93878601  0.55337688  0.62960493  1  -0.125174  0  -0.007618  -0.131491  0  3.917117  0
C  C50  1  0.24508590  0.54694761  0.11608223  1  0.025427  0  0.007703  -0.003715  0  3.923181  0
C  C51  1  0.74724684  0.45048309  0.61514685  1  0.051255  0  0.014726  0.008165  0  3.905098  0
C  C52  1  0.41671787  0.50263527  0.39708529  1  0.681532  0  0.123375  0.352616  0  4.006846  0
C  C53  1  0.57474875  0.49658775  0.89157724  1  0.59152  0  0.122667  0.358275  0  4.006623  0
C  C54  1  0.55723206  0.53157030  0.35597692  1  -0.041911  0  -0.013967  -0.270319  0  3.81033  0
C  C55  1  0.42425114  0.47458339  0.85037713  1  -0.044672  0  -0.022322  -0.287965  0  3.828202  0
C  C56  1  0.54098090  0.51360827  0.29592677  1  0.529061  0  0.102853  0.306048  0  4.07252  0
C  C57  1  0.44779105  0.49392080  0.79047573  1  0.664406  0  0.107102  0.310462  0  4.09264  0
C  C58  1  0.35568719  0.48468597  0.27412036  1  0.045697  0  -0.016062  -0.100639  0  3.875801  0
C  C59  1  0.64222238  0.51795972  0.77071338  1  -0.056148  0  -0.014733  -0.100348  0  3.882529  0
C  C60  1  0.22712400  0.44722566  0.31694274  1  0.075675  0  0.012771  0.100694  0  3.918205  0
C  C61  1  0.77448329  0.55280210  0.81373975  1  0.0746  0  0.015177  0.11614  0  3.928563  0
C  C62  1  0.28931203  0.49199287  0.21252525  1  0.021882  0  0.014114  0.071157  0  3.858161  0
C  C63  1  0.70850027  0.50883087  0.70969329  1  0.076079  0  0.019487  0.079187  0  3.852486  0
C  C64  1  0.15598073  0.43933528  0.18988966  1  0.006137  0  -0.003669  0.05456  0  3.985126  0
C  C65  1  0.84459247  0.56031992  0.68625393  1  0.02296  0  0.003215  0.070706  0  3.966787  0
C  C66  1  0.10247789  0.38638117  0.22937822  1  -0.131354  0  -0.02531  -0.192547  0  4.015725  0
C  C67  1  0.90349425  0.61274648  0.72579795  1  -0.17705  0  -0.027393  -0.201918  0  3.999811  0
C  C68  1  0.09055137  0.39847406  0.29064459  1  -0.134229  0  -0.001018  -0.116192  0  3.832614  0
C  C69  1  0.91551414  0.60011499  0.78713656  1  -0.135517  0  -0.000621  -0.122377  0  3.849061  0
C  C70  1  0.33032229  0.54717819  0.17312302  1  -0.149413  0  0.001629  -0.134188  0  3.781875  0
C  C71  1  0.66034623  0.45299287  0.67190701  1  -0.137673  0  0.009574  -0.124927  0  3.752656  0
C  C72  1  0.11023840  0.49629370  0.09650467  1  0.064751  0  -0.06068  -0.075204  0  3.927919  0
C  C73  1  0.88439358  0.50018226  0.59439987  1  0.035302  0  -0.055083  -0.06633  0  3.913283  0
C  C74  1  0.27031351  0.45361079  0.37907295  1  0.033306  0  -0.017473  -0.196441  0  3.81004  0
C  C75  1  0.72769566  0.54488344  0.87549591  1  0.096252  0  -0.033415  -0.239131  0  3.838693  0
C  C76  1  0.25984657  0.83662550  0.11322990  1  0.012375  0  0.013899  0.013354  0  3.865729  0
C  C77  1  0.74246182  0.16348484  0.61719673  1  0.048201  0  0.028844  0.02772  0  3.832781  0
C  C78  1  0.13142891  0.83893881  0.16406934  1  -0.158364  0  -0.015777  -0.12316  0  3.890828  0
C  C79  1  0.86971953  0.16503186  0.66872290  1  -0.140025  0  -0.005288  -0.097433  0  3.842486  0
C  C80  1  0.15257081  0.89111396  0.20427151  1  0.036353  0  -0.055021  -0.108716  0  3.930004  0
C  C81  1  0.85275153  0.11465459  0.71049973  1  0.045097  0  -0.053041  -0.099692  0  3.910749  0
C  C82  1  0.29460899  0.94267204  0.19506069  1  0.421232  0  0.09739  0.087605  0  3.97508  0
C  C83  1  0.71869645  0.06025114  0.70138398  1  0.419312  0  0.090868  0.070625  0  4.028904  0
C  C84  1  0.42450366  0.94308127  0.14434159  1  0.65226  0  0.126598  0.291675  0  4.018408  0
C  C85  1  0.60167971  0.05555457  0.64862757  1  0.579249  0  0.12032  0.284119  0  4.007478  0
C  C86  1  0.40377530  0.88942291  0.10372950  1  -0.107339  0  -0.027463  -0.260279  0  3.890936  0
C  C87  1  0.61375526  0.10771039  0.60723151  1  -0.082701  0  -0.012044  -0.212473  0  3.862175  0
C  C88  1  0.39148868  0.10272094  0.30900664  1  -0.178537  0  -0.022222  -0.181908  0  3.911902  0
C  C89  1  0.61038909  0.89844050  0.81254038  1  -0.178859  0  -0.025079  -0.194288  0  3.927169  0
C  C90  1  0.38413052  0.15620055  0.34715275  1  0.050674  0  -0.07615  -0.064876  0  3.986868  0
C  C91  1  0.61179958  0.84334729  0.84909005  1  0.039221  0  -0.072587  -0.056824  0  3.984988  0
C  C92  1  0.23539255  0.05208667  0.31442928  1  0.41627  0  0.107861  0.202421  0  4.03314  0
C  C93  1  0.76979657  0.94809774  0.81946869  1  0.403147  0  0.108037  0.20172  0  4.026263  0
C  C94  1  0.22478245  0.16304231  0.38775304  1  0.001421  0  -0.02084  -0.148753  0  3.92074  0
C  C95  1  0.76867883  0.83410290  0.88975520  1  0.068787  0  -0.020548  -0.152122  0  3.922206  0
C  C96  1  0.06798763  0.11357850  0.39191074  1  0.566621  0  0.105387  0.335089  0  4.064157  0
C  C97  1  0.92760265  0.88254722  0.89593402  1  0.537584  0  0.108867  0.340817  0  4.059085  0
C  C98  1  0.08050659  0.05751623  0.35643217  1  0.046028  0  -0.084851  -0.270089  0  3.913496  0
C  C99  1  0.92140423  0.93994635  0.86182774  1  0.06362  0  -0.080684  -0.260934  0  3.897759  0
S  S100  1  0.60039245  0.09937657  0.25816972  1  3.017082  0  0.536926  1.164714  0  5.974855  0
S  S101  1  0.39975389  0.90730898  0.76417254  1  3.015226  0  0.547675  1.166166  0  5.9644  0
S  S102  1  0.54883889  0.89652588  0.03592506  1  3.135245  0  0.551385  1.186609  0  5.999459  0
S  S103  1  0.47226475  0.09498062  0.53902924  1  3.099253  0  0.546068  1.167858  0  5.979733  0
S  S104  1  0.91319807  0.78687712  0.18386072  1  3.075645  0  0.561346  1.187873  0  5.923334  0
S  S105  1  0.08570076  0.22109564  0.68373537  1  3.084071  0  0.548162  1.16418  0  5.971301  0
S  S106  1  0.12233425  0.30387613  0.20449367  1  3.029352  0  0.566225  1.172269  0  5.941763  0
S  S107  1  0.87078969  0.69590057  0.70463574  1  3.057212  0  0.558646  1.173264  0  5.948387  0
S  S108  1  0.79601594  0.41740935  0.11667242  1  3.074907  0  0.5614  1.175958  0  5.946359  0
S  S109  1  0.18780513  0.58678549  0.60808797  1  3.098705  0  0.563633  1.180626  0  5.952407  0
S  S110  1  0.47228148  0.62247941  0.19518287  1  3.104821  0  0.560406  1.171318  0  5.939912  0
S  S111  1  0.50069037  0.38104200  0.69515269  1  3.10614  0  0.56801  1.181755  0  5.921098  0
S  S112  1  0.75998264  0.58498232  0.38582243  1  3.147917  0  0.548506  1.202463  0  5.971117  0
S  S113  1  0.21130274  0.42200722  0.87361911  1  3.113018  0  0.545498  1.196425  0  5.974241  0
S  S114  1  0.84663164  0.36794256  0.32079236  1  3.135627  0  0.551045  1.142345  0  5.983426  0
S  S115  1  0.15315801  0.63259438  0.81814287  1  3.109319  0  0.554734  1.15202  0  5.938919  0
N  N116  1  0.30863746  0.99909031  0.23090379  1  -0.423877  0  -0.1182  -0.052469  0  3.287054  0
N  N117  1  0.69740271  0.00532924  0.73821509  1  -0.514853  0  -0.138875  -0.10441  0  3.38941  0
N  N118  1  0.21953028  0.99397764  0.28076790  1  -0.479135  0  -0.130974  -0.11182  0  3.229243  0
N  N119  1  0.79703568  0.00649842  0.78646966  1  -0.438897  0  -0.133606  -0.100225  0  3.216599  0
O  O120  1  0.58096400  0.25068865  0.56626868  1  -1.246621  0  -0.23906  -0.594961  0  2.361297  0
O  O121  1  0.41217115  0.74658931  0.06450169  1  -1.238713  0  -0.246587  -0.602616  0  2.351484  0
O  O122  1  0.89883807  0.36847621  0.56067035  1  -1.238313  0  -0.217244  -0.552382  0  2.346597  0
O  O123  1  0.09063866  0.62700060  0.05947394  1  -1.242929  0  -0.220184  -0.566009  0  2.356011  0
O  O124  1  0.07091757  0.38637089  0.45237532  1  -1.242808  0  -0.220065  -0.548264  0  2.348544  0
O  O125  1  0.92453809  0.61062613  0.94948097  1  -1.243276  0  -0.229193  -0.566076  0  2.366596  0
O  O126  1  0.91442777  0.23509036  0.55029548  1  -1.221757  0  -0.20936  -0.53706  0  2.414917  0
O  O127  1  0.07769416  0.76220551  0.04989937  1  -1.222114  0  -0.208549  -0.525262  0  2.39119  0
O  O128  1  0.06854677  0.24690617  0.44178859  1  -1.247283  0  -0.231054  -0.587259  0  2.417967  0
O  O129  1  0.91885302  0.74841340  0.94290955  1  -1.260765  0  -0.226091  -0.586592  0  2.432846  0
O  O130  1  0.56170116  0.38268774  0.54696260  1  -1.241701  0  -0.222494  -0.557486  0  2.367205  0
O  O131  1  0.42795231  0.61387465  0.04646452  1  -1.254364  0  -0.22617  -0.576519  0  2.377809  0
O  O132  1  0.74074522  0.30727844  0.46526913  1  -1.429302  0  -0.452797  -0.993046  0  2.234889  0
O  O133  1  0.25120298  0.68911087  0.96417587  1  -1.444549  0  -0.450629  -0.990543  0  2.241898  0
O  O134  1  0.41057825  0.24272167  0.44292549  1  -1.256938  0  -0.23565  -0.600869  0  2.400819  0
O  O135  1  0.57930435  0.75534425  0.94541880  1  -1.263068  0  -0.233312  -0.5973  0  2.400693  0
O  O136  1  0.40260451  0.37151129  0.43724754  1  -1.227961  0  -0.22168  -0.563995  0  2.358123  0
O  O137  1  0.59166046  0.62563870  0.93482664  1  -1.238922  0  -0.230518  -0.582307  0  2.35443  0
O  O138  1  0.24215385  0.30514124  0.53725171  1  -1.469793  0  -0.455114  -1.001403  0  2.198743  0
O  O139  1  0.74997688  0.68465415  0.03662024  1  -1.43637  0  -0.450746  -0.984439  0  2.213706  0
O  O140  1  0.69824441  0.03841776  0.26586408  1  -1.283886  0  -0.309942  -0.525021  0  2.162227  0
O  O141  1  0.55287865  0.12511426  0.20014828  1  -1.276386  0  -0.326859  -0.548389  0  2.130864  0
O  O142  1  0.75283383  0.15557644  0.28836972  1  -1.209603  0  -0.37819  -0.558908  0  2.204804  0
O  O143  1  0.29909456  0.96595525  0.77924552  1  -1.278118  0  -0.298804  -0.514792  0  2.163887  0
O  O144  1  0.44372722  0.89341519  0.70162733  1  -1.298479  0  -0.320351  -0.565687  0  2.182001  0
O  O145  1  0.25485411  0.84540025  0.78509991  1  -1.208637  0  -0.36128  -0.539241  0  2.213474  0
O  O146  1  0.55628987  0.99380087  0.13875023  1  -1.124566  0  -0.30683  -0.377548  0  2.359592  0
O  O147  1  0.48232210  0.00201426  0.63619874  1  -1.151756  0  -0.319848  -0.431356  0  2.389185  0
O  O148  1  0.42177304  0.87497287  0.98684755  1  -1.304885  0  -0.292983  -0.530385  0  2.271018  0
O  O149  1  0.63406144  0.96370598  0.03183306  1  -1.300177  0  -0.316593  -0.545656  0  2.150692  0
O  O150  1  0.72907176  0.85085384  0.04167682  1  -1.273119  0  -0.336418  -0.523352  0  2.324879  0
O  O151  1  0.25908161  0.09707368  0.55165350  1  -1.26548  0  -0.300414  -0.501361  0  2.128049  0
O  O152  1  0.56730658  0.13379889  0.49253805  1  -1.288967  0  -0.277105  -0.495212  0  2.27225  0
O  O153  1  0.52739534  0.02156906  0.52230389  1  -1.213924  0  -0.368125  -0.538606  0  2.145645  0
O  O154  1  0.91738627  0.12171834  0.43127872  1  -1.108564  0  -0.319981  -0.396538  0  2.361508  0
O  O155  1  0.07240815  0.87154784  0.93588473  1  -1.10686  0  -0.318752  -0.39496  0  2.388067  0
O  O156  1  0.87188944  0.79518954  0.24615787  1  -1.259453  0  -0.291036  -0.490079  0  2.10318  0
O  O157  1  0.74366912  0.79996575  0.14389216  1  -1.31636  0  -0.31624  -0.577637  0  2.326332  0
O  O158  1  0.98256724  0.71588783  0.17060965  1  -1.246641  0  -0.343686  -0.510896  0  2.324398  0
O  O159  1  0.15060327  0.20838281  0.74379338  1  -1.287219  0  -0.312727  -0.521142  0  2.1113  0
O  O160  1  0.23632396  0.21693912  0.63671897  1  -1.284049  0  -0.304881  -0.554514  0  2.288451  0
O  O161  1  0.98926210  0.29018560  0.67976203  1  -1.23128  0  -0.349005  -0.515543  0  2.296352  0
O  O162  1  0.00310879  0.25760898  0.24051858  1  -1.311217  0  -0.284874  -0.528592  0  2.279003  0
O  O163  1  0.11064021  0.29910121  0.13992503  1  -1.242391  0  -0.285609  -0.512419  0  2.169266  0
O  O164  1  0.34791850  0.29180555  0.22429415  1  -1.19064  0  -0.321584  -0.476545  0  2.198786  0
O  O165  1  0.01581715  0.74231367  0.73213838  1  -1.317548  0  -0.300101  -0.548856  0  2.254707  0
O  O166  1  0.83427486  0.70048173  0.64112708  1  -1.271502  0  -0.284606  -0.50506  0  2.1537  0
O  O167  1  0.66739537  0.70955207  0.73975631  1  -1.227638  0  -0.339691  -0.510909  0  2.193831  0
O  O168  1  0.66998272  0.45170625  0.15841092  1  -1.308548  0  -0.304628  -0.555242  0  2.290538  0
O  O169  1  0.76461402  0.42753284  0.05400389  1  -1.270832  0  -0.284208  -0.501174  0  2.167024  0
O  O170  1  0.75366946  0.34287638  0.13291791  1  -1.248093  0  -0.344289  -0.523756  0  2.242298  0
O  O171  1  0.33209222  0.56355012  0.65107288  1  -1.308195  0  -0.30249  -0.544152  0  2.261024  0
O  O172  1  0.21642047  0.57103047  0.54622785  1  -1.276468  0  -0.281425  -0.507937  0  2.192972  0
O  O173  1  0.19763790  0.66340285  0.61692209  1  -1.263754  0  -0.344361  -0.512424  0  2.22642  0
O  O174  1  0.44409786  0.63214287  0.25771150  1  -1.246812  0  -0.271104  -0.46751  0  2.192937  0
O  O175  1  0.67667452  0.62160518  0.16938222  1  -1.307481  0  -0.30831  -0.561211  0  2.216227  0
O  O176  1  0.35734529  0.67702605  0.16246651  1  -1.256668  0  -0.33371  -0.514555  0  2.391918  0
O  O177  1  0.52194036  0.37209527  0.75848166  1  -1.266021  0  -0.284699  -0.513669  0  2.223809  0
O  O178  1  0.30130992  0.38600018  0.66861395  1  -1.291562  0  -0.291488  -0.52615  0  2.217728  0
O  O179  1  0.60882057  0.32265504  0.66598346  1  -1.255809  0  -0.33279  -0.514142  0  2.380404  0
O  O180  1  0.45158389  0.51678745  0.45483678  1  -1.120029  0  -0.313402  -0.408186  0  2.3269  0
O  O181  1  0.55218582  0.47665001  0.94850945  1  -1.114836  0  -0.309776  -0.392483  0  2.321613  0
O  O182  1  0.70312472  0.52423305  0.25913306  1  -1.193139  0  -0.33385  -0.470515  0  2.433585  0
O  O183  1  0.29233178  0.48869652  0.75221046  1  -1.138469  0  -0.322496  -0.416496  0  2.444615  0
O  O184  1  0.67245491  0.63636793  0.41907648  1  -1.259081  0  -0.299276  -0.491767  0  2.079372  0
O  O185  1  0.90721769  0.54440941  0.41283773  1  -1.27787  0  -0.307326  -0.528424  0  2.159901  0
O  O186  1  0.85340031  0.61905026  0.32723369  1  -1.21693  0  -0.358086  -0.512984  0  2.181395  0
O  O187  1  0.15414352  0.43570084  0.93390810  1  -1.283032  0  -0.307956  -0.510286  0  2.130183  0
O  O188  1  0.06125890  0.41987857  0.82713921  1  -1.266216  0  -0.308814  -0.520568  0  2.168337  0
O  O189  1  0.32146156  0.35376007  0.87600400  1  -1.191018  0  -0.35061  -0.514728  0  2.120248  0
O  O190  1  0.79151678  0.41128850  0.36705150  1  -1.242033  0  -0.243791  -0.427715  0  2.291497  0
O  O191  1  0.71638830  0.35867874  0.26936104  1  -1.308733  0  -0.319547  -0.560978  0  2.260143  0
O  O192  1  0.88112910  0.29836388  0.34951612  1  -1.229101  0  -0.328447  -0.503952  0  2.337297  0
O  O193  1  0.20654202  0.59106914  0.86598333  1  -1.248637  0  -0.242972  -0.428746  0  2.289869  0
O  O194  1  0.29087336  0.64267380  0.76806592  1  -1.315549  0  -0.312168  -0.565561  0  2.266687  0
O  O195  1  0.11213795  0.70304331  0.84517618  1  -1.23422  0  -0.335747  -0.51356  0  2.297463  0
