# generated using pymatgen
data_K2BeH6C8O9
_symmetry_space_group_name_H-M   'P 1'
_cell_length_a   8.06276160
_cell_length_b   12.61498646
_cell_length_c   12.85514762
_cell_angle_alpha   89.99985666
_cell_angle_beta   89.99999765
_cell_angle_gamma   89.99994225
_symmetry_Int_Tables_number   1
_chemical_formula_structural   K2BeH6C8O9
_chemical_formula_sum   'K8 Be4 H24 C32 O36'
_cell_volume   1307.51799708
_cell_formula_units_Z   4
loop_
 _symmetry_equiv_pos_site_id
 _symmetry_equiv_pos_as_xyz
  1  'x, y, z'
loop_
 _atom_site_type_symbol
 _atom_site_label
 _atom_site_symmetry_multiplicity
 _atom_site_fract_x
 _atom_site_fract_y
 _atom_site_fract_z
 _atom_site_occupancy
 _atom_site_hle17_bader_spin_density
 _atom_site_hle17_ddec_charge
 _atom_site_hle17_ddec_spin_density
 _atom_site_hle17_ddec_sum_bond_order
 _atom_site_hle17_magmom
 _atom_site_hse06_10hf_bader_spin_density
 _atom_site_hse06_10hf_ddec_charge
 _atom_site_hse06_10hf_ddec_spin_density
 _atom_site_hse06_10hf_ddec_sum_bond_order
 _atom_site_hse06_10hf_magmom
 _atom_site_hse06_bader_spin_density
 _atom_site_hse06_ddec_charge
 _atom_site_hse06_ddec_spin_density
 _atom_site_hse06_ddec_sum_bond_order
 _atom_site_hse06_magmom
 _atom_site_pbe_bader_spin_density
 _atom_site_pbe_cm5_charge
 _atom_site_pbe_ddec_charge
 _atom_site_pbe_ddec_spin_density
 _atom_site_pbe_ddec_sum_bond_order
 _atom_site_pbe_magmom
K  K0  1  0.94778746  0.85612704  0.94335177  1  0  0.927174  0  0.462596  0  0  0.878445  0  0.647408  0  0  0.895006  0  0.622277  0  0  0.78604  0.866048  0  0.665423  0
K  K1  1  0.55221512  0.14387432  0.94335810  1  0  0.927178  0  0.462584  0  0  0.878444  0  0.6474  0  0  0.89501  0  0.622265  0  0  0.786032  0.866046  0  0.665416  0
K  K2  1  0.55221124  0.35612633  0.55664738  1  0  0.927183  0  0.462589  0  0  0.878448  0  0.64741  0  0  0.895011  0  0.62228  0  0  0.786042  0.86605  0  0.665427  0
K  K3  1  0.94778764  0.64387284  0.55664625  1  0  0.927174  0  0.462601  0  0  0.878445  0  0.647415  0  0  0.895008  0  0.622283  0  0  0.786031  0.866047  0  0.665431  0
K  K4  1  0.05221152  0.14387403  0.05664639  1  0  0.927171  0  0.462581  0  0  0.87844  0  0.647397  0  0  0.895  0  0.62227  0  0  0.786033  0.866042  0  0.665412  0
K  K5  1  0.44778511  0.85612674  0.05664395  1  0  0.92717  0  0.46259  0  0  0.878441  0  0.647399  0  0  0.895005  0  0.622265  0  0  0.786023  0.866042  0  0.665416  0
K  K6  1  0.44778774  0.64387394  0.44335389  1  0  0.927189  0  0.462569  0  0  0.878441  0  0.647405  0  0  0.895005  0  0.622274  0  0  0.786033  0.866043  0  0.665421  0
K  K7  1  0.05221011  0.35612505  0.44335347  1  0  0.927182  0  0.46257  0  0  0.878432  0  0.647406  0  0  0.894996  0  0.622273  0  0  0.786029  0.866033  0  0.665423  0
Be  Be8  1  0.24999993  0.00000054  0.75704692  1  0  1.186494  0  1.546475  0  0  1.052734  0  1.821654  0  0  1.079143  0  1.78409  0  0  0.706841  1.034215  0  1.847709  0
Be  Be9  1  0.25000077  0.50000030  0.74295312  1  0  1.186501  0  1.54645  0  0  1.052749  0  1.82162  0  0  1.079159  0  1.784057  0  0  0.706835  1.034228  0  1.847678  0
Be  Be10  1  0.75000030  0.99999973  0.24295280  1  0  1.186486  0  1.546455  0  0  1.052732  0  1.821654  0  0  1.079143  0  1.784088  0  0  0.706865  1.034213  0  1.847706  0
Be  Be11  1  0.74999945  0.49999997  0.25704815  1  0  1.186415  0  1.546601  0  0  1.052657  0  1.821805  0  0  1.079067  0  1.78424  0  0  0.706849  1.034138  0  1.84786  0
H  H12  1  0.95740011  0.15581129  0.55021751  1  0  0.118671  0  0.968509  0  0  0.12457  0  1.033611  0  0  0.129009  0  1.03112  0  0  0.112088  0.121401  0  1.035516  0
H  H13  1  0.54260125  0.84418790  0.55021745  1  0  0.118586  0  0.968602  0  0  0.124516  0  1.033689  0  0  0.128948  0  1.031192  0  0  0.112086  0.121347  0  1.035591  0
H  H14  1  0.54260014  0.65581303  0.94978136  1  0  0.11865  0  0.968558  0  0  0.124551  0  1.033661  0  0  0.128989  0  1.031171  0  0  0.1121  0.121382  0  1.035566  0
H  H15  1  0.95739995  0.34418752  0.94978173  1  0  0.118666  0  0.96853  0  0  0.12458  0  1.033617  0  0  0.129019  0  1.031127  0  0  0.112106  0.121411  0  1.035523  0
H  H16  1  0.04260011  0.84418819  0.44978143  1  0  0.118672  0  0.968538  0  0  0.124575  0  1.033642  0  0  0.129011  0  1.031148  0  0  0.112104  0.121405  0  1.035546  0
H  H17  1  0.45739526  0.15581078  0.44977993  1  0  0.118602  0  0.968606  0  0  0.124534  0  1.033682  0  0  0.128969  0  1.031188  0  0  0.112089  0.121365  0  1.035586  0
H  H18  1  0.45739512  0.34418961  0.05021992  1  0  0.11865  0  0.968567  0  0  0.124557  0  1.033668  0  0  0.12899  0  1.031173  0  0  0.112112  0.121388  0  1.035572  0
H  H19  1  0.04260523  0.65581117  0.05021954  1  0  0.118608  0  0.9686  0  0  0.124534  0  1.033682  0  0  0.12897  0  1.031186  0  0  0.112089  0.121364  0  1.035587  0
H  H20  1  0.78459335  0.10908103  0.68916969  1  0  0.127406  0  0.927179  0  0  0.139578  0  0.979858  0  0  0.142986  0  0.978619  0  0  0.122755  0.13718  0  0.980839  0
H  H21  1  0.71540800  0.89091860  0.68917029  1  0  0.127427  0  0.927129  0  0  0.139604  0  0.979806  0  0  0.143012  0  0.978568  0  0  0.122782  0.137208  0  0.980787  0
H  H22  1  0.71540822  0.60908064  0.81083007  1  0  0.127411  0  0.927149  0  0  0.139587  0  0.979826  0  0  0.142995  0  0.978588  0  0  0.122764  0.13719  0  0.980807  0
H  H23  1  0.78459313  0.39091867  0.81083034  1  0  0.127415  0  0.927172  0  0  0.139591  0  0.979846  0  0  0.142999  0  0.978608  0  0  0.12276  0.137195  0  0.980827  0
H  H24  1  0.21540811  0.89091924  0.31083003  1  0  0.12741  0  0.927163  0  0  0.139583  0  0.979844  0  0  0.142991  0  0.978605  0  0  0.122757  0.137186  0  0.980824  0
H  H25  1  0.28458974  0.10908009  0.31082710  1  0  0.1274  0  0.927115  0  0  0.139578  0  0.979793  0  0  0.142986  0  0.978555  0  0  0.122787  0.137182  0  0.980774  0
H  H26  1  0.28459076  0.39092121  0.18917354  1  0  0.127434  0  0.927125  0  0  0.139607  0  0.979807  0  0  0.143015  0  0.978567  0  0  0.122779  0.13721  0  0.980788  0
H  H27  1  0.21540958  0.60907922  0.18917249  1  0  0.127401  0  0.927104  0  0  0.139568  0  0.979793  0  0  0.142977  0  0.978552  0  0  0.122755  0.13717  0  0.980773  0
H  H28  1  0.03935939  0.69537668  0.77791631  1  0  0.407659  0  0.900105  0  0  0.376716  0  0.965126  0  0  0.387588  0  0.949037  0  0  0.284929  0.368984  0  0.976569  0
H  H29  1  0.46064091  0.30462305  0.77791601  1  0  0.407663  0  0.900099  0  0  0.376716  0  0.965127  0  0  0.387589  0  0.949037  0  0  0.284929  0.368984  0  0.976571  0
H  H30  1  0.46064100  0.19537607  0.72208403  1  0  0.407689  0  0.900067  0  0  0.3767  0  0.965146  0  0  0.387573  0  0.949055  0  0  0.284915  0.368969  0  0.976587  0
H  H31  1  0.03935931  0.80462379  0.72208407  1  0  0.407684  0  0.900073  0  0  0.3767  0  0.965144  0  0  0.387573  0  0.949052  0  0  0.284913  0.36897  0  0.976584  0
H  H32  1  0.96064083  0.30462280  0.22208419  1  0  0.407607  0  0.900158  0  0  0.376661  0  0.965188  0  0  0.387534  0  0.949097  0  0  0.284889  0.368929  0  0.976632  0
H  H33  1  0.53936055  0.69537643  0.22208371  1  0  0.40769  0  0.900063  0  0  0.3767  0  0.965145  0  0  0.387575  0  0.949052  0  0  0.2849  0.368969  0  0.976588  0
H  H34  1  0.53935922  0.80462340  0.27791569  1  0  0.407583  0  0.90019  0  0  0.376631  0  0.965229  0  0  0.387504  0  0.949139  0  0  0.284876  0.368899  0  0.976673  0
H  H35  1  0.96064092  0.19537569  0.27791643  1  0  0.407642  0  0.900114  0  0  0.376653  0  0.965195  0  0  0.387526  0  0.949104  0  0  0.284876  0.368921  0  0.976639  0
C  C36  1  0.19993384  0.15454628  0.62371804  1  0  0.725159  0  3.851568  0  0  0.680364  0  4.138103  0  0  0.713722  0  4.128339  0  0  0.226157  0.657714  0  4.144141  0
C  C37  1  0.30006524  0.84545384  0.62371875  1  0  0.725207  0  3.851338  0  0  0.680488  0  4.137783  0  0  0.713847  0  4.128014  0  0  0.226194  0.657839  0  4.143823  0
C  C38  1  0.30006662  0.65454725  0.87628084  1  0  0.725114  0  3.851439  0  0  0.680345  0  4.137961  0  0  0.713703  0  4.128194  0  0  0.226119  0.657695  0  4.144003  0
C  C39  1  0.19993368  0.34545222  0.87628123  1  0  0.725178  0  3.851589  0  0  0.680391  0  4.138131  0  0  0.71375  0  4.128368  0  0  0.22617  0.65774  0  4.144172  0
C  C40  1  0.80006763  0.84545400  0.37628090  1  0  0.725105  0  3.851455  0  0  0.68031  0  4.138009  0  0  0.713672  0  4.128241  0  0  0.226118  0.657661  0  4.144047  0
C  C41  1  0.69993003  0.15454484  0.37628097  1  0  0.725348  0  3.8513  0  0  0.680503  0  4.137931  0  0  0.713864  0  4.128161  0  0  0.226229  0.657854  0  4.14397  0
C  C42  1  0.69993112  0.34545540  0.12371965  1  0  0.725348  0  3.851251  0  0  0.680529  0  4.137846  0  0  0.713889  0  4.128075  0  0  0.226208  0.65788  0  4.143888  0
C  C43  1  0.80006903  0.65454408  0.12371850  1  0  0.72526  0  3.851393  0  0  0.680445  0  4.137982  0  0  0.713806  0  4.128212  0  0  0.226166  0.657796  0  4.144024  0
C  C44  1  0.01787340  0.13334060  0.62302263  1  0  -0.180357  0  3.648133  0  0  -0.198706  0  3.902057  0  0  -0.203789  0  3.915772  0  0  -0.075613  -0.195436  0  3.892995  0
C  C45  1  0.48212567  0.86666348  0.62302250  1  0  -0.180267  0  3.648255  0  0  -0.198683  0  3.902206  0  0  -0.203751  0  3.915909  0  0  -0.075615  -0.195415  0  3.89315  0
C  C46  1  0.48212709  0.63334146  0.87697631  1  0  -0.180282  0  3.648224  0  0  -0.198642  0  3.902149  0  0  -0.203722  0  3.915863  0  0  -0.075582  -0.195371  0  3.893091  0
C  C47  1  0.01787321  0.36665880  0.87697664  1  0  -0.180346  0  3.648159  0  0  -0.198717  0  3.902097  0  0  -0.203797  0  3.915811  0  0  -0.075632  -0.195445  0  3.893036  0
C  C48  1  0.98212806  0.86665967  0.37697631  1  0  -0.180327  0  3.648253  0  0  -0.198682  0  3.902192  0  0  -0.203757  0  3.915899  0  0  -0.075611  -0.195412  0  3.893133  0
C  C49  1  0.51787083  0.13333600  0.37697644  1  0  -0.180351  0  3.648237  0  0  -0.198731  0  3.902216  0  0  -0.203803  0  3.91592  0  0  -0.075632  -0.195459  0  3.893159  0
C  C50  1  0.51787314  0.36666436  0.12302419  1  0  -0.180387  0  3.648262  0  0  -0.198738  0  3.902213  0  0  -0.203805  0  3.915912  0  0  -0.075644  -0.195468  0  3.893156  0
C  C51  1  0.98212825  0.63333592  0.12302386  1  0  -0.180356  0  3.648284  0  0  -0.198732  0  3.902227  0  0  -0.203804  0  3.915931  0  0  -0.075659  -0.195464  0  3.893168  0
C  C52  1  0.91827584  0.10518719  0.70239164  1  0  -0.15917  0  3.630059  0  0  -0.17537  0  3.882413  0  0  -0.180152  0  3.896835  0  0  -0.064254  -0.17233  0  3.872862  0
C  C53  1  0.58172180  0.89481240  0.70238989  1  0  -0.159232  0  3.630193  0  0  -0.175456  0  3.882566  0  0  -0.180238  0  3.896987  0  0  -0.064326  -0.172419  0  3.873016  0
C  C54  1  0.58172326  0.60518771  0.79760814  1  0  -0.159217  0  3.630104  0  0  -0.175417  0  3.882476  0  0  -0.180199  0  3.896898  0  0  -0.06428  -0.172377  0  3.872926  0
C  C55  1  0.91827685  0.39481243  0.79760839  1  0  -0.159235  0  3.630151  0  0  -0.175432  0  3.882516  0  0  -0.180216  0  3.896939  0  0  -0.064304  -0.172392  0  3.872968  0
C  C56  1  0.08172439  0.89481308  0.29760808  1  0  -0.159219  0  3.63012  0  0  -0.175425  0  3.882477  0  0  -0.180205  0  3.896899  0  0  -0.064291  -0.172386  0  3.872925  0
C  C57  1  0.41827719  0.10518787  0.29760905  1  0  -0.159123  0  3.63007  0  0  -0.175324  0  3.882445  0  0  -0.180108  0  3.896864  0  0  -0.064309  -0.172289  0  3.872898  0
C  C58  1  0.41827820  0.39481335  0.20239081  1  0  -0.159235  0  3.630168  0  0  -0.175429  0  3.882533  0  0  -0.180212  0  3.89695  0  0  -0.064297  -0.172389  0  3.872984  0
C  C59  1  0.08172090  0.60518705  0.20239055  1  0  -0.159122  0  3.630059  0  0  -0.17531  0  3.882409  0  0  -0.180094  0  3.896828  0  0  -0.064211  -0.172264  0  3.872853  0
C  C60  1  0.96108873  0.07800746  0.81203102  1  0  0.713376  0  3.893281  0  0  0.666837  0  4.188416  0  0  0.699699  0  4.179321  0  0  0.207028  0.64457  0  4.193972  0
C  C61  1  0.53891138  0.92199503  0.81202999  1  0  0.713326  0  3.893241  0  0  0.66686  0  4.188279  0  0  0.699714  0  4.179197  0  0  0.207035  0.644593  0  4.193837  0
C  C62  1  0.53891041  0.57800750  0.68796882  1  0  0.713396  0  3.893239  0  0  0.666842  0  4.188396  0  0  0.699703  0  4.179302  0  0  0.20701  0.644574  0  4.193956  0
C  C63  1  0.96108846  0.42199213  0.68796901  1  0  0.713454  0  3.893171  0  0  0.666921  0  4.188298  0  0  0.699782  0  4.179204  0  0  0.207145  0.644654  0  4.193859  0
C  C64  1  0.03891149  0.92199360  0.18796793  1  0  0.713356  0  3.893172  0  0  0.666842  0  4.188293  0  0  0.699694  0  4.17921  0  0  0.207105  0.644574  0  4.193849  0
C  C65  1  0.46109009  0.07800524  0.18797051  1  0  0.713356  0  3.893325  0  0  0.666838  0  4.188446  0  0  0.6997  0  4.179355  0  0  0.207088  0.644571  0  4.194003  0
C  C66  1  0.46109229  0.42199594  0.31203012  1  0  0.713357  0  3.893094  0  0  0.666802  0  4.18827  0  0  0.699663  0  4.179174  0  0  0.20704  0.644533  0  4.193829  0
C  C67  1  0.03891052  0.57800417  0.31203149  1  0  0.71333  0  3.893309  0  0  0.666804  0  4.188435  0  0  0.699667  0  4.179335  0  0  0.206983  0.644534  0  4.193994  0
O  O68  1  0.29846711  0.10211250  0.68524910  1  0  -0.735129  0  2.112224  0  0  -0.651717  0  2.338208  0  0  -0.678101  0  2.32523  0  0  -0.350842  -0.633347  0  2.346696  0
O  O69  1  0.20153320  0.89788825  0.68525123  1  0  -0.735135  0  2.112156  0  0  -0.651762  0  2.338126  0  0  -0.678151  0  2.325148  0  0  -0.35083  -0.633397  0  2.34662  0
O  O70  1  0.20153343  0.60211211  0.81474992  1  0  -0.735106  0  2.112069  0  0  -0.651745  0  2.338082  0  0  -0.678132  0  2.325102  0  0  -0.350837  -0.633375  0  2.346573  0
O  O71  1  0.29846688  0.39788752  0.81475094  1  0  -0.735124  0  2.112249  0  0  -0.651736  0  2.338249  0  0  -0.678124  0  2.325272  0  0  -0.350835  -0.633364  0  2.346738  0
O  O72  1  0.70153311  0.89788857  0.31474906  1  0  -0.735098  0  2.112101  0  0  -0.651713  0  2.338112  0  0  -0.678109  0  2.325138  0  0  -0.350854  -0.633345  0  2.346601  0
O  O73  1  0.79846579  0.10211281  0.31474926  1  0  -0.73521  0  2.112218  0  0  -0.651779  0  2.338226  0  0  -0.678168  0  2.325248  0  0  -0.35088  -0.633411  0  2.346716  0
O  O74  1  0.79846556  0.39788737  0.18525136  1  0  -0.735154  0  2.112216  0  0  -0.651769  0  2.338243  0  0  -0.678157  0  2.325266  0  0  -0.350871  -0.6334  0  2.346735  0
O  O75  1  0.70153459  0.60211196  0.18525033  1  0  -0.735136  0  2.112204  0  0  -0.651735  0  2.338211  0  0  -0.678121  0  2.325234  0  0  -0.350847  -0.633368  0  2.346703  0
O  O76  1  0.09818219  0.02837072  0.83366834  1  0  -0.758788  0  2.099801  0  0  -0.688538  0  2.346221  0  0  -0.71202  0  2.330417  0  0  -0.414461  -0.672124  0  2.356557  0
O  O77  1  0.40181935  0.97163045  0.83366795  1  0  -0.758733  0  2.099794  0  0  -0.688505  0  2.346177  0  0  -0.71199  0  2.330387  0  0  -0.414428  -0.672091  0  2.356512  0
O  O78  1  0.40181846  0.52836978  0.66633242  1  0  -0.758747  0  2.099738  0  0  -0.688464  0  2.346134  0  0  -0.711951  0  2.33034  0  0  -0.414435  -0.67205  0  2.356472  0
O  O79  1  0.09818185  0.47162943  0.66633171  1  0  -0.758838  0  2.099782  0  0  -0.688613  0  2.346226  0  0  -0.71209  0  2.330409  0  0  -0.414497  -0.672199  0  2.356565  0
O  O80  1  0.90182051  0.97163272  0.16633138  1  0  -0.758756  0  2.09978  0  0  -0.688529  0  2.346186  0  0  -0.712017  0  2.330405  0  0  -0.414508  -0.672114  0  2.35652  0
O  O81  1  0.59818211  0.02836982  0.16633177  1  0  -0.758698  0  2.099784  0  0  -0.688463  0  2.346204  0  0  -0.711941  0  2.330392  0  0  -0.414447  -0.67205  0  2.356538  0
O  O82  1  0.59818052  0.47163287  0.33366886  1  0  -0.758673  0  2.09974  0  0  -0.688411  0  2.34614  0  0  -0.711903  0  2.330364  0  0  -0.414453  -0.671998  0  2.356478  0
O  O83  1  0.90181962  0.52836687  0.33366879  1  0  -0.758754  0  2.099826  0  0  -0.688495  0  2.346202  0  0  -0.711991  0  2.330432  0  0  -0.414479  -0.672081  0  2.35654  0
O  O84  1  0.25178698  0.22607316  0.56442420  1  0  -0.654541  0  1.890225  0  0  -0.612615  0  2.114467  0  0  -0.63546  0  2.104679  0  0  -0.392227  -0.59652  0  2.120731  0
O  O85  1  0.24821458  0.77392790  0.56442586  1  0  -0.654557  0  1.890172  0  0  -0.612652  0  2.114384  0  0  -0.635499  0  2.104599  0  0  -0.392229  -0.596557  0  2.120648  0
O  O86  1  0.24821336  0.72607323  0.93557374  1  0  -0.654512  0  1.890247  0  0  -0.612595  0  2.114491  0  0  -0.635437  0  2.104699  0  0  -0.392204  -0.596499  0  2.120755  0
O  O87  1  0.25178694  0.27392609  0.93557507  1  0  -0.654533  0  1.890275  0  0  -0.612605  0  2.114516  0  0  -0.63545  0  2.104732  0  0  -0.392215  -0.59651  0  2.12078  0
O  O88  1  0.74821448  0.77392711  0.43557397  1  0  -0.6545  0  1.890218  0  0  -0.612571  0  2.114466  0  0  -0.635414  0  2.104675  0  0  -0.392185  -0.596476  0  2.120729  0
O  O89  1  0.75178069  0.22607237  0.43557386  1  0  -0.654597  0  1.890063  0  0  -0.612645  0  2.114331  0  0  -0.635491  0  2.104544  0  0  -0.392221  -0.596549  0  2.120594  0
O  O90  1  0.75178066  0.27392783  0.06442598  1  0  -0.654596  0  1.89004  0  0  -0.612653  0  2.114301  0  0  -0.635501  0  2.104514  0  0  -0.39222  -0.596558  0  2.120566  0
O  O91  1  0.74821949  0.72607338  0.06442621  1  0  -0.654561  0  1.890151  0  0  -0.612618  0  2.114394  0  0  -0.635465  0  2.104608  0  0  -0.392186  -0.596523  0  2.120658  0
O  O92  1  0.85882846  0.10083660  0.88165135  1  0  -0.681256  0  1.946404  0  0  -0.642679  0  2.185864  0  0  -0.665999  0  2.17686  0  0  -0.445626  -0.62629  0  2.191591  0
O  O93  1  0.64117288  0.89916650  0.88165193  1  0  -0.681279  0  1.946381  0  0  -0.642728  0  2.185814  0  0  -0.666047  0  2.176816  0  0  -0.445671  -0.626338  0  2.19154  0
O  O94  1  0.64117188  0.60083675  0.61834766  1  0  -0.681318  0  1.94643  0  0  -0.642745  0  2.185919  0  0  -0.666066  0  2.176917  0  0  -0.445651  -0.626356  0  2.191647  0
O  O95  1  0.85882948  0.39916385  0.61834868  1  0  -0.681282  0  1.946306  0  0  -0.642708  0  2.185791  0  0  -0.666027  0  2.176785  0  0  -0.44568  -0.62632  0  2.191521  0
O  O96  1  0.14117176  0.89916288  0.11834759  1  0  -0.681266  0  1.946364  0  0  -0.642687  0  2.185808  0  0  -0.666003  0  2.176808  0  0  -0.445656  -0.626298  0  2.191535  0
O  O97  1  0.35882734  0.10083377  0.11834701  1  0  -0.681347  0  1.946448  0  0  -0.642791  0  2.185941  0  0  -0.666115  0  2.176942  0  0  -0.445701  -0.626401  0  2.191667  0
O  O98  1  0.35882958  0.39916669  0.38165362  1  0  -0.681338  0  1.946364  0  0  -0.64275  0  2.185832  0  0  -0.666072  0  2.176833  0  0  -0.445662  -0.626359  0  2.191558  0
O  O99  1  0.14116951  0.60083483  0.38165415  1  0  -0.681294  0  1.946507  0  0  -0.642712  0  2.185948  0  0  -0.666033  0  2.176945  0  0  -0.445607  -0.626322  0  2.191676  0
O  O100  1  0.96338270  0.75000033  0.74999979  1  0  -0.886923  0  1.760133  0  0  -0.846439  0  1.921566  0  0  -0.864057  0  1.889504  0  0  -0.69876  -0.833847  0  1.944131  0
O  O101  1  0.53661741  0.24999993  0.74999963  1  0  -0.88693  0  1.760114  0  0  -0.846449  0  1.921563  0  0  -0.864066  0  1.889499  0  0  -0.698758  -0.833857  0  1.944129  0
O  O102  1  0.03661752  0.24999994  0.24999993  1  0  -0.886828  0  1.760174  0  0  -0.846339  0  1.92161  0  0  -0.863954  0  1.889547  0  0  -0.698676  -0.833746  0  1.944176  0
O  O103  1  0.46338282  0.75000034  0.24999931  1  0  -0.886853  0  1.760162  0  0  -0.84637  0  1.921616  0  0  -0.863985  0  1.889549  0  0  -0.698686  -0.833777  0  1.944181  0
