# generated using pymatgen
data_ZnH30(C4O)4
_symmetry_space_group_name_H-M   'P 1'
_cell_length_a   4.67891761
_cell_length_b   9.22427984
_cell_length_c   21.02569468
_cell_angle_alpha   101.16179141
_cell_angle_beta   90.00000859
_cell_angle_gamma   90.00001604
_symmetry_Int_Tables_number   1
_chemical_formula_structural   ZnH30(C4O)4
_chemical_formula_sum   'Zn2 H60 C32 O8'
_cell_volume   890.29640706
_cell_formula_units_Z   2
loop_
 _symmetry_equiv_pos_site_id
 _symmetry_equiv_pos_as_xyz
  1  'x, y, z'
loop_
 _atom_site_type_symbol
 _atom_site_label
 _atom_site_symmetry_multiplicity
 _atom_site_fract_x
 _atom_site_fract_y
 _atom_site_fract_z
 _atom_site_occupancy
 _atom_site_hle17_bader_spin_density
 _atom_site_hle17_ddec_charge
 _atom_site_hle17_ddec_spin_density
 _atom_site_hle17_ddec_sum_bond_order
 _atom_site_hle17_magmom
 _atom_site_hse06_10hf_bader_spin_density
 _atom_site_hse06_10hf_ddec_charge
 _atom_site_hse06_10hf_ddec_spin_density
 _atom_site_hse06_10hf_ddec_sum_bond_order
 _atom_site_hse06_10hf_magmom
 _atom_site_hse06_bader_spin_density
 _atom_site_hse06_ddec_charge
 _atom_site_hse06_ddec_spin_density
 _atom_site_hse06_ddec_sum_bond_order
 _atom_site_hse06_magmom
 _atom_site_pbe_bader_spin_density
 _atom_site_pbe_cm5_charge
 _atom_site_pbe_ddec_charge
 _atom_site_pbe_ddec_spin_density
 _atom_site_pbe_ddec_sum_bond_order
 _atom_site_pbe_magmom
Zn  Zn0  1  0.06325856  0.00278911  0.99919918  1  0  1.164289  0  1.743617  0  0  0.991749  0  2.225367  0  0  1.042118  0  2.160954  0  0  0.697571  0.955774  0  2.270237  0
Zn  Zn1  1  0.93674063  0.50278989  0.99919819  1  0  1.164183  0  1.743839  0  0  0.991633  0  2.225605  0  0  1.042001  0  2.161194  0  0  0.697503  0.955656  0  2.270469  0
H  H2  1  0.30624013  0.71666521  0.90766468  1  0  0.117317  0  0.926995  0  0  0.132643  0  0.986671  0  0  0.134875  0  0.986074  0  0  0.10505  0.131137  0  0.986978  0
H  H3  1  0.69376125  0.21666564  0.90766485  1  0  0.117315  0  0.927015  0  0  0.132647  0  0.98669  0  0  0.13488  0  0.986092  0  0  0.105058  0.131141  0  0.986999  0
H  H4  1  0.27844740  0.83962430  0.85499485  1  0  0.114228  0  0.940074  0  0  0.129028  0  1.002719  0  0  0.131323  0  1.001878  0  0  0.105181  0.127337  0  1.003595  0
H  H5  1  0.72155402  0.33962474  0.85499502  1  0  0.114203  0  0.939981  0  0  0.129006  0  1.002639  0  0  0.1313  0  1.001798  0  0  0.105172  0.127314  0  1.003517  0
H  H6  1  0.77181358  0.61850535  0.85609382  1  0  0.064894  0  0.930841  0  0  0.085913  0  0.988699  0  0  0.086363  0  0.989722  0  0  0.08896  0.085645  0  0.988021  0
H  H7  1  0.22818558  0.11850570  0.85609349  1  0  0.064853  0  0.930847  0  0  0.085868  0  0.988713  0  0  0.086317  0  0.989733  0  0  0.088927  0.085601  0  0.988035  0
H  H8  1  0.76478847  0.75039441  0.80605743  1  0  0.056957  0  0.945679  0  0  0.074491  0  1.012744  0  0  0.075654  0  1.012187  0  0  0.086297  0.07349  0  1.013635  0
H  H9  1  0.23521072  0.25039366  0.80605796  1  0  0.056926  0  0.945761  0  0  0.074478  0  1.012791  0  0  0.075638  0  1.012233  0  0  0.086299  0.073478  0  1.013681  0
H  H10  1  0.30552195  0.64227015  0.75549295  1  0  0.053518  0  0.945799  0  0  0.07436  0  1.008204  0  0  0.074708  0  1.009121  0  0  0.084697  0.0741  0  1.00772  0
H  H11  1  0.69447929  0.14227058  0.75549312  1  0  0.053531  0  0.945775  0  0  0.074379  0  1.008177  0  0  0.074727  0  1.009093  0  0  0.084704  0.07412  0  1.007693  0
H  H12  1  0.31178620  0.50853938  0.80459942  1  0  0.063081  0  0.94461  0  0  0.082655  0  1.006404  0  0  0.083084  0  1.007588  0  0  0.085971  0.082236  0  1.005856  0
H  H13  1  0.68821714  0.00853981  0.80460006  1  0  0.063064  0  0.944601  0  0  0.082649  0  1.006385  0  0  0.083078  0  1.00757  0  0  0.085951  0.08223  0  1.005837  0
H  H14  1  0.77682535  0.54746929  0.70594870  1  0  0.049355  0  0.945938  0  0  0.068032  0  1.013013  0  0  0.068811  0  1.01303  0  0  0.083135  0.06739  0  1.013354  0
H  H15  1  0.22317366  0.04746854  0.70594923  1  0  0.049382  0  0.945919  0  0  0.068046  0  1.013014  0  0  0.068824  0  1.013032  0  0  0.083148  0.067404  0  1.013356  0
H  H16  1  0.77776358  0.41028414  0.75346224  1  0  0.052951  0  0.943111  0  0  0.072986  0  1.007125  0  0  0.073629  0  1.00741  0  0  0.084329  0.07248  0  1.007215  0
H  H17  1  0.22223780  0.91028370  0.75346207  1  0  0.052913  0  0.94314  0  0  0.072969  0  1.007133  0  0  0.073611  0  1.007418  0  0  0.084313  0.072462  0  1.007224  0
H  H18  1  0.31131166  0.44612190  0.65463692  1  0  0.054256  0  0.940009  0  0  0.075401  0  0.999741  0  0  0.075596  0  1.000868  0  0  0.085568  0.075143  0  0.999162  0
H  H19  1  0.68868968  0.94612264  0.65463734  1  0  0.054263  0  0.939967  0  0  0.075409  0  0.9997  0  0  0.075603  0  1.000827  0  0  0.085577  0.075152  0  0.999124  0
H  H20  1  0.32036501  0.30602249  0.70067507  1  0  0.054602  0  0.947397  0  0  0.075072  0  1.009698  0  0  0.075414  0  1.010646  0  0  0.084999  0.074753  0  1.009295  0
H  H21  1  0.67963628  0.80602322  0.70067549  1  0  0.054618  0  0.947393  0  0  0.075094  0  1.009693  0  0  0.075434  0  1.010641  0  0  0.085009  0.074775  0  1.009289  0
H  H22  1  0.77531637  0.35463192  0.60157766  1  0  0.046091  0  0.949081  0  0  0.065505  0  1.012793  0  0  0.065857  0  1.013572  0  0  0.082854  0.06515  0  1.012519  0
H  H23  1  0.22468274  0.85463258  0.60157805  1  0  0.046073  0  0.949069  0  0  0.065499  0  1.01279  0  0  0.065851  0  1.013569  0  0  0.082852  0.065143  0  1.012519  0
H  H24  1  0.78608807  0.21376599  0.64710508  1  0  0.046145  0  0.943859  0  0  0.065533  0  1.007579  0  0  0.066173  0  1.007776  0  0  0.081904  0.064983  0  1.007781  0
H  H25  1  0.21391100  0.71376665  0.64710547  1  0  0.046144  0  0.943864  0  0  0.065546  0  1.007593  0  0  0.066184  0  1.00779  0  0  0.081914  0.064995  0  1.007795  0
H  H26  1  0.33409246  0.10334076  0.59409795  1  0  0.08797  0  0.967053  0  0  0.11012  0  1.030014  0  0  0.111032  0  1.030884  0  0  0.082819  0.109175  0  1.02987  0
H  H27  1  0.66590651  0.60334150  0.59409789  1  0  0.087997  0  0.967029  0  0  0.110144  0  1.029993  0  0  0.111056  0  1.030862  0  0  0.082823  0.109197  0  1.02985  0
H  H28  1  0.58913219  0.12173196  0.53381190  1  0  0.08408  0  0.973453  0  0  0.104217  0  1.038782  0  0  0.105489  0  1.038912  0  0  0.080975  0.103366  0  1.038575  0
H  H29  1  0.41086674  0.62173265  0.53381230  1  0  0.084053  0  0.973493  0  0  0.104212  0  1.038793  0  0  0.105485  0  1.038921  0  0  0.080963  0.103361  0  1.038584  0
H  H30  1  0.30411546  0.25020806  0.55106286  1  0  0.089105  0  0.96348  0  0  0.112644  0  1.024204  0  0  0.113431  0  1.025338  0  0  0.084138  0.112151  0  1.023248  0
H  H31  1  0.69588356  0.75020880  0.55106281  1  0  0.089099  0  0.963478  0  0  0.112636  0  1.024205  0  0  0.113422  0  1.025339  0  0  0.084127  0.112141  0  1.023251  0
H  H32  1  0.85278079  0.66324687  0.13873292  1  0  0.112015  0  0.943613  0  0  0.124841  0  1.008829  0  0  0.127518  0  1.007254  0  0  0.103403  0.122648  0  1.010629  0
H  H33  1  0.14722004  0.16324721  0.13873212  1  0  0.111936  0  0.943641  0  0  0.12477  0  1.008853  0  0  0.127447  0  1.007285  0  0  0.103378  0.122577  0  1.010654  0
H  H34  1  0.53487392  0.67872827  0.09681521  1  0  0.119122  0  0.917386  0  0  0.136418  0  0.973241  0  0  0.138649  0  0.972605  0  0  0.107315  0.134851  0  0.973676  0
H  H35  1  0.46512689  0.17872755  0.09681480  1  0  0.119087  0  0.917415  0  0  0.136386  0  0.973271  0  0  0.138618  0  0.972639  0  0  0.107304  0.134818  0  0.973705  0
H  H36  1  0.78631466  0.92830697  0.20072133  1  0  0.058306  0  0.936637  0  0  0.078083  0  0.998113  0  0  0.078814  0  0.998423  0  0  0.087285  0.077455  0  0.998207  0
H  H37  1  0.21368422  0.42830732  0.20072100  1  0  0.058276  0  0.936622  0  0  0.078045  0  0.998118  0  0  0.078777  0  0.998429  0  0  0.087261  0.077418  0  0.998211  0
H  H38  1  0.45715519  0.93568342  0.16107912  1  0  0.065856  0  0.932899  0  0  0.08587  0  0.9926  0  0  0.086179  0  0.994025  0  0  0.089186  0.085391  0  0.992278  0
H  H39  1  0.54284581  0.43568383  0.16107880  1  0  0.065849  0  0.932902  0  0  0.085865  0  0.992608  0  0  0.086175  0  0.994032  0  0  0.08918  0.085384  0  0.992287  0
H  H40  1  0.27398885  0.72470068  0.20948116  1  0  0.058727  0  0.934421  0  0  0.080885  0  0.991352  0  0  0.081052  0  0.992708  0  0  0.08654  0.080616  0  0.990709  0
H  H41  1  0.72600992  0.22470001  0.20948123  1  0  0.058712  0  0.934413  0  0  0.08088  0  0.991351  0  0  0.081046  0  0.992707  0  0  0.086522  0.080611  0  0.990709  0
H  H42  1  0.60706803  0.71104588  0.24649415  1  0  0.051616  0  0.94733  0  0  0.07037  0  1.012341  0  0  0.070694  0  1.013204  0  0  0.083696  0.0695  0  1.013008  0
H  H43  1  0.39293504  0.21104736  0.24649392  1  0  0.051618  0  0.947338  0  0  0.07039  0  1.012347  0  0  0.070715  0  1.013208  0  0  0.083705  0.069522  0  1.013009  0
H  H44  1  0.55262818  0.97218768  0.30915284  1  0  0.054556  0  0.939244  0  0  0.075474  0  1.000043  0  0  0.075811  0  1.001098  0  0  0.085514  0.075156  0  0.999452  0
H  H45  1  0.44737080  0.47219028  0.30915271  1  0  0.054572  0  0.939253  0  0  0.075495  0  1.000055  0  0  0.075832  0  1.00111  0  0  0.085525  0.075177  0  0.999462  0
H  H46  1  0.21260082  0.98189729  0.27426843  1  0  0.050582  0  0.942876  0  0  0.068576  0  1.009214  0  0  0.069572  0  1.008807  0  0  0.0831  0.067525  0  1.010329  0
H  H47  1  0.78740028  0.48189774  0.27426813  1  0  0.050598  0  0.942839  0  0  0.068611  0  1.009173  0  0  0.069608  0  1.008766  0  0  0.083105  0.067558  0  1.010288  0
H  H48  1  0.38675003  0.75799669  0.35809090  1  0  0.05163  0  0.940428  0  0  0.071239  0  1.003756  0  0  0.071904  0  1.004085  0  0  0.083632  0.070643  0  1.003724  0
H  H49  1  0.61324886  0.25799821  0.35809069  1  0  0.05165  0  0.940402  0  0  0.071258  0  1.003725  0  0  0.071924  0  1.004054  0  0  0.08364  0.070662  0  1.003696  0
H  H50  1  0.04461962  0.77090639  0.32448470  1  0  0.054286  0  0.935985  0  0  0.075889  0  0.995104  0  0  0.076374  0  0.995888  0  0  0.084814  0.075465  0  0.994668  0
H  H51  1  0.95538140  0.27090576  0.32448479  1  0  0.05429  0  0.935963  0  0  0.075883  0  0.995096  0  0  0.076369  0  0.995878  0  0  0.084811  0.075459  0  0.994662  0
H  H52  1  0.33825145  0.01882417  0.42111629  1  0  0.050061  0  0.936347  0  0  0.071336  0  0.994543  0  0  0.071623  0  0.995465  0  0  0.084321  0.070921  0  0.994172  0
H  H53  1  0.66174949  0.51882491  0.42111624  1  0  0.050066  0  0.936344  0  0  0.071341  0  0.994536  0  0  0.071628  0  0.995459  0  0  0.084329  0.070926  0  0.994164  0
H  H54  1  0.99470669  0.02964996  0.38833397  1  0  0.048905  0  0.942516  0  0  0.068445  0  1.004714  0  0  0.068724  0  1.005702  0  0  0.08372  0.068121  0  1.004039  0
H  H55  1  0.00529637  0.52964948  0.38833378  1  0  0.048899  0  0.942498  0  0  0.068445  0  1.00469  0  0  0.068725  0  1.005678  0  0  0.083733  0.068118  0  1.004014  0
H  H56  1  0.17749870  0.80987510  0.47435966  1  0  0.088491  0  0.959189  0  0  0.111684  0  1.020071  0  0  0.112469  0  1.021061  0  0  0.083903  0.111105  0  1.019267  0
H  H57  1  0.82250030  0.30987444  0.47435878  1  0  0.08851  0  0.95921  0  0  0.111704  0  1.020085  0  0  0.112489  0  1.021075  0  0  0.083909  0.111121  0  1.019285  0
H  H58  1  0.96248158  0.96891693  0.49950765  1  0  0.086224  0  0.970706  0  0  0.107493  0  1.034329  0  0  0.108728  0  1.03448  0  0  0.082663  0.106533  0  1.034271  0
H  H59  1  0.03751966  0.46891725  0.49950778  1  0  0.086231  0  0.970694  0  0  0.107504  0  1.034316  0  0  0.108739  0  1.034468  0  0  0.082665  0.106541  0  1.03426  0
H  H60  1  0.83092973  0.81850248  0.44088895  1  0  0.086108  0  0.961484  0  0  0.107648  0  1.025349  0  0  0.108632  0  1.026115  0  0  0.082935  0.106831  0  1.024879  0
H  H61  1  0.16906925  0.31850282  0.44088909  1  0  0.086103  0  0.961506  0  0  0.107648  0  1.025365  0  0  0.10863  0  1.026133  0  0  0.082931  0.106831  0  1.024895  0
C  C62  1  0.59403111  0.89576684  0.92787231  1  0  0.734939  0  3.781098  0  0  0.684935  0  4.074233  0  0  0.720016  0  4.066657  0  0  0.226357  0.660966  0  4.078615  0
C  C63  1  0.40596397  0.39576612  0.92787142  1  0  0.734976  0  3.781089  0  0  0.68498  0  4.074218  0  0  0.720058  0  4.066646  0  0  0.226387  0.661015  0  4.078592  0
C  C64  1  0.43670408  0.78135797  0.87962346  1  0  -0.286413  0  3.681301  0  0  -0.32241  0  3.926877  0  0  -0.329389  0  3.936046  0  0  -0.166202  -0.317618  0  3.920394  0
C  C65  1  0.56329305  0.28135837  0.87962362  1  0  -0.286405  0  3.68126  0  0  -0.32243  0  3.926863  0  0  -0.329411  0  3.936032  0  0  -0.166202  -0.317639  0  3.92038  0
C  C66  1  0.62623932  0.68185674  0.83059414  1  0  -0.072982  0  3.693967  0  0  -0.116209  0  3.954595  0  0  -0.116247  0  3.969055  0  0  -0.16732  -0.11605  0  3.944474  0
C  C67  1  0.37375771  0.18185712  0.83059429  1  0  -0.072911  0  3.694014  0  0  -0.116123  0  3.954611  0  0  -0.116149  0  3.96906  0  0  -0.167304  -0.115964  0  3.94449  0
C  C68  1  0.45137618  0.57700935  0.78014871  1  0  -0.111105  0  3.690774  0  0  -0.149605  0  3.949865  0  0  -0.15114  0  3.965854  0  0  -0.168391  -0.148361  0  3.938645  0
C  C69  1  0.54862290  0.07701085  0.78014944  1  0  -0.111129  0  3.690755  0  0  -0.14965  0  3.949865  0  0  -0.151192  0  3.965854  0  0  -0.168377  -0.148405  0  3.938644  0
C  C70  1  0.63439496  0.47792403  0.72933909  1  0  -0.103246  0  3.705068  0  0  -0.145309  0  3.968197  0  0  -0.146413  0  3.983895  0  0  -0.166991  -0.144416  0  3.957096  0
C  C71  1  0.36560644  0.97792472  0.72933950  1  0  -0.103213  0  3.705064  0  0  -0.145283  0  3.968206  0  0  -0.146385  0  3.983898  0  0  -0.166975  -0.14439  0  3.957106  0
C  C72  1  0.45837771  0.37771149  0.67745140  1  0  -0.110967  0  3.697218  0  0  -0.148182  0  3.954099  0  0  -0.149499  0  3.970084  0  0  -0.167977  -0.147096  0  3.94279  0
C  C73  1  0.54162360  0.87771331  0.67745190  1  0  -0.110985  0  3.697096  0  0  -0.148197  0  3.954002  0  0  -0.149508  0  3.969976  0  0  -0.167989  -0.147109  0  3.942687  0
C  C74  1  0.63832313  0.28237744  0.62466545  1  0  -0.062577  0  3.724272  0  0  -0.098  0  3.985906  0  0  -0.098592  0  4.001916  0  0  -0.168996  -0.097352  0  3.974506  0
C  C75  1  0.36167809  0.78237813  0.62466585  1  0  -0.062532  0  3.724166  0  0  -0.098015  0  3.985887  0  0  -0.098606  0  4.001893  0  0  -0.169019  -0.097365  0  3.974484  0
C  C76  1  0.45742014  0.18408489  0.57309227  1  0  -0.288459  0  3.726249  0  0  -0.360607  0  3.967691  0  0  -0.363393  0  3.979791  0  0  -0.247201  -0.35834  0  3.959184  0
C  C77  1  0.54258100  0.68408561  0.57309173  1  0  -0.288484  0  3.726205  0  0  -0.360634  0  3.967666  0  0  -0.36342  0  3.979765  0  0  -0.247187  -0.358366  0  3.959158  0
C  C78  1  0.87678636  0.80601898  0.07145867  1  0  0.728884  0  3.788758  0  0  0.680593  0  4.077987  0  0  0.715314  0  4.071383  0  0  0.224054  0.656918  0  4.081416  0
C  C79  1  0.12320809  0.30600937  0.07145654  1  0  0.728652  0  3.788953  0  0  0.680374  0  4.078188  0  0  0.715099  0  4.07159  0  0  0.223903  0.656695  0  4.081616  0
C  C80  1  0.71285101  0.74456045  0.12203360  1  0  -0.290353  0  3.689816  0  0  -0.325913  0  3.938362  0  0  -0.332673  0  3.946869  0  0  -0.165193  -0.320939  0  3.93203  0
C  C81  1  0.28715199  0.24456082  0.12203328  1  0  -0.29023  0  3.689828  0  0  -0.325781  0  3.938362  0  0  -0.332548  0  3.946882  0  0  -0.165148  -0.320796  0  3.932019  0
C  C82  1  0.60544374  0.85988500  0.17888559  1  0  -0.071335  0  3.702168  0  0  -0.115673  0  3.966197  0  0  -0.115612  0  3.980684  0  0  -0.167275  -0.115338  0  3.955695  0
C  C83  1  0.39455936  0.35988538  0.17888574  1  0  -0.07129  0  3.702202  0  0  -0.115625  0  3.966264  0  0  -0.115565  0  3.980763  0  0  -0.16724  -0.115293  0  3.955754  0
C  C84  1  0.45976689  0.79049752  0.23065289  1  0  -0.103768  0  3.697901  0  0  -0.142779  0  3.960323  0  0  -0.144042  0  3.976119  0  0  -0.166499  -0.141473  0  3.949232  0
C  C85  1  0.54023194  0.29049903  0.23065220  1  0  -0.103738  0  3.697898  0  0  -0.142797  0  3.960417  0  0  -0.144061  0  3.976214  0  0  -0.166497  -0.141491  0  3.94933  0
C  C86  1  0.36630943  0.90450315  0.28961221  1  0  -0.108553  0  3.718586  0  0  -0.149907  0  3.9848  0  0  -0.150854  0  4.000181  0  0  -0.16781  -0.148842  0  3.973677  0
C  C87  1  0.63368950  0.40450357  0.28961190  1  0  -0.108649  0  3.718558  0  0  -0.15003  0  3.984818  0  0  -0.150979  0  4.000202  0  0  -0.167839  -0.148964  0  3.973693  0
C  C88  1  0.23394975  0.83683302  0.34349210  1  0  -0.110371  0  3.708898  0  0  -0.150332  0  3.97132  0  0  -0.1515  0  3.986814  0  0  -0.167935  -0.1491  0  3.959858  0
C  C89  1  0.76605131  0.33683346  0.34349180  1  0  -0.110351  0  3.708845  0  0  -0.150296  0  3.971268  0  0  -0.151464  0  3.986763  0  0  -0.167929  -0.149064  0  3.959808  0
C  C90  1  0.14918875  0.95195216  0.40298470  1  0  -0.063807  0  3.726758  0  0  -0.096711  0  3.986698  0  0  -0.097451  0  4.003048  0  0  -0.168972  -0.095947  0  3.97506  0
C  C91  1  0.85081242  0.45195150  0.40298478  1  0  -0.063798  0  3.726743  0  0  -0.096696  0  3.986675  0  0  -0.097436  0  4.003024  0  0  -0.168979  -0.095929  0  3.975029  0
C  C92  1  0.02290954  0.88398837  0.45742732  1  0  -0.287352  0  3.735614  0  0  -0.360756  0  3.979594  0  0  -0.363363  0  3.991466  0  0  -0.246423  -0.358585  0  3.971118  0
C  C93  1  0.97708949  0.38398774  0.45742741  1  0  -0.287384  0  3.735651  0  0  -0.360803  0  3.979627  0  0  -0.363407  0  3.991498  0  0  -0.246437  -0.358626  0  3.971153  0
O  O94  1  0.46963486  0.96940013  0.97805254  1  0  -0.674641  0  2.070384  0  0  -0.604149  0  2.35607  0  0  -0.633224  0  2.337703  0  0  -0.325231  -0.583939  0  2.368238  0
O  O95  1  0.53036244  0.46939942  0.97805308  1  0  -0.674629  0  2.070311  0  0  -0.604151  0  2.356015  0  0  -0.633226  0  2.33765  0  0  -0.325247  -0.583944  0  2.368177  0
O  O96  1  0.85925485  0.91648281  0.91834995  1  0  -0.645813  0  2.065938  0  0  -0.571553  0  2.342015  0  0  -0.601227  0  2.327257  0  0  -0.309398  -0.550919  0  2.351513  0
O  O97  1  0.14074238  0.41648093  0.91835038  1  0  -0.64581  0  2.066048  0  0  -0.571539  0  2.342111  0  0  -0.601207  0  2.327346  0  0  -0.3094  -0.550907  0  2.351605  0
O  O98  1  0.92354081  0.94480095  0.08030012  1  0  -0.639038  0  2.042031  0  0  -0.564353  0  2.307077  0  0  -0.594161  0  2.293185  0  0  -0.307965  -0.543591  0  2.316432  0
O  O99  1  0.07646014  0.44480791  0.08029941  1  0  -0.638919  0  2.041618  0  0  -0.564235  0  2.306658  0  0  -0.594049  0  2.292771  0  0  -0.307876  -0.543466  0  2.315997  0
O  O100  1  0.96654426  0.72058529  0.01997613  1  0  -0.668335  0  2.059493  0  0  -0.597644  0  2.340529  0  0  -0.626815  0  2.322511  0  0  -0.321077  -0.577013  0  2.351935  0
O  O101  1  0.03345652  0.22059224  0.01997731  1  0  -0.668216  0  2.05993  0  0  -0.597546  0  2.34096  0  0  -0.626709  0  2.322937  0  0  -0.321016  -0.576916  0  2.352369  0
