# generated using pymatgen
data_ZnH20C26N2O5
_symmetry_space_group_name_H-M   'P 1'
_cell_length_a   9.66754995
_cell_length_b   10.67152187
_cell_length_c   15.92452894
_cell_angle_alpha   72.54115099
_cell_angle_beta   82.59167102
_cell_angle_gamma   67.04876757
_symmetry_Int_Tables_number   1
_chemical_formula_structural   ZnH20C26N2O5
_chemical_formula_sum   'Zn2 H40 C52 N4 O10'
_cell_volume   1443.01131019
_cell_formula_units_Z   2
loop_
 _symmetry_equiv_pos_site_id
 _symmetry_equiv_pos_as_xyz
  1  'x, y, z'
loop_
 _atom_site_type_symbol
 _atom_site_label
 _atom_site_symmetry_multiplicity
 _atom_site_fract_x
 _atom_site_fract_y
 _atom_site_fract_z
 _atom_site_occupancy
 _atom_site_pbe_bader_charge
 _atom_site_pbe_bader_spin_density
 _atom_site_pbe_cm5_charge
 _atom_site_pbe_ddec_charge
 _atom_site_pbe_ddec_spin_density
 _atom_site_pbe_ddec_sum_bond_order
 _atom_site_pbe_magmom
Zn  Zn0  1  0.27855221  0.76313905  0.54971612  1  1.300851  0  0.677575  0.81664  0  2.325603  0
Zn  Zn1  1  0.72145031  0.23685886  0.45028368  1  1.300776  0  0.677594  0.81667  0  2.325609  0
H  H2  1  0.05107202  0.40901871  0.81261692  1  0.116817  0  0.099181  0.100466  0  1.022933  0
H  H3  1  0.94893072  0.59097595  0.18738041  1  0.116778  0  0.099156  0.100398  0  1.022971  0
H  H4  1  0.50347135  0.37057717  0.73441782  1  0.094691  0  0.101472  0.107148  0  1.02331  0
H  H5  1  0.49653384  0.62941659  0.26558578  1  0.09472  0  0.101454  0.107135  0  1.023272  0
H  H6  1  0.14701694  0.18877417  0.93676629  1  0.056116  0  0.090175  0.083459  0  1.064879  0
H  H7  1  0.85298327  0.81122162  0.06323352  1  0.056154  0  0.09018  0.083462  0  1.064855  0
H  H8  1  0.60106872  0.15428345  0.85768652  1  0.096137  0  0.092034  0.089263  0  1.068386  0
H  H9  1  0.39893502  0.84571136  0.14231635  1  0.096314  0  0.092047  0.089293  0  1.068361  0
H  H10  1  0.34025450  0.99857793  0.01847135  1  0.052745  0  0.094549  0.092304  0  1.037164  0
H  H11  1  0.65974279  0.00141468  0.98152873  1  0.052857  0  0.094553  0.092368  0  1.037114  0
H  H12  1  0.21292275  0.65221157  0.30593094  1  0.113855  0  0.111577  0.118608  0  0.985856  0
H  H13  1  0.78706954  0.34779379  0.69406936  1  0.113775  0  0.111589  0.118634  0  0.985938  0
H  H14  1  0.13467832  0.09367379  0.25111513  1  0.10539  0  0.109272  0.115723  0  0.99443  0
H  H15  1  0.86532339  0.90633147  0.74888130  1  0.105068  0  0.109283  0.115757  0  0.994353  0
H  H16  1  0.13963099  0.69223069  0.15265072  1  0.057288  0  0.105128  0.107521  0  0.993424  0
H  H17  1  0.86036569  0.30777146  0.84734865  1  0.057168  0  0.105145  0.107508  0  0.993486  0
H  H18  1  0.05592522  0.13671068  0.10022344  1  0.079823  0  0.104626  0.1054  0  1.000369  0
H  H19  1  0.94408045  0.86329245  0.89977250  1  0.079552  0  0.104646  0.105403  0  1.000401  0
H  H20  1  0.07587394  0.84097853  0.00671678  1  0.054799  0  0.104578  0.102288  0  0.996086  0
H  H21  1  0.92412609  0.15902570  0.99328063  1  0.054785  0  0.10459  0.102316  0  0.996078  0
H  H22  1  0.09140240  0.97494564  0.65522360  1  0.112941  0  0.113844  0.076388  0  1.048238  0
H  H23  1  0.90859698  0.02505229  0.34477708  1  0.112905  0  0.113845  0.076385  0  1.048201  0
H  H24  1  0.13746196  0.12572752  0.73452838  1  0.091076  0  0.103859  0.108363  0  1.035216  0
H  H25  1  0.86253535  0.87427568  0.26547072  1  0.091026  0  0.103881  0.108403  0  1.035203  0
H  H26  1  0.39829664  0.12709654  0.72888483  1  0.113756  0  0.103452  0.100359  0  1.033548  0
H  H27  1  0.60169857  0.87290669  0.27111506  1  0.113765  0  0.103448  0.100341  0  1.033539  0
H  H28  1  0.59959007  0.97863198  0.64656303  1  0.137666  0  0.10784  0.124687  0  1.040432  0
H  H29  1  0.40040722  0.02137129  0.35343857  1  0.137659  0  0.107838  0.124707  0  1.040372  0
H  H30  1  0.75682720  0.84389600  0.58320105  1  0.111309  0  0.112957  0.129079  0  1.02726  0
H  H31  1  0.24317279  0.15610307  0.41680248  1  0.111411  0  0.112962  0.1291  0  1.027259  0
H  H32  1  0.93452219  0.67488481  0.50579712  1  0.096965  0  0.11183  0.114278  0  0.997479  0
H  H33  1  0.06547615  0.32511845  0.49420377  1  0.096953  0  0.111819  0.11428  0  0.997484  0
H  H34  1  0.83746776  0.53248673  0.44326949  1  0.082558  0  0.109792  0.116731  0  1.01734  0
H  H35  1  0.16253184  0.46751858  0.55672898  1  0.082728  0  0.10978  0.116719  0  1.017397  0
H  H36  1  0.56350037  0.57594929  0.45818956  1  0.13381  0  0.119827  0.094644  0  1.010343  0
H  H37  1  0.43650048  0.42405287  0.54181010  1  0.133711  0  0.119805  0.094627  0  1.010331  0
H  H38  1  0.96115754  0.91522151  0.57389490  1  0.64437  0  0.287929  0.388987  0  0.948798  0
H  H39  1  0.03884601  0.08477641  0.42610544  1  0.644325  0  0.287935  0.388988  0  0.948794  0
H  H40  1  0.03678699  0.74455637  0.61598907  1  0.646695  0  0.277278  0.365562  0  0.99464  0
H  H41  1  0.96321594  0.25544048  0.38401092  1  0.646695  0  0.277284  0.365553  0  0.994652  0
C  C42  1  0.21170584  0.53814500  0.69471815  1  1.540067  0  0.204488  0.567996  0  4.215393  0
C  C43  1  0.78829792  0.46184972  0.30528159  1  1.540136  0  0.204388  0.567787  0  4.215518  0
C  C44  1  0.27117337  0.40427083  0.76712373  1  -0.086922  0  -0.023405  -0.042821  0  3.980907  0
C  C45  1  0.72883081  0.59572282  0.23287557  1  -0.086874  0  -0.023414  -0.042885  0  3.980967  0
C  C46  1  0.17110636  0.35163168  0.82391659  1  -0.041205  0  -0.089598  -0.096824  0  4.005206  0
C  C47  1  0.82889678  0.64836197  0.17608280  1  -0.041272  0  -0.08958  -0.09675  0  4.005189  0
C  C48  1  0.42632408  0.33083845  0.78011358  1  -0.027209  0  -0.087917  -0.097085  0  3.990702  0
C  C49  1  0.57368050  0.66915421  0.21988842  1  -0.026648  0  -0.087767  -0.096898  0  3.990495  0
C  C50  1  0.22507889  0.22996364  0.89292880  1  -0.002917  0  -0.097361  -0.140284  0  3.976556  0
C  C51  1  0.77492197  0.77003318  0.10707010  1  -0.002875  0  -0.097386  -0.140309  0  3.976442  0
C  C52  1  0.48020011  0.20984385  0.84954789  1  -0.041065  0  -0.093658  -0.134649  0  3.958578  0
C  C53  1  0.51980302  0.79014987  0.15045400  1  -0.041782  0  -0.093758  -0.134789  0  3.958559  0
C  C54  1  0.38038197  0.15768970  0.90850848  1  -0.11542  0  -0.010864  0.114548  0  4.034839  0
C  C55  1  0.61961907  0.84230399  0.09149233  1  -0.115055  0  -0.01085  0.114607  0  4.034874  0
C  C56  1  0.42929111  0.03461871  0.98432375  1  0.036633  0  -0.09201  -0.124154  0  3.980004  0
C  C57  1  0.57070618  0.96537390  0.01567696  1  -0.143088  0  -0.091971  -0.124231  0  3.980008  0
C  C58  1  0.21879465  0.84741324  0.38044136  1  1.550172  0  0.200043  0.556443  0  4.216944  0
C  C59  1  0.78120183  0.15259207  0.61955673  1  1.550096  0  0.200056  0.556437  0  4.216984  0
C  C60  1  0.17788968  0.87026076  0.28811409  1  -0.067421  0  -0.016955  -0.040408  0  3.973998  0
C  C61  1  0.82210408  0.12974351  0.71188506  1  -0.067519  0  -0.016996  -0.040403  0  3.974148  0
C  C62  1  0.17904097  0.75749362  0.25980950  1  -0.059902  0  -0.076171  -0.080003  0  3.968054  0
C  C63  1  0.82095092  0.24251275  0.74018873  1  -0.059833  0  -0.076135  -0.079945  0  3.968165  0
C  C64  1  0.13405086  0.00642034  0.22919389  1  -0.000153  0  -0.080162  -0.092634  0  3.987873  0
C  C65  1  0.86594876  0.99358495  0.77080333  1  0.000154  0  -0.080157  -0.092711  0  3.987945  0
C  C66  1  0.13719877  0.78075886  0.17441805  1  -0.002144  0  -0.08384  -0.135876  0  3.95753  0
C  C67  1  0.86279708  0.21924541  0.82558094  1  -0.002086  0  -0.083866  -0.13591  0  3.957449  0
C  C68  1  0.08896807  0.03009800  0.14468572  1  -0.095892  0  -0.086983  -0.133243  0  3.964729  0
C  C69  1  0.91103133  0.96990518  0.85531258  1  -0.095557  0  -0.086994  -0.133245  0  3.964785  0
C  C70  1  0.08852063  0.91773579  0.11554858  1  -0.040819  0  -0.009475  0.104021  0  4.05129  0
C  C71  1  0.91147668  0.08226740  0.88444989  1  -0.047625  0  -0.009449  0.104101  0  4.051219  0
C  C72  1  0.04097019  0.93767143  0.02774541  1  -0.102514  0  -0.086299  -0.130295  0  3.997825  0
C  C73  1  0.95903088  0.06233280  0.97225192  1  -0.023929  0  -0.086356  -0.130402  0  3.998001  0
C  C74  1  0.20241317  0.97777494  0.65631082  1  0.472898  0  0.05253  0.107153  0  3.944091  0
C  C75  1  0.79758516  0.02222299  0.34368993  1  0.472814  0  0.052523  0.107199  0  3.94406  0
C  C76  1  0.22874538  0.06142823  0.69984412  1  -0.021926  0  -0.080783  -0.125759  0  3.957839  0
C  C77  1  0.77125171  0.93857291  0.30015732  1  -0.021801  0  -0.080799  -0.125842  0  3.957833  0
C  C78  1  0.37356926  0.06157468  0.69664197  1  0.004327  0  -0.062227  -0.011003  0  3.943962  0
C  C79  1  0.62642678  0.93842645  0.30335892  1  0.004462  0  -0.062235  -0.010961  0  3.94382  0
C  C80  1  0.48659130  0.97741689  0.65140704  1  -0.069088  0  -0.076307  -0.149146  0  3.90485  0
C  C81  1  0.51340682  0.02258425  0.34859432  1  -0.069102  0  -0.076285  -0.149157  0  3.904755  0
C  C82  1  0.45232725  0.89348124  0.61092791  1  0.46783  0  0.123054  0.171374  0  3.978534  0
C  C83  1  0.54767171  0.10651778  0.38907382  1  0.467779  0  0.12306  0.171328  0  3.978639  0
C  C84  1  0.56609320  0.79695362  0.56399659  1  0.518266  0  0.11877  0.160745  0  3.998245  0
C  C85  1  0.43390784  0.20304540  0.43600498  1  0.518302  0  0.118742  0.160763  0  3.998367  0
C  C86  1  0.71716650  0.78162804  0.55636182  1  -0.049822  0  -0.07551  -0.143911  0  3.904658  0
C  C87  1  0.28283245  0.21837100  0.44364053  1  -0.049887  0  -0.075508  -0.143967  0  3.904746  0
C  C88  1  0.81692604  0.68615672  0.51252823  1  -0.037086  0  -0.062974  -0.020934  0  3.949241  0
C  C89  1  0.18307314  0.31384440  0.48747241  1  -0.037088  0  -0.062956  -0.020881  0  3.949238  0
C  C90  1  0.76353182  0.60867952  0.47761105  1  0.034818  0  -0.076896  -0.12057  0  3.94392  0
C  C91  1  0.23646757  0.39132370  0.52238851  1  0.034593  0  -0.076859  -0.120561  0  3.943878  0
C  C92  1  0.61080288  0.63135588  0.48654617  1  0.48154  0  0.057366  0.117347  0  3.916118  0
C  C93  1  0.38919547  0.36864732  0.51345284  1  0.481468  0  0.057349  0.117358  0  3.91615  0
N  N94  1  0.31104001  0.89583646  0.61337544  1  -1.244221  0  -0.319989  -0.266511  0  3.540988  0
N  N95  1  0.68896040  0.10416150  0.38662640  1  -1.244214  0  -0.319972  -0.266482  0  3.540951  0
N  N96  1  0.51500786  0.72285222  0.52879340  1  -1.241685  0  -0.316159  -0.269712  0  3.515846  0
N  N97  1  0.48499131  0.27714892  0.47120787  1  -1.241635  0  -0.316148  -0.269752  0  3.515981  0
O  O98  1  0.31045285  0.57750500  0.64367665  1  -1.184945  0  -0.330333  -0.560106  0  2.326741  0
O  O99  1  0.68955404  0.42248972  0.35632285  1  -1.184987  0  -0.330398  -0.560093  0  2.326763  0
O  O100  1  0.07041219  0.60243088  0.68866019  1  -1.167086  0  -0.331137  -0.555691  0  2.152807  0
O  O101  1  0.92959368  0.39756378  0.31133689  1  -1.167176  0  -0.331038  -0.55553  0  2.152747  0
O  O102  1  0.20564914  0.95413880  0.40597173  1  -1.200599  0  -0.321487  -0.585451  0  2.251902  0
O  O103  1  0.79434899  0.04586231  0.59402838  1  -1.200574  0  -0.321507  -0.585452  0  2.251878  0
O  O104  1  0.26410437  0.72153270  0.43120778  1  -1.158714  0  -0.315995  -0.530369  0  2.251304  0
O  O105  1  0.73589378  0.27846835  0.56879045  1  -1.158713  0  -0.316007  -0.53039  0  2.251498  0
O  O106  1  0.04146165  0.82783985  0.56469704  1  -1.293579  0  -0.590537  -0.770074  0  2.131732  0
O  O107  1  0.95854253  0.17215915  0.43530365  1  -1.293486  0  -0.590555  -0.77009  0  2.131735  0
