# generated using pymatgen
data_AgH12C12N3O5
_symmetry_space_group_name_H-M   'P 1'
_cell_length_a   7.06050241
_cell_length_b   8.81307263
_cell_length_c   11.10838677
_cell_angle_alpha   70.96322304
_cell_angle_beta   89.12848183
_cell_angle_gamma   76.28144857
_symmetry_Int_Tables_number   1
_chemical_formula_structural   AgH12C12N3O5
_chemical_formula_sum   'Ag2 H24 C24 N6 O10'
_cell_volume   633.31791612
_cell_formula_units_Z   2
loop_
 _symmetry_equiv_pos_site_id
 _symmetry_equiv_pos_as_xyz
  1  'x, y, z'
loop_
 _atom_site_type_symbol
 _atom_site_label
 _atom_site_symmetry_multiplicity
 _atom_site_fract_x
 _atom_site_fract_y
 _atom_site_fract_z
 _atom_site_occupancy
 _atom_site_hle17_bader_spin_density
 _atom_site_hle17_ddec_charge
 _atom_site_hle17_ddec_spin_density
 _atom_site_hle17_ddec_sum_bond_order
 _atom_site_hle17_magmom
 _atom_site_hse06_10hf_bader_spin_density
 _atom_site_hse06_10hf_ddec_charge
 _atom_site_hse06_10hf_ddec_spin_density
 _atom_site_hse06_10hf_ddec_sum_bond_order
 _atom_site_hse06_10hf_magmom
 _atom_site_hse06_bader_spin_density
 _atom_site_hse06_ddec_charge
 _atom_site_hse06_ddec_spin_density
 _atom_site_hse06_ddec_sum_bond_order
 _atom_site_hse06_magmom
 _atom_site_pbe_bader_spin_density
 _atom_site_pbe_cm5_charge
 _atom_site_pbe_ddec_charge
 _atom_site_pbe_ddec_spin_density
 _atom_site_pbe_ddec_sum_bond_order
 _atom_site_pbe_magmom
Ag  Ag0  1  0.24090401  0.02486298  0.88647276  1  0  0.573598  0  1.358425  0  0  0.443597  0  1.791991  0  0  0.473612  0  1.743725  0  0  0.471561  0.422801  0  1.826012  0
Ag  Ag1  1  0.75909533  0.97513594  0.11352707  1  0  0.573587  0  1.358481  0  0  0.443602  0  1.792024  0  0  0.473609  0  1.743775  0  0  0.47155  0.422801  0  1.826045  0
H  H2  1  0.97650537  0.23760488  0.96972905  1  0  0.089757  0  0.994635  0  0  0.094303  0  1.072516  0  0  0.097916  0  1.068911  0  0  0.09803  0.091485  0  1.075279  0
H  H3  1  0.02349433  0.76239280  0.03027019  1  0  0.089773  0  0.994574  0  0  0.094303  0  1.072466  0  0  0.097917  0  1.06886  0  0  0.098031  0.091485  0  1.075231  0
H  H4  1  0.16022977  0.69475771  0.84332154  1  0  0.101332  0  0.986944  0  0  0.104526  0  1.058531  0  0  0.107402  0  1.057642  0  0  0.1039  0.10197  0  1.060411  0
H  H5  1  0.83977388  0.30523627  0.15668041  1  0  0.101257  0  0.986866  0  0  0.104454  0  1.058458  0  0  0.107331  0  1.057569  0  0  0.103855  0.101897  0  1.060339  0
H  H6  1  0.00312232  0.01144108  0.72093302  1  0  0.08971  0  0.999412  0  0  0.092555  0  1.081698  0  0  0.097175  0  1.07636  0  0  0.094702  0.088616  0  1.086777  0
H  H7  1  0.99687490  0.98856030  0.27906981  1  0  0.08976  0  0.999336  0  0  0.092563  0  1.081653  0  0  0.09718  0  1.076325  0  0  0.094697  0.088623  0  1.08673  0
H  H8  1  0.30011753  0.87444049  0.41381394  1  0  0.105598  0  0.964245  0  0  0.112249  0  1.031167  0  0  0.11597  0  1.028656  0  0  0.106437  0.109627  0  1.032625  0
H  H9  1  0.69987901  0.12555841  0.58618863  1  0  0.105557  0  0.964332  0  0  0.11222  0  1.031245  0  0  0.115931  0  1.028742  0  0  0.106415  0.109596  0  1.032706  0
H  H10  1  0.12493340  0.30122198  0.57072268  1  0  0.071013  0  0.93004  0  0  0.088444  0  0.99023  0  0  0.088182  0  0.991493  0  0  0.102444  0.08867  0  0.989544  0
H  H11  1  0.87506481  0.69878067  0.42927350  1  0  0.070989  0  0.930064  0  0  0.088392  0  0.990314  0  0  0.088133  0  0.99158  0  0  0.102421  0.088618  0  0.989629  0
H  H12  1  0.37703277  0.22762831  0.62039754  1  0  0.079967  0  0.940082  0  0  0.091927  0  1.009597  0  0  0.09235  0  1.00946  0  0  0.105238  0.09154  0  1.010122  0
H  H13  1  0.62296580  0.77237310  0.37959896  1  0  0.079987  0  0.940065  0  0  0.091944  0  1.009591  0  0  0.09237  0  1.009458  0  0  0.105244  0.091558  0  1.010116  0
H  H14  1  0.42092102  0.49871095  0.58919935  1  0  0.076391  0  0.946027  0  0  0.085044  0  1.015645  0  0  0.086287  0  1.014209  0  0  0.106056  0.084187  0  1.016502  0
H  H15  1  0.57907938  0.50128922  0.41080105  1  0  0.07641  0  0.946013  0  0  0.085061  0  1.015628  0  0  0.086302  0  1.014191  0  0  0.106063  0.084204  0  1.016485  0
H  H16  1  0.19790642  0.57485335  0.48913751  1  0  0.081848  0  0.937702  0  0  0.096425  0  0.997454  0  0  0.096959  0  0.997052  0  0  0.109323  0.096392  0  0.9971  0
H  H17  1  0.80209361  0.42514805  0.51086257  1  0  0.081851  0  0.937647  0  0  0.096403  0  0.997429  0  0  0.096933  0  0.997024  0  0  0.109302  0.09637  0  0.997077  0
H  H18  1  0.59127110  0.67287733  0.90720682  1  0  0.092606  0  0.926704  0  0  0.111556  0  0.981059  0  0  0.11131  0  0.982495  0  0  0.109089  0.111643  0  0.98006  0
H  H19  1  0.40873668  0.32712659  0.09279340  1  0  0.092611  0  0.926631  0  0  0.111575  0  0.981002  0  0  0.111329  0  0.982438  0  0  0.109072  0.111663  0  0.980003  0
H  H20  1  0.68004194  0.85060069  0.83167325  1  0  0.076772  0  0.94088  0  0  0.092158  0  1.005782  0  0  0.092052  0  1.006587  0  0  0.099813  0.091993  0  1.005525  0
H  H21  1  0.31995940  0.14940569  0.16832192  1  0  0.076761  0  0.940897  0  0  0.092166  0  1.005807  0  0  0.092062  0  1.006611  0  0  0.099807  0.092002  0  1.00555  0
H  H22  1  0.79900710  0.73344938  0.66785839  1  0  0.066806  0  0.949488  0  0  0.075136  0  1.019274  0  0  0.075445  0  1.020142  0  0  0.099502  0.07477  0  1.018892  0
H  H23  1  0.20099433  0.26655203  0.33214077  1  0  0.066777  0  0.949528  0  0  0.075123  0  1.019309  0  0  0.075431  0  1.020177  0  0  0.099489  0.074755  0  1.018927  0
H  H24  1  0.68618413  0.56418627  0.73644015  1  0  0.075099  0  0.945571  0  0  0.081189  0  1.01704  0  0  0.082586  0  1.015612  0  0  0.100463  0.079697  0  1.018624  0
H  H25  1  0.31381664  0.43581265  0.26356146  1  0  0.075125  0  0.945674  0  0  0.08123  0  1.01713  0  0  0.082619  0  1.015709  0  0  0.100483  0.079736  0  1.018713  0
C  C26  1  0.07578012  0.46224505  0.89293057  1  0  -0.018275  0  3.773195  0  0  0.00053  0  4.00316  0  0  -0.003449  0  4.024613  0  0  0.000147  0.003075  0  3.988372  0
C  C27  1  0.92422316  0.53775017  0.10707106  1  0  -0.018403  0  3.773479  0  0  0.000377  0  4.003475  0  0  -0.003607  0  4.024931  0  0  8.4e-05  0.002927  0  3.988673  0
C  C28  1  0.98696447  0.35254284  0.98294937  1  0  -0.070875  0  3.714288  0  0  -0.091683  0  3.959952  0  0  -0.093734  0  3.981307  0  0  -0.077696  -0.089621  0  3.944843  0
C  C29  1  0.01303673  0.64744989  0.01705383  1  0  -0.070795  0  3.714316  0  0  -0.091573  0  3.959978  0  0  -0.093621  0  3.981331  0  0  -0.077649  -0.089509  0  3.944858  0
C  C30  1  0.08835956  0.61012272  0.91110434  1  0  -0.067618  0  3.684635  0  0  -0.087455  0  3.92796  0  0  -0.088037  0  3.947472  0  0  -0.076759  -0.086812  0  3.914808  0
C  C31  1  0.91164401  0.38987622  0.08889452  1  0  -0.067473  0  3.684551  0  0  -0.087301  0  3.927904  0  0  -0.087881  0  3.947416  0  0  -0.076702  -0.086659  0  3.914743  0
C  C32  1  0.17605552  0.93603057  0.57671334  1  0  -0.019142  0  3.78077  0  0  -0.005559  0  4.024011  0  0  -0.008836  0  4.044367  0  0  -0.005087  -0.003961  0  4.012767  0
C  C33  1  0.82394316  0.06396586  0.42328894  1  0  -0.01909  0  3.780903  0  0  -0.005488  0  4.024122  0  0  -0.008764  0  4.044474  0  0  -0.005003  -0.003887  0  4.012873  0
C  C34  1  0.00409845  0.00595350  0.62418408  1  0  -0.076347  0  3.715083  0  0  -0.096102  0  3.966091  0  0  -0.097873  0  3.985517  0  0  -0.079775  -0.095592  0  3.955026  0
C  C35  1  0.99589490  0.99404662  0.37581912  1  0  -0.076421  0  3.715205  0  0  -0.096173  0  3.96628  0  0  -0.097943  0  3.985708  0  0  -0.079796  -0.095662  0  3.955206  0
C  C36  1  0.16960476  0.93078179  0.45179681  1  0  -0.068876  0  3.698028  0  0  -0.096831  0  3.955089  0  0  -0.096645  0  3.972597  0  0  -0.080125  -0.09679  0  3.94306  0
C  C37  1  0.83038823  0.06921956  0.54820607  1  0  -0.068872  0  3.698089  0  0  -0.096852  0  3.955133  0  0  -0.096655  0  3.972648  0  0  -0.080146  -0.096812  0  3.943108  0
C  C38  1  0.14926868  0.42706110  0.77829502  1  0  0.431204  0  3.765524  0  0  0.394904  0  4.033567  0  0  0.41903  0  4.038489  0  0  0.237153  0.378566  0  4.029564  0
C  C39  1  0.85073281  0.57293536  0.22170541  1  0  0.431179  0  3.7656  0  0  0.394864  0  4.033672  0  0  0.418993  0  4.038594  0  0  0.237144  0.37853  0  4.029648  0
C  C40  1  0.24281697  0.31722763  0.62567806  1  0  0.001356  0  3.641364  0  0  -0.055384  0  3.906931  0  0  -0.051405  0  3.918983  0  0  -0.072934  -0.058529  0  3.899382  0
C  C41  1  0.75718303  0.68277378  0.37431931  1  0  0.00137  0  3.641368  0  0  -0.055365  0  3.906953  0  0  -0.051401  0  3.91902  0  0  -0.072926  -0.058509  0  3.899403  0
C  C42  1  0.26761154  0.49467223  0.58289108  1  0  0.063536  0  3.506289  0  0  0.003353  0  3.772311  0  0  0.011251  0  3.775615  0  0  -0.064147  -0.001714  0  3.769265  0
C  C43  1  0.73239025  0.50532795  0.41710839  1  0  0.063527  0  3.506192  0  0  0.003367  0  3.772196  0  0  0.011277  0  3.775494  0  0  -0.064124  -0.001703  0  3.769154  0
C  C44  1  0.35909779  0.86243084  0.65702764  1  0  0.428215  0  3.768811  0  0  0.385066  0  4.046666  0  0  0.409744  0  4.050822  0  0  0.232733  0.367386  0  4.046177  0
C  C45  1  0.64090334  0.13756684  0.34297338  1  0  0.428248  0  3.768904  0  0  0.385108  0  4.046719  0  0  0.40979  0  4.050874  0  0  0.232733  0.36742  0  4.046226  0
C  C46  1  0.59381333  0.76933534  0.81551957  1  0  -0.010203  0  3.637085  0  0  -0.064176  0  3.891447  0  0  -0.060957  0  3.904721  0  0  -0.075088  -0.066199  0  3.882361  0
C  C47  1  0.40618737  0.23066854  0.18447985  1  0  -0.010164  0  3.637003  0  0  -0.064233  0  3.891521  0  0  -0.061017  0  3.904794  0  0  -0.075107  -0.066262  0  3.882441  0
C  C48  1  0.66719486  0.69860215  0.70899179  1  0  0.067221  0  3.49807  0  0  0.012421  0  3.759031  0  0  0.019374  0  3.764178  0  0  -0.066028  0.007981  0  3.755766  0
C  C49  1  0.33280441  0.30140173  0.29100586  1  0  0.067241  0  3.498199  0  0  0.012408  0  3.759216  0  0  0.019373  0  3.764364  0  0  -0.066018  0.007962  0  3.755949  0
N  N50  1  0.19030501  0.28636514  0.75916199  1  0  -0.440177  0  3.142952  0  0  -0.372286  0  3.450647  0  0  -0.395847  0  3.46082  0  0  -0.376097  -0.355572  0  3.443406  0
N  N51  1  0.80969322  0.71363749  0.24083689  1  0  -0.440176  0  3.14302  0  0  -0.37228  0  3.450729  0  0  -0.39584  0  3.460907  0  0  -0.376088  -0.355567  0  3.443479  0
N  N52  1  0.30837522  0.78391186  0.15720029  1  0  0.68486  0  4.140811  0  0  0.726689  0  4.41753  0  0  0.755701  0  4.423663  0  0  0.090099  0.707042  0  4.412758  0
N  N53  1  0.69162160  0.21609077  0.84279861  1  0  0.684877  0  4.140693  0  0  0.726694  0  4.417433  0  0  0.755707  0  4.423562  0  0  0.090049  0.707048  0  4.412665  0
N  N54  1  0.39240869  0.86685582  0.76983762  1  0  -0.446301  0  3.115898  0  0  -0.372844  0  3.412933  0  0  -0.395065  0  3.421353  0  0  -0.369841  -0.357245  0  3.407552  0
N  N55  1  0.60759207  0.13314311  0.23016309  1  0  -0.446325  0  3.115954  0  0  -0.37285  0  3.412998  0  0  -0.39507  0  3.421416  0  0  -0.369812  -0.357249  0  3.407616  0
O  O56  1  0.17052101  0.56056627  0.67949353  1  0  -0.303602  0  2.217887  0  0  -0.23103  0  2.44989  0  0  -0.251122  0  2.451222  0  0  -0.164958  -0.215997  0  2.448988  0
O  O57  1  0.82948079  0.43943391  0.32050684  1  0  -0.303582  0  2.217887  0  0  -0.23098  0  2.449875  0  0  -0.251062  0  2.451182  0  0  -0.164957  -0.215952  0  2.448967  0
O  O58  1  0.20052064  0.93385822  0.10231319  1  0  -0.531108  0  1.853578  0  0  -0.499549  0  2.121263  0  0  -0.521267  0  2.107505  0  0  -0.225844  -0.483845  0  2.130105  0
O  O59  1  0.79947513  0.06614316  0.89768605  1  0  -0.53112  0  1.85361  0  0  -0.499562  0  2.121314  0  0  -0.521282  0  2.107554  0  0  -0.22583  -0.483861  0  2.130161  0
O  O60  1  0.42157074  0.71479862  0.09216283  1  0  -0.450994  0  1.761141  0  0  -0.448225  0  1.978794  0  0  -0.462283  0  1.972701  0  0  -0.182346  -0.438731  0  1.982862  0
O  O61  1  0.57842646  0.28520276  0.90783819  1  0  -0.450979  0  1.760922  0  0  -0.44819  0  1.978569  0  0  -0.462247  0  1.972475  0  0  -0.182317  -0.438696  0  1.982638  0
O  O62  1  0.29267870  0.71374569  0.27381565  1  0  -0.450759  0  1.755456  0  0  -0.442484  0  1.96389  0  0  -0.457549  0  1.959784  0  0  -0.181495  -0.43176  0  1.966338  0
O  O63  1  0.70731887  0.28625446  0.72618569  1  0  -0.450781  0  1.755564  0  0  -0.442527  0  1.964035  0  0  -0.457592  0  1.95993  0  0  -0.181475  -0.431792  0  1.966464  0
O  O64  1  0.50760183  0.77587714  0.60828075  1  0  -0.302644  0  2.199424  0  0  -0.228469  0  2.43148  0  0  -0.24828  0  2.431755  0  0  -0.168476  -0.215073  0  2.431709  0
O  O65  1  0.49239857  0.22412302  0.39171964  1  0  -0.302677  0  2.199404  0  0  -0.228475  0  2.431448  0  0  -0.248297  0  2.431724  0  0  -0.168479  -0.215073  0  2.431676  0
