# generated using pymatgen
data_ZnH8C12(NO2)2
_symmetry_space_group_name_H-M   'P 1'
_cell_length_a   6.94012789
_cell_length_b   15.58351401
_cell_length_c   15.58473381
_cell_angle_alpha   87.15524235
_cell_angle_beta   77.13263002
_cell_angle_gamma   77.13110735
_symmetry_Int_Tables_number   1
_chemical_formula_structural   ZnH8C12(NO2)2
_chemical_formula_sum   'Zn4 H32 C48 N8 O16'
_cell_volume   1601.91411768
_cell_formula_units_Z   4
loop_
 _symmetry_equiv_pos_site_id
 _symmetry_equiv_pos_as_xyz
  1  'x, y, z'
loop_
 _atom_site_type_symbol
 _atom_site_label
 _atom_site_symmetry_multiplicity
 _atom_site_fract_x
 _atom_site_fract_y
 _atom_site_fract_z
 _atom_site_occupancy
 _atom_site_pbe_bader_charge
 _atom_site_pbe_bader_spin_density
 _atom_site_pbe_cm5_charge
 _atom_site_pbe_ddec_charge
 _atom_site_pbe_ddec_spin_density
 _atom_site_pbe_ddec_sum_bond_order
 _atom_site_pbe_magmom
Zn  Zn0  1  0.12497515  0.76309797  0.73682995  1  1.260219  0  0.676573  0.734737  0  2.346312  0
Zn  Zn1  1  0.62505106  0.23686801  0.26312174  1  1.257244  0  0.677524  0.735072  0  2.345645  0
Zn  Zn2  1  0.13824810  0.73687869  0.23688851  1  1.259557  0  0.676837  0.734032  0  2.346822  0
Zn  Zn3  1  0.11181214  0.26311446  0.76315451  1  1.259632  0  0.676952  0.734041  0  2.347597  0
H  H4  1  0.57767427  0.74156480  0.16079263  1  0.150442  0  0.118723  0.093999  0  1.036956  0
H  H5  1  0.80330439  0.74574014  0.00918950  1  0.115084  0  0.107786  0.123777  0  1.038127  0
H  H6  1  0.65158736  0.75298595  0.87802374  1  0.131487  0  0.114566  0.120246  0  1.009536  0
H  H7  1  0.07912521  0.74738146  0.05353032  1  0.108625  0  0.119934  0.089743  0  1.013439  0
H  H8  1  0.48009139  0.25841165  0.83911177  1  0.135088  0  0.117862  0.093446  0  1.037399  0
H  H9  1  0.55839593  0.25424024  0.99070024  1  0.121257  0  0.10755  0.122712  0  1.03845  0
H  H10  1  0.28282437  0.24701159  0.12189113  1  0.136704  0  0.113777  0.119352  0  1.009618  0
H  H11  1  0.88005196  0.25269019  0.94649001  1  0.111491  0  0.119508  0.089953  0  1.013422  0
H  H12  1  0.26153949  0.16089348  0.25842780  1  0.138573  0  0.118233  0.093393  0  1.03743  0
H  H13  1  0.18742754  0.00929659  0.25422661  1  0.149591  0  0.106814  0.122913  0  1.039339  0
H  H14  1  0.47026027  0.87807650  0.24695294  1  0.118365  0  0.114251  0.120089  0  1.010002  0
H  H15  1  0.86731574  0.05350804  0.25265789  1  0.130749  0  0.120263  0.091778  0  1.012876  0
H  H16  1  0.68081246  0.83909344  0.74160093  1  0.130974  0  0.118253  0.093571  0  1.035872  0
H  H17  1  0.45088833  0.99068969  0.74578652  1  0.140271  0  0.106622  0.122551  0  1.03883  0
H  H18  1  0.59518702  0.12190118  0.75304453  1  0.151877  0  0.114386  0.120842  0  1.008923  0
H  H19  1  0.17344097  0.94649492  0.74733411  1  0.088994  0  0.120828  0.090879  0  1.012628  0
H  H20  1  0.76998867  0.66091088  0.24162558  1  0.133878  0  0.117995  0.093386  0  1.037191  0
H  H21  1  0.69166648  0.50931649  0.24579274  1  0.120975  0  0.107662  0.122855  0  1.038706  0
H  H22  1  0.96717927  0.37810565  0.25306517  1  0.136967  0  0.113745  0.119438  0  1.009687  0
H  H23  1  0.37001449  0.55350192  0.24739395  1  0.112129  0  0.119609  0.090218  0  1.013347  0
H  H24  1  0.67240290  0.33908705  0.75835056  1  0.149169  0  0.11871  0.094046  0  1.037112  0
H  H25  1  0.44667213  0.49068936  0.75412579  1  0.114042  0  0.107653  0.123366  0  1.038193  0
H  H26  1  0.59823056  0.62191925  0.74690171  1  0.131368  0  0.114701  0.1206  0  1.009285  0
H  H27  1  0.17070509  0.44650386  0.75269584  1  0.10965  0  0.119976  0.08989  0  1.01362  0
H  H28  1  0.56928667  0.75837984  0.66089408  1  0.132177  0  0.118142  0.093394  0  1.035944  0
H  H29  1  0.79927051  0.75421992  0.50931373  1  0.139532  0  0.106713  0.12271  0  1.038448  0
H  H30  1  0.65492196  0.74698969  0.37808978  1  0.151491  0  0.11425  0.120605  0  1.008962  0
H  H31  1  0.07671148  0.75266485  0.55346605  1  0.089853  0  0.120878  0.090912  0  1.012439  0
H  H32  1  0.98831323  0.24162539  0.33913768  1  0.139109  0  0.118069  0.092946  0  1.037519  0
H  H33  1  0.06241866  0.24583897  0.49074143  1  0.149626  0  0.106816  0.122812  0  1.039128  0
H  H34  1  0.77962197  0.25303400  0.62191751  1  0.117966  0  0.114241  0.120157  0  1.009877  0
H  H35  1  0.38258087  0.24730101  0.44650258  1  0.131183  0  0.120237  0.091631  0  1.012877  0
C  C36  1  0.51997003  0.74299377  0.10107638  1  0.398574  0  0.049941  0.089954  0  3.910464  0
C  C37  1  0.64301646  0.74627092  0.01782599  1  0.025529  0  -0.08034  -0.119736  0  3.943664  0
C  C38  1  0.55846434  0.75090749  0.94408346  1  -0.01432  0  -0.048508  -0.020927  0  3.877079  0
C  C39  1  0.35182220  0.75244316  0.95606715  1  0.036384  0  -0.009769  -0.06976  0  3.96515  0
C  C40  1  0.23995639  0.74720949  0.04176086  1  0.43013  0  0.060105  0.082738  0  3.903416  0
C  C41  1  0.24712168  0.75930933  0.88097148  1  1.568198  0  0.198036  0.56156  0  4.232097  0
C  C42  1  0.36413399  0.25698325  0.89883173  1  0.471243  0  0.052581  0.092447  0  3.909777  0
C  C43  1  0.40725728  0.25367994  0.98206194  1  -0.025728  0  -0.07935  -0.11752  0  3.944947  0
C  C44  1  0.25367931  0.24906506  0.05583456  1  -0.068012  0  -0.049792  -0.022463  0  3.877344  0
C  C45  1  0.06053417  0.24753439  0.04388906  1  0.033556  0  -0.00694  -0.068227  0  3.961857  0
C  C46  1  0.02898426  0.25285323  0.95822628  1  0.501274  0  0.05841  0.081339  0  3.906356  0
C  C47  1  0.88760580  0.24066694  0.11897344  1  1.562328  0  0.195547  0.560461  0  4.229596  0
C  C48  1  0.37893491  0.10116214  0.25698547  1  0.396763  0  0.050903  0.090854  0  3.9087  0
C  C49  1  0.33910082  0.01792044  0.25367734  1  -0.004332  0  -0.078142  -0.117294  0  3.943077  0
C  C50  1  0.49733535  0.94414109  0.24901256  1  -0.048883  0  -0.051053  -0.024265  0  3.877422  0
C  C51  1  0.69200038  0.95611096  0.24750515  1  0.033162  0  -0.006582  -0.066359  0  3.961595  0
C  C52  1  0.71821165  0.04178389  0.25282309  1  0.461979  0  0.057322  0.07795  0  3.910205  0
C  C53  1  0.87186016  0.88103365  0.24063773  1  1.562424  0  0.197422  0.561975  0  4.226694  0
C  C54  1  0.73703207  0.89882223  0.74304427  1  0.428892  0  0.051862  0.092006  0  3.907063  0
C  C55  1  0.61065272  0.98205916  0.74634609  1  -0.014114  0  -0.07816  -0.116988  0  3.943671  0
C  C56  1  0.69042249  0.05584250  0.75099467  1  -0.046432  0  -0.048879  -0.02291  0  3.876173  0
C  C57  1  0.89553344  0.04389000  0.75252301  1  0.040196  0  -0.00901  -0.069368  0  3.962176  0
C  C58  1  0.01278023  0.95821784  0.74717046  1  0.471696  0  0.056752  0.079314  0  3.904626  0
C  C59  1  0.99339283  0.11897349  0.75943577  1  1.553255  0  0.196645  0.562565  0  4.228901  0
C  C60  1  0.88593331  0.60118344  0.24310849  1  0.447288  0  0.052673  0.092882  0  3.908572  0
C  C61  1  0.84276982  0.51795086  0.24639312  1  -0.026396  0  -0.079784  -0.118012  0  3.945467  0
C  C62  1  0.99633458  0.44416438  0.25107476  1  -0.064461  0  -0.049787  -0.022936  0  3.877222  0
C  C63  1  0.18949510  0.45609309  0.25260002  1  0.031709  0  -0.006874  -0.067702  0  3.959692  0
C  C64  1  0.22105159  0.54177448  0.24729882  1  0.497584  0  0.058075  0.080581  0  3.904945  0
C  C65  1  0.36250208  0.38099318  0.25940818  1  1.561417  0  0.195417  0.560413  0  4.229765  0
C  C66  1  0.73006106  0.39881852  0.75687907  1  0.398143  0  0.050036  0.089945  0  3.909912  0
C  C67  1  0.60698784  0.48205687  0.75354410  1  0.023417  0  -0.080175  -0.11901  0  3.94356  0
C  C68  1  0.69137315  0.55584931  0.74892303  1  -0.012143  0  -0.049016  -0.022465  0  3.876873  0
C  C69  1  0.89796995  0.54389357  0.74745096  1  0.037897  0  -0.009437  -0.068453  0  3.964851  0
C  C70  1  0.00990122  0.45822677  0.75280496  1  0.430773  0  0.059639  0.081832  0  3.904179  0
C  C71  1  0.00267162  0.61897633  0.74059990  1  1.566466  0  0.198305  0.562373  0  4.231199  0
C  C72  1  0.51309348  0.75693429  0.60115893  1  0.427779  0  0.051759  0.091636  0  3.906186  0
C  C73  1  0.63953149  0.75366198  0.51792509  1  -0.014308  0  -0.078098  -0.116845  0  3.942866  0
C  C74  1  0.55973239  0.74903377  0.44415599  1  -0.047139  0  -0.048772  -0.022364  0  3.87659  0
C  C75  1  0.35462904  0.74754090  0.45609326  1  0.041132  0  -0.00909  -0.070409  0  3.96355  0
C  C76  1  0.23736760  0.75282396  0.54175183  1  0.470219  0  0.056509  0.079573  0  3.904089  0
C  C77  1  0.25678385  0.74067294  0.38100715  1  1.552611  0  0.19666  0.562946  0  4.229271  0
C  C78  1  0.87092213  0.24306691  0.39885917  1  0.39825  0  0.051116  0.091716  0  3.908646  0
C  C79  1  0.91073100  0.24639665  0.48210165  1  -0.004319  0  -0.078278  -0.117711  0  3.943472  0
C  C80  1  0.75248886  0.25100837  0.55586365  1  -0.048426  0  -0.050795  -0.024007  0  3.877365  0
C  C81  1  0.55781397  0.25250428  0.54392555  1  0.032623  0  -0.007007  -0.066753  0  3.96128  0
C  C82  1  0.53164523  0.24715234  0.45825789  1  0.460437  0  0.057473  0.078439  0  3.909779  0
C  C83  1  0.37809452  0.25936538  0.61906032  1  1.563515  0  0.197155  0.561495  0  4.227075  0
N  N84  1  0.32146247  0.74251386  0.11274412  1  -1.242701  0  -0.327369  -0.226769  0  3.577949  0
N  N85  1  0.17674332  0.25752530  0.88722569  1  -1.278212  0  -0.327159  -0.227874  0  3.581508  0
N  N86  1  0.56577554  0.11279174  0.25749877  1  -1.236015  0  -0.326398  -0.225957  0  3.581655  0
N  N87  1  0.93604047  0.88720818  0.74249733  1  -1.256443  0  -0.326996  -0.226969  0  3.579023  0
N  N88  1  0.07331797  0.61278972  0.24258585  1  -1.251402  0  -0.327082  -0.227624  0  3.580117  0
N  N89  1  0.92851151  0.38721103  0.75746294  1  -1.243126  0  -0.326907  -0.226177  0  3.578277  0
N  N90  1  0.31410297  0.75746674  0.61276652  1  -1.254797  0  -0.326694  -0.226586  0  3.578123  0
N  N91  1  0.68410050  0.24249390  0.38725941  1  -1.236393  0  -0.326347  -0.226504  0  3.58134  0
O  O92  1  0.34930208  0.77185254  0.80320822  1  -1.175558  0  -0.326773  -0.552639  0  2.25172  0
O  O93  1  0.06501699  0.75265034  0.89523955  1  -1.162327  0  -0.314655  -0.53927  0  2.161894  0
O  O94  1  0.92452205  0.22809588  0.19675212  1  -1.166364  0  -0.325651  -0.551576  0  2.248818  0
O  O95  1  0.71312766  0.24735680  0.10470082  1  -1.162919  0  -0.314554  -0.538971  0  2.159539  0
O  O96  1  0.84752190  0.80324216  0.22816859  1  -1.171312  0  -0.326999  -0.552468  0  2.24965  0
O  O97  1  0.03974726  0.89535916  0.24719747  1  -1.160483  0  -0.314898  -0.540002  0  2.158158  0
O  O98  1  0.87867878  0.19675794  0.77200431  1  -1.174321  0  -0.326547  -0.5535  0  2.248916  0
O  O99  1  0.18213016  0.10467116  0.75281562  1  -1.144963  0  -0.314472  -0.53951  0  2.160945  0
O  O100  1  0.32558785  0.30320458  0.27190168  1  -1.165476  0  -0.325788  -0.551915  0  2.248979  0
O  O101  1  0.53694574  0.39528365  0.25276119  1  -1.162558  0  -0.314054  -0.538577  0  2.160321  0
O  O102  1  0.90058878  0.69676543  0.72801524  1  -1.176332  0  -0.327266  -0.553297  0  2.251149  0
O  O103  1  0.18476461  0.60468987  0.74726536  1  -1.160008  0  -0.314571  -0.539779  0  2.161301  0
O  O104  1  0.37146252  0.72810375  0.30322497  1  -1.174292  0  -0.326406  -0.553595  0  2.248818  0
O  O105  1  0.06803213  0.74731561  0.39528688  1  -1.144187  0  -0.314485  -0.539511  0  2.161119  0
O  O106  1  0.40260923  0.27191265  0.69680267  1  -1.172992  0  -0.326833  -0.552278  0  2.248721  0
O  O107  1  0.21020922  0.25269895  0.60483972  1  -1.159991  0  -0.314439  -0.539257  0  2.159161  0
