# generated using pymatgen
data_LaH8C6O7
_symmetry_space_group_name_H-M   'P 1'
_cell_length_a   7.91275284
_cell_length_b   11.97793243
_cell_length_c   12.30302966
_cell_angle_alpha   111.88976861
_cell_angle_beta   90.00788781
_cell_angle_gamma   101.50428039
_symmetry_Int_Tables_number   1
_chemical_formula_structural   LaH8C6O7
_chemical_formula_sum   'La4 H32 C24 O28'
_cell_volume   1056.69025079
_cell_formula_units_Z   4
loop_
 _symmetry_equiv_pos_site_id
 _symmetry_equiv_pos_as_xyz
  1  'x, y, z'
loop_
 _atom_site_type_symbol
 _atom_site_label
 _atom_site_symmetry_multiplicity
 _atom_site_fract_x
 _atom_site_fract_y
 _atom_site_fract_z
 _atom_site_occupancy
 _atom_site_pbe_bader_charge
 _atom_site_pbe_bader_spin_density
 _atom_site_pbe_cm5_charge
 _atom_site_pbe_ddec_charge
 _atom_site_pbe_ddec_spin_density
 _atom_site_pbe_ddec_sum_bond_order
 _atom_site_pbe_magmom
La  La0  1  0.99133628  0.14424369  0.85739209  1  2.253958  0  1.413864  1.897413  0  2.376868  0
La  La1  1  0.00866192  0.85575870  0.14260900  1  2.253899  0  1.413861  1.897427  0  2.376825  0
La  La2  1  0.49108655  0.14497773  0.74665827  1  2.2545  0  1.409647  1.89734  0  2.377342  0
La  La3  1  0.50891265  0.85502375  0.25334411  1  2.254506  0  1.409654  1.897334  0  2.377418  0
H  H4  1  0.52119393  0.09692593  0.16422926  1  0.088178  0  0.114764  0.124647  0  1.006459  0
H  H5  1  0.47881107  0.90307375  0.83576760  1  0.088135  0  0.114776  0.124641  0  1.006464  0
H  H6  1  0.55615389  0.25385058  0.18698914  1  0.055438  0  0.107505  0.12432  0  0.967585  0
H  H7  1  0.44384579  0.74614816  0.81300575  1  0.055425  0  0.107496  0.124314  0  0.967607  0
H  H8  1  0.88376891  0.26779383  0.20774688  1  0.062932  0  0.110088  0.129203  0  0.970967  0
H  H9  1  0.11623182  0.73220858  0.79225503  1  0.062871  0  0.110085  0.129204  0  0.970953  0
H  H10  1  0.76545559  0.23209882  0.31866384  1  0.063393  0  0.111516  0.13274  0  0.961219  0
H  H11  1  0.23454008  0.76790357  0.68133481  1  0.063366  0  0.111515  0.132742  0  0.961246  0
H  H12  1  0.73026252  0.76640791  0.64850011  1  0.067581  0  0.111887  0.133701  0  0.95935  0
H  H13  1  0.26973588  0.23359081  0.35149883  1  0.067646  0  0.11189  0.133706  0  0.959309  0
H  H14  1  0.61323546  0.73249003  0.51175702  1  0.089868  0  0.110921  0.130725  0  0.967464  0
H  H15  1  0.38676521  0.26750778  0.48824484  1  0.089892  0  0.110935  0.130764  0  0.967407  0
H  H16  1  0.89759222  0.55827518  0.16409443  1  0.102713  0  0.115088  0.129888  0  0.979378  0
H  H17  1  0.10240572  0.44172629  0.83590551  1  0.102702  0  0.115101  0.129897  0  0.979363  0
H  H18  1  0.71198426  0.46722230  0.19500869  1  0.021751  0  0.102358  0.119752  0  0.969875  0
H  H19  1  0.28801574  0.53278194  0.80499308  1  0.021724  0  0.102329  0.119739  0  0.969878  0
H  H20  1  0.97766570  0.90028670  0.59251108  1  0.093782  0  0.11402  0.123205  0  1.005254  0
H  H21  1  0.02233244  0.09971109  0.40748996  1  0.093752  0  0.114022  0.123206  0  1.005263  0
H  H22  1  0.93998459  0.74299263  0.50144612  1  0.070325  0  0.109597  0.128139  0  0.955143  0
H  H23  1  0.06001328  0.25700424  0.49855459  1  0.070362  0  0.109623  0.128186  0  0.955155  0
H  H24  1  0.73657216  0.51711300  0.96612360  1  0.108835  0  0.122567  0.151549  0  0.95618  0
H  H25  1  0.26342804  0.48288757  0.03387683  1  0.108702  0  0.122569  0.15156  0  0.956182  0
H  H26  1  0.57656959  0.40701614  0.99410614  1  0.053389  0  0.111641  0.120429  0  0.995745  0
H  H27  1  0.42343114  0.59298627  0.00589577  1  0.053422  0  0.111638  0.120429  0  0.99574  0
H  H28  1  0.63572507  0.14832443  0.51493929  1  0.671601  0  0.301389  0.398988  0  0.936362  0
H  H29  1  0.36427360  0.85167520  0.48506161  1  0.671609  0  0.301396  0.398979  0  0.936368  0
H  H30  1  0.80480228  0.17025850  0.60281676  1  0.640722  0  0.301822  0.394904  0  0.937058  0
H  H31  1  0.19519512  0.82974114  0.39718251  1  0.640716  0  0.301818  0.394921  0  0.937031  0
H  H32  1  0.30302726  0.16642283  0.01968250  1  0.654107  0  0.300802  0.393242  0  0.9395  0
H  H33  1  0.69697140  0.83357681  0.98031759  1  0.654139  0  0.300811  0.393263  0  0.939479  0
H  H34  1  0.13439302  0.14786156  0.09285932  1  0.648943  0  0.301532  0.399719  0  0.935001  0
H  H35  1  0.86560591  0.85213900  0.90714111  1  0.649021  0  0.301524  0.399713  0  0.935018  0
C  C36  1  0.63155834  0.13875837  0.02308073  1  1.570146  0  0.232536  0.66511  0  4.116174  0
C  C37  1  0.36844793  0.86124131  0.97691938  1  1.569767  0  0.232594  0.665153  0  4.116197  0
C  C38  1  0.61506087  0.17293864  0.15409216  1  -0.054099  0  -0.156076  -0.280398  0  3.903624  0
C  C39  1  0.38494287  0.82706104  0.84590469  1  -0.053935  0  -0.156088  -0.280436  0  3.903615  0
C  C40  1  0.78726770  0.19765312  0.22445399  1  -0.000386  0  -0.154409  -0.279366  0  3.915904  0
C  C41  1  0.21273251  0.80234745  0.77554481  1  -0.000463  0  -0.154425  -0.279391  0  3.915886  0
C  C42  1  0.86132113  0.08462008  0.20090900  1  1.544912  0  0.229086  0.667711  0  4.098247  0
C  C43  1  0.13867528  0.91538045  0.79909223  1  1.545107  0  0.22912  0.667763  0  4.098258  0
C  C44  1  0.63839777  0.91566487  0.63845713  1  1.541257  0  0.229769  0.669174  0  4.098064  0
C  C45  1  0.36159936  0.08433384  0.36154262  1  1.540888  0  0.229785  0.669238  0  4.098182  0
C  C46  1  0.71029982  0.80170862  0.57963296  1  -0.024879  0  -0.153967  -0.278103  0  3.912271  0
C  C47  1  0.28969552  0.19828823  0.42036773  1  -0.025353  0  -0.15398  -0.278136  0  3.912386  0
C  C48  1  0.75664333  0.52556021  0.14552184  1  -0.005112  0  -0.154903  -0.269978  0  3.915626  0
C  C49  1  0.24335614  0.47444219  0.85447926  1  -0.005031  0  -0.154889  -0.269957  0  3.915586  0
C  C50  1  0.67221476  0.63501810  0.18622293  1  1.508115  0  0.211569  0.639313  0  4.14351  0
C  C51  1  0.32778418  0.36498247  0.81377506  1  1.508008  0  0.211568  0.639334  0  4.143401  0
C  C52  1  0.86779462  0.85877183  0.42089755  1  1.575014  0  0.23414  0.668467  0  4.11674  0
C  C53  1  0.13220071  0.14122503  0.57910315  1  1.574931  0  0.234194  0.668476  0  4.116592  0
C  C54  1  0.88300757  0.82476765  0.52725777  1  -0.064794  0  -0.154953  -0.278153  0  3.899658  0
C  C55  1  0.11699336  0.17523108  0.47274199  1  -0.064364  0  -0.155014  -0.278248  0  3.899805  0
C  C56  1  0.71381299  0.45390866  0.01318756  1  -0.046799  0  -0.150935  -0.285087  0  3.90374  0
C  C57  1  0.28618721  0.54609190  0.98681368  1  -0.046639  0  -0.150935  -0.285154  0  3.903829  0
C  C58  1  0.82064517  0.35894035  0.95875332  1  1.545308  0  0.215942  0.644247  0  4.138066  0
C  C59  1  0.17935810  0.64106207  0.04124941  1  1.54532  0  0.216076  0.644488  0  4.137726  0
O  O60  1  0.77162935  0.27967338  0.85235934  1  -1.225098  0  -0.435197  -0.693638  0  2.300707  0
O  O61  1  0.22837245  0.72033272  0.14764229  1  -1.225188  0  -0.435255  -0.693726  0  2.300704  0
O  O62  1  0.95340839  0.35550029  0.01293475  1  -1.178033  0  -0.338567  -0.560284  0  2.14819  0
O  O63  1  0.04659335  0.64450120  0.98706764  1  -1.178014  0  -0.338655  -0.560447  0  2.148  0
O  O64  1  0.76842733  0.98903169  0.21133677  1  -1.226294  0  -0.411139  -0.681897  0  2.370436  0
O  O65  1  0.23156680  0.01096975  0.78866641  1  -1.226495  0  -0.411145  -0.681927  0  2.370459  0
O  O66  1  0.01783033  0.08438985  0.17622150  1  -1.199083  0  -0.342788  -0.599779  0  2.24894  0
O  O67  1  0.98216554  0.91560885  0.82377987  1  -1.199157  0  -0.342813  -0.599825  0  2.248995  0
O  O68  1  0.55140145  0.64259074  0.25325585  1  -1.16274  0  -0.343349  -0.567525  0  2.109453  0
O  O69  1  0.44859569  0.35740797  0.74674065  1  -1.162757  0  -0.34341  -0.567553  0  2.109402  0
O  O70  1  0.72555901  0.72155523  0.14607224  1  -1.226614  0  -0.44224  -0.70033  0  2.316806  0
O  O71  1  0.27444273  0.27844627  0.85392690  1  -1.226571  0  -0.442178  -0.700309  0  2.316799  0
O  O72  1  0.51051536  0.15108515  0.96244403  1  -1.213122  0  -0.342673  -0.626695  0  2.254806  0
O  O73  1  0.48949037  0.84891270  0.03755459  1  -1.212821  0  -0.342713  -0.626647  0  2.254669  0
O  O74  1  0.76393940  0.09895797  0.98042067  1  -1.204539  0  -0.379882  -0.616292  0  2.256208  0
O  O75  1  0.23607013  0.90103990  0.01957797  1  -1.204389  0  -0.379869  -0.616331  0  2.256388  0
O  O76  1  0.98805360  0.84469283  0.35075084  1  -1.220459  0  -0.345827  -0.628176  0  2.248416  0
O  O77  1  0.01194581  0.15530497  0.64924858  1  -1.220506  0  -0.345842  -0.628175  0  2.248453  0
O  O78  1  0.73721432  0.90063297  0.40771400  1  -1.200116  0  -0.381285  -0.61562  0  2.260121  0
O  O79  1  0.26278301  0.09936206  0.59228604  1  -1.200044  0  -0.381284  -0.615592  0  2.259889  0
O  O80  1  0.73234446  0.01084208  0.71818452  1  -1.231941  0  -0.410323  -0.685092  0  2.368845  0
O  O81  1  0.26765927  0.98915759  0.28181720  1  -1.231699  0  -0.410305  -0.685083  0  2.369066  0
O  O82  1  0.48219312  0.91697888  0.61424776  1  -1.204294  0  -0.343776  -0.600664  0  2.249743  0
O  O83  1  0.51781087  0.08302171  0.38575593  1  -1.204207  0  -0.343811  -0.600758  0  2.249676  0
O  O84  1  0.68496540  0.18253725  0.59824481  1  -1.303553  0  -0.64111  -0.818823  0  2.024361  0
O  O85  1  0.31503633  0.81746425  0.40175514  1  -1.30355  0  -0.64111  -0.818839  0  2.024363  0
O  O86  1  0.18413183  0.18056667  0.03351909  1  -1.294727  0  -0.640654  -0.817982  0  2.03212  0
O  O87  1  0.81586838  0.81943390  0.96647890  1  -1.294815  0  -0.640655  -0.817986  0  2.032064  0
