# generated using pymatgen
data_Zn4H39C44N17O2
_symmetry_space_group_name_H-M   'P 1'
_cell_length_a   14.43969484
_cell_length_b   15.01726838
_cell_length_c   15.34498042
_cell_angle_alpha   102.60136829
_cell_angle_beta   109.48260669
_cell_angle_gamma   114.43011968
_symmetry_Int_Tables_number   1
_chemical_formula_structural   Zn4H39C44N17O2
_chemical_formula_sum   'Zn4 H39 C44 N17 O2'
_cell_volume   2598.69315137
_cell_formula_units_Z   1
loop_
 _symmetry_equiv_pos_site_id
 _symmetry_equiv_pos_as_xyz
  1  'x, y, z'
loop_
 _atom_site_type_symbol
 _atom_site_label
 _atom_site_symmetry_multiplicity
 _atom_site_fract_x
 _atom_site_fract_y
 _atom_site_fract_z
 _atom_site_occupancy
 _atom_site_pbe_bader_charge
 _atom_site_pbe_bader_spin_density
 _atom_site_pbe_cm5_charge
 _atom_site_pbe_ddec_charge
 _atom_site_pbe_ddec_spin_density
 _atom_site_pbe_ddec_sum_bond_order
 _atom_site_pbe_magmom
Zn  Zn0  1  0.12823636  0.64556726  0.07853856  1  1.181854  0  0.759137  0.621164  0  2.483655  0
Zn  Zn1  1  0.84255493  0.37274401  0.98942874  1  1.190555  0  0.740416  0.60257  0  2.499964  0
Zn  Zn2  1  0.85047846  0.50405272  0.84182653  1  1.19527  0  0.729918  0.600018  0  2.49074  0
Zn  Zn3  1  0.12104351  0.49788820  0.17652577  1  1.179732  0  0.751801  0.614593  0  2.455245  0
H  H4  1  0.15319241  0.87683318  0.14293327  1  0.114322  0  0.121013  0.115008  0  0.999234  0
H  H5  1  0.77389744  0.48868175  0.12785653  1  0.056183  0  0.120896  0.109093  0  0.994034  0
H  H6  1  0.59241222  0.47205130  0.77083757  1  0.080167  0  0.116684  0.105776  0  0.996489  0
H  H7  1  0.37613393  0.66760054  0.40860816  1  0.071419  0  0.11756  0.107728  0  0.999403  0
H  H8  1  0.56844713  0.28279217  0.94755108  1  0.071159  0  0.115055  0.101285  0  1.001475  0
H  H9  1  0.37777277  0.86740944  0.24353875  1  0.079319  0  0.119307  0.107323  0  1.003109  0
H  H10  1  0.14563753  0.70240679  0.31160622  1  0.087887  0  0.118522  0.109933  0  1.018998  0
H  H11  1  0.78853816  0.66753156  0.92430084  1  0.079707  0  0.120077  0.104303  0  1.005808  0
H  H12  1  0.15212024  0.54006494  0.87388463  1  0.093114  0  0.121468  0.114734  0  0.999032  0
H  H13  1  0.80287494  0.15814236  0.84815479  1  0.060126  0  0.110199  0.094721  0  1.025261  0
H  H14  1  0.75434900  0.50491123  0.60162666  1  0.084991  0  0.105504  0.092992  0  1.014193  0
H  H15  1  0.10089678  0.32193324  0.26823143  1  0.093253  0  0.124929  0.115591  0  0.981771  0
H  H16  1  0.75973027  0.14419148  0.00703866  1  0.117668  0  0.122076  0.107835  0  0.990594  0
H  H17  1  0.12554213  0.72929105  0.75662408  1  0.027598  0  0.105497  0.090925  0  1.006065  0
H  H18  1  0.16436820  0.33493942  0.03248726  1  0.097225  0  0.122125  0.111351  0  0.988787  0
H  H19  1  0.80614764  0.33018368  0.65561177  1  0.084732  0  0.114924  0.102235  0  1.018572  0
H  H20  1  0.49542756  0.83626974  0.56170582  1  0.00072  0  0.085316  0.077569  0  0.995379  0
H  H21  1  0.42558770  0.90806166  0.54061523  1  0.013677  0  0.086766  0.082478  0  0.984101  0
H  H22  1  0.58283069  0.04922830  0.69382440  1  0.022218  0  0.086039  0.080756  0  0.99497  0
H  H23  1  0.66439127  0.98767194  0.69746552  1  0.007502  0  0.086774  0.081288  0  0.985051  0
H  H24  1  0.64675415  0.86221608  0.50258338  1  0.002982  0  0.086754  0.082753  0  0.983447  0
H  H25  1  0.80361406  0.03285872  0.62611605  1  0.033356  0  0.090313  0.08892  0  0.983718  0
H  H26  1  0.54438313  0.01417130  0.37949310  1  0.008795  0  0.087872  0.080283  0  0.984243  0
H  H27  1  0.43459717  0.99368920  0.41421060  1  0.023526  0  0.087552  0.080614  0  0.989681  0
H  H28  1  0.56494947  0.14104146  0.57103606  1  0.023909  0  0.089573  0.088532  0  0.977816  0
H  H29  1  0.66299811  0.17531498  0.52214285  1  -0.017576  0  0.089198  0.083896  0  0.993391  0
H  H30  1  0.65058192  0.91668900  0.41221466  1  0.007086  0  0.087877  0.083511  0  0.987657  0
H  H31  1  0.78671439  0.09177261  0.53887221  1  0.016338  0  0.088145  0.085767  0  0.981575  0
H  H32  1  0.10163243  0.76042474  0.60635641  1  0.02416  0  0.090709  0.088691  0  1.009579  0
H  H33  1  0.84698551  0.57537063  0.47681983  1  0.036018  0  0.094783  0.09039  0  0.997883  0
H  H34  1  0.11259678  0.74335592  0.45394206  1  0.000443  0  0.091445  0.084899  0  0.999437  0
H  H35  1  0.84726704  0.59676661  0.33227799  1  0.01944  0  0.095838  0.09912  0  1.003845  0
H  H36  1  0.37037368  0.24407411  0.89421946  1  0.036786  0  0.0933  0.088453  0  1.00028  0
H  H37  1  0.40963196  0.42239335  0.81752418  1  0.030384  0  0.095725  0.094803  0  1.000767  0
H  H38  1  0.23453778  0.26821720  0.93153145  1  0.056756  0  0.095609  0.092969  0  0.997461  0
H  H39  1  0.25961130  0.42768928  0.83162522  1  0.034601  0  0.098257  0.098135  0  0.996982  0
H  H40  1  0.75484597  0.97593190  0.01948510  1  0.05226  0  0.09908  0.097519  0  0.989596  0
H  H41  1  0.99741292  0.10673375  0.20596129  1  0.071199  0  0.104018  0.106085  0  1.002065  0
H  H42  1  0.77216568  0.81997243  0.02365937  1  0.0792  0  0.109153  0.119893  0  0.978171  0
C  C43  1  0.06737438  0.81191799  0.08342040  1  0.390005  0  0.0108  -0.045553  0  3.959206  0
C  C44  1  0.86736587  0.53484116  0.15891456  1  0.488952  0  0.018456  -0.032468  0  3.917516  0
C  C45  1  0.60463871  0.42831039  0.81706174  1  0.412226  0  0.00079  -0.07229  0  3.998876  0
C  C46  1  0.36156183  0.70230223  0.35410387  1  0.368623  0  0.00338  -0.061666  0  3.993328  0
C  C47  1  0.59150732  0.33051408  0.90582480  1  0.383479  0  0.004096  -0.064389  0  3.985242  0
C  C48  1  0.36246768  0.80390128  0.26994151  1  0.371308  0  0.004085  -0.06277  0  4.02001  0
C  C49  1  0.05670055  0.64398717  0.25328843  1  0.379954  0  0.00136  -0.061554  0  3.908031  0
C  C50  1  0.88042651  0.70434951  0.97344516  1  0.516434  0  0.022171  -0.0221  0  3.924956  0
C  C51  1  0.96352969  0.81067842  0.04739828  1  0.024475  0  -0.035442  -0.050109  0  4.118537  0
C  C52  1  0.95349822  0.61391678  0.25827607  1  -0.007127  0  -0.031064  0.033592  0  4.102524  0
C  C53  1  0.53006481  0.36949955  0.85058959  1  -0.006326  0  -0.042631  0.006865  0  4.151971  0
C  C54  1  0.42275884  0.80888555  0.36565078  1  0.070817  0  -0.030559  -0.042873  0  4.00202  0
C  C55  1  0.15067863  0.49782472  0.92306240  1  0.442023  0  0.018375  -0.032673  0  3.927041  0
C  C56  1  0.81261139  0.21556941  0.81420004  1  0.379856  0  -0.003751  -0.069643  0  4.002308  0
C  C57  1  0.84652046  0.55773823  0.65424306  1  0.360748  0  -0.012545  -0.081667  0  4.027006  0
C  C58  1  0.01948897  0.29455985  0.20343437  1  0.407646  0  0.014523  -0.051443  0  3.965925  0
C  C59  1  0.84594636  0.20342142  0.06984598  1  0.385446  0  0.017906  -0.042062  0  3.956533  0
C  C60  1  0.03588698  0.67289534  0.73447134  1  0.469491  0  -0.006447  -0.05646  0  4.041682  0
C  C61  1  0.15541969  0.39229782  0.00341626  1  0.433838  0  0.016112  -0.033897  0  3.941768  0
C  C62  1  0.81432340  0.30278084  0.71610996  1  0.436666  0  0.002229  -0.058713  0  3.977125  0
C  C63  1  0.17610390  0.41692767  0.92548690  1  0.005192  0  -0.03407  0.015142  0  4.096488  0
C  C64  1  0.77463417  0.19830295  0.71178506  1  -0.040003  0  -0.03409  -0.048356  0  3.983225  0
C  C65  1  0.93615676  0.62513918  0.63867351  1  0.006376  0  -0.054279  -0.016304  0  4.164922  0
C  C66  1  0.92286630  0.18948697  0.14257092  1  0.028448  0  -0.036823  0.012117  0  4.126246  0
C  C67  1  0.50616817  0.91009446  0.55279431  1  -0.019061  0  -0.161119  -0.184396  0  3.882244  0
C  C68  1  0.61140267  0.01041823  0.64841985  1  -0.019907  0  -0.161323  -0.18602  0  3.873926  0
C  C69  1  0.64176270  0.92633547  0.48162934  1  -0.00937  0  -0.158427  -0.183696  0  3.854715  0
C  C70  1  0.52222730  0.00764016  0.44079781  1  -0.048048  0  -0.161748  -0.183464  0  3.883957  0
C  C71  1  0.52137244  0.90985068  0.45795896  1  0.084473  0  -0.012241  0.12531  0  3.836327  0
C  C72  1  0.68839883  0.09266623  0.61935153  1  0.074328  0  -0.009457  0.131015  0  3.812616  0
C  C73  1  0.73968456  0.03937423  0.56863714  1  -0.026414  0  -0.159166  -0.188362  0  3.85461  0
C  C74  1  0.60947103  0.11139679  0.53870540  1  0.004379  0  -0.1611  -0.186581  0  3.879934  0
C  C75  1  0.01990289  0.70287634  0.53658824  1  -0.056208  0  -0.121464  -0.134364  0  4.087236  0
C  C76  1  0.92953599  0.63407435  0.54571711  1  -0.044122  0  -0.091132  -0.09465  0  4.037547  0
C  C77  1  0.02463784  0.69873094  0.44348582  1  -0.035449  0  -0.102627  -0.076518  0  4.081997  0
C  C78  1  0.93676922  0.63935092  0.34631103  1  0.007016  0  -0.114441  -0.162634  0  4.039023  0
C  C79  1  0.35369334  0.30257981  0.87196821  1  -0.01363  0  -0.109355  -0.102407  0  4.080422  0
C  C80  1  0.42509117  0.36437739  0.84197178  1  -0.054742  0  -0.102725  -0.130366  0  4.04252  0
C  C81  1  0.26686736  0.31418064  0.89093788  1  0.002581  0  -0.108423  -0.105337  0  4.074259  0
C  C82  1  0.23260322  0.38376737  0.87550915  1  -0.065249  0  -0.096698  -0.122275  0  4.025631  0
C  C83  1  0.83706714  0.99126130  0.07483085  1  -0.043408  0  -0.108332  -0.099931  0  4.073201  0
C  C84  1  0.91983104  0.09305946  0.14537640  1  -0.025015  0  -0.094176  -0.115784  0  4.030739  0
C  C85  1  0.85041683  0.89981245  0.05903168  1  0.066903  0  -0.094504  -0.151086  0  4.027272  0
C  C86  1  0.94879355  0.90050064  0.07413486  1  0.134033  0  0.0744  0.041864  0  3.963235  0
N  N87  1  0.04647203  0.71444094  0.03389035  1  -0.797205  0  -0.282078  -0.157523  0  3.644328  0
N  N88  1  0.91579800  0.51691423  0.10147103  1  -0.813229  0  -0.285699  -0.184855  0  3.608085  0
N  N89  1  0.70134347  0.42466365  0.84964768  1  -0.806891  0  -0.273454  -0.177042  0  3.560026  0
N  N90  1  0.27163967  0.63953044  0.25872442  1  -0.812762  0  -0.283509  -0.190266  0  3.590026  0
N  N91  1  0.69312406  0.36397365  0.90507482  1  -0.762258  0  -0.270624  -0.17166  0  3.557979  0
N  N92  1  0.27278874  0.70333292  0.20690393  1  -0.81275  0  -0.290205  -0.18323  0  3.606043  0
N  N93  1  0.03350784  0.58348961  0.15924688  1  -0.829622  0  -0.303291  -0.223456  0  3.631671  0
N  N94  1  0.93121434  0.64781163  0.96639280  1  -0.769332  0  -0.255628  -0.155849  0  3.534062  0
N  N95  1  0.12013053  0.52015407  0.99506128  1  -0.811169  0  -0.290017  -0.193398  0  3.638617  0
N  N96  1  0.86740192  0.32150443  0.87392673  1  -0.782744  0  -0.292067  -0.186823  0  3.617718  0
N  N97  1  0.89138812  0.56711131  0.75069097  1  -0.847152  0  -0.296671  -0.193388  0  3.670415  0
N  N98  1  0.00208206  0.36438204  0.16873264  1  -0.797416  0  -0.282163  -0.177725  0  3.576842  0
N  N99  1  0.89353705  0.30710535  0.08526946  1  -0.800345  0  -0.264952  -0.164973  0  3.535434  0
N  N100  1  0.00942595  0.63790167  0.80066143  1  -0.699645  0  -0.276786  -0.242231  0  3.269574  0
N  N101  1  0.12337018  0.45499471  0.04450878  1  -0.823721  0  -0.289224  -0.201154  0  3.647332  0
N  N102  1  0.86829191  0.37546516  0.81304521  1  -0.790378  0  -0.281861  -0.182132  0  3.576258  0
N  N103  1  0.05974849  0.00486624  0.11643699  1  0.396042  0  0.058827  0.524259  0  4.205397  0
O  O104  1  0.13241485  0.03740905  0.20579649  1  -0.460076  0  -0.145498  -0.35117  0  1.866476  0
O  O105  1  0.07400856  0.04962109  0.05939296  1  -0.431043  0  -0.130828  -0.324931  0  1.867299  0
