# generated using pymatgen
data_Zn4H9C28S2BrCl4O13
_symmetry_space_group_name_H-M   'P 1'
_cell_length_a   18.38974261
_cell_length_b   19.64368336
_cell_length_c   32.68312580
_cell_angle_alpha   86.10577055
_cell_angle_beta   73.67150901
_cell_angle_gamma   62.01372940
_symmetry_Int_Tables_number   1
_chemical_formula_structural   Zn4H9C28S2BrCl4O13
_chemical_formula_sum   'Zn16 H36 C112 S8 Br4 Cl16 O52'
_cell_volume   9976.76451573
_cell_formula_units_Z   4
loop_
 _symmetry_equiv_pos_site_id
 _symmetry_equiv_pos_as_xyz
  1  'x, y, z'
loop_
 _atom_site_type_symbol
 _atom_site_label
 _atom_site_symmetry_multiplicity
 _atom_site_fract_x
 _atom_site_fract_y
 _atom_site_fract_z
 _atom_site_occupancy
 _atom_site_pbe_bader_charge
 _atom_site_pbe_bader_spin_density
 _atom_site_pbe_cm5_charge
 _atom_site_pbe_ddec_charge
 _atom_site_pbe_ddec_spin_density
 _atom_site_pbe_ddec_sum_bond_order
 _atom_site_pbe_magmom
Zn  Zn0  1  0.87420254  0.54614013  0.51838698  1  1.317637  0  0.675282  0.974162  0  2.308472  0
Zn  Zn1  1  0.04519752  0.48063506  0.43903814  1  1.319758  0  0.676775  0.970158  0  2.409919  0
Zn  Zn2  1  0.05303658  0.39974973  0.52454720  1  1.320269  0  0.675653  0.969958  0  2.374451  0
Zn  Zn3  1  0.03980958  0.56933843  0.51602355  1  1.318464  0  0.674261  0.96965  0  2.359355  0
Zn  Zn4  1  0.62489264  0.18223501  0.73642482  1  1.318575  0  0.674846  0.970153  0  2.343312  0
Zn  Zn5  1  0.47834760  0.34952731  0.72506539  1  1.31826  0  0.675564  0.967609  0  2.376948  0
Zn  Zn6  1  0.44603229  0.26910044  0.81190498  1  1.317607  0  0.674846  0.971204  0  2.355764  0
Zn  Zn7  1  0.44930072  0.20160192  0.72486978  1  1.319115  0  0.673008  0.963365  0  2.3815  0
Zn  Zn8  1  0.46755713  0.75578182  0.31446959  1  1.302205  0  0.672673  0.966213  0  2.326993  0
Zn  Zn9  1  0.46273857  0.68681225  0.22861640  1  1.323793  0  0.67761  0.974462  0  2.393968  0
Zn  Zn10  1  0.62560092  0.70127926  0.22784238  1  1.318623  0  0.674835  0.966416  0  2.384313  0
Zn  Zn11  1  0.44704752  0.85179318  0.22964640  1  1.31772  0  0.674164  0.967308  0  2.371062  0
Zn  Zn12  1  0.02530760  0.90063866  0.02523729  1  1.319502  0  0.674516  0.967198  0  2.361921  0
Zn  Zn13  1  0.06549080  0.04709101  0.01568203  1  1.318747  0  0.673701  0.967529  0  2.31037  0
Zn  Zn14  1  0.87714754  0.06844037  0.02395845  1  1.322748  0  0.678246  0.974589  0  2.398473  0
Zn  Zn15  1  0.02425124  0.98841340  0.93893891  1  1.316496  0  0.673668  0.968317  0  2.373077  0
H  H16  1  0.79326375  0.95649761  0.66040719  1  0.118444  0  0.122507  0.148128  0  0.968068  0
H  H17  1  0.31914266  0.97039525  0.40880867  1  0.104755  0  0.120027  0.144106  0  0.97282  0
H  H18  1  0.56722480  0.44981866  0.62401093  1  0.061037  0  0.09922  0.113188  0  0.97909  0
H  H19  1  0.56885080  0.49876354  0.66740499  1  0.051245  0  0.099351  0.11341  0  0.979532  0
H  H20  1  0.66195200  0.54721498  0.61576798  1  0.074261  0  0.099886  0.112556  0  0.979949  0
H  H21  1  0.66099385  0.49798523  0.57224456  1  0.072648  0  0.099166  0.10965  0  0.979443  0
H  H22  1  0.36066079  0.66322404  0.42565537  1  0.057211  0  0.098817  0.109274  0  0.982721  0
H  H23  1  0.27287059  0.75531752  0.42397676  1  0.028007  0  0.099845  0.110147  0  0.977674  0
H  H24  1  0.17000549  0.71373995  0.47295259  1  0.083714  0  0.100687  0.113625  0  0.977337  0
H  H25  1  0.25803160  0.62200029  0.47501866  1  0.065964  0  0.098172  0.109572  0  0.98337  0
H  H26  1  0.55835021  0.75418163  0.42458510  1  0.05627  0  0.100127  0.112296  0  0.97647  0
H  H27  1  0.55519359  0.66486628  0.42493011  1  0.044099  0  0.099116  0.109179  0  0.980593  0
H  H28  1  0.65205456  0.61432017  0.47339676  1  0.083536  0  0.099174  0.111326  0  0.980082  0
H  H29  1  0.65492910  0.70381763  0.47324420  1  0.069664  0  0.096795  0.107826  0  0.986655  0
H  H30  1  0.33435115  0.20325955  0.63053019  1  0.061828  0  0.100516  0.112177  0  0.97487  0
H  H31  1  0.24417930  0.24621322  0.67647530  1  0.04529  0  0.099757  0.11416  0  0.979141  0
H  H32  1  0.14517139  0.29598885  0.62905815  1  0.048636  0  0.098759  0.113099  0  0.982578  0
H  H33  1  0.23523712  0.25318882  0.58308876  1  0.063384  0  0.100648  0.113824  0  0.974973  0
H  H34  1  0.18156145  0.66112284  0.96193125  1  0.13473  0  0.121873  0.147462  0  0.969674  0
H  H35  1  0.93235298  0.09570699  0.83241029  1  0.050973  0  0.099499  0.112385  0  0.979664  0
H  H36  1  0.93452700  0.00413844  0.83146796  1  0.087746  0  0.101178  0.115072  0  0.975281  0
H  H37  1  0.83845281  0.05138548  0.78280930  1  0.053255  0  0.100272  0.113144  0  0.975898  0
H  H38  1  0.83470037  0.14353881  0.78419326  1  0.062165  0  0.097843  0.110283  0  0.983698  0
H  H39  1  0.17120027  0.19998904  0.96889522  1  0.043344  0  0.099697  0.110168  0  0.977969  0
H  H40  1  0.26407802  0.11002073  0.96753179  1  0.072471  0  0.100492  0.113353  0  0.978395  0
H  H41  1  0.35708817  0.16193508  0.91888068  1  0.062627  0  0.097962  0.111514  0  0.983844  0
H  H42  1  0.26416856  0.25155463  0.91985807  1  0.059617  0  0.100566  0.113814  0  0.975486  0
H  H43  1  0.95674755  0.29307151  0.09008525  1  0.11132  0  0.120049  0.143851  0  0.971753  0
H  H44  1  0.26264239  0.00954695  0.07039842  1  0.060421  0  0.100435  0.112482  0  0.978638  0
H  H45  1  0.16956182  0.05776124  0.11445081  1  0.069615  0  0.099861  0.110759  0  0.977444  0
H  H46  1  0.26216412  0.01276571  0.16496254  1  0.081498  0  0.101331  0.114322  0  0.97558  0
H  H47  1  0.35537610  0.96627321  0.12073325  1  0.085711  0  0.098709  0.11054  0  0.982218  0
H  H48  1  0.93262138  0.74383594  0.08635270  1  0.092793  0  0.100044  0.112052  0  0.97745  0
H  H49  1  0.93439377  0.78978702  0.13099088  1  0.060426  0  0.100394  0.113295  0  0.977944  0
H  H50  1  0.83518744  0.74510710  0.18061879  1  0.069577  0  0.099937  0.114024  0  0.9796  0
H  H51  1  0.83426391  0.69831541  0.13610384  1  0.055372  0  0.10053  0.112495  0  0.9753  0
C  C52  1  0.87286332  0.56374381  0.42886369  1  1.588261  0  0.228801  0.624994  0  4.144168  0
C  C53  1  0.13043513  0.31342714  0.44122613  1  1.574506  0  0.215679  0.620409  0  4.202253  0
C  C54  1  0.88120237  0.41406211  0.56861539  1  1.582614  0  0.22909  0.622971  0  4.153336  0
C  C55  1  0.14120538  0.45222413  0.56667041  1  1.57384  0  0.228663  0.622746  0  4.15389  0
C  C56  1  0.86037251  0.68158888  0.56084648  1  1.590977  0  0.217592  0.624667  0  4.196911  0
C  C57  1  0.13479309  0.57109424  0.43000105  1  1.576356  0  0.228579  0.62586  0  4.147334  0
C  C58  1  0.66227864  0.30051882  0.68811491  1  1.584041  0  0.228009  0.622281  0  4.152937  0
C  C59  1  0.37293845  0.43852550  0.80813403  1  1.58715  0  0.216163  0.620286  0  4.207177  0
C  C60  1  0.61755159  0.18152866  0.82764010  1  1.587811  0  0.229899  0.624753  0  4.155438  0
C  C61  1  0.35423460  0.18124226  0.81045312  1  1.582943  0  0.228991  0.622397  0  4.155749  0
C  C62  1  0.61532631  0.06755522  0.68642244  1  1.612138  0  0.219919  0.613439  0  4.207518  0
C  C63  1  0.37252327  0.33594388  0.67710606  1  1.571488  0  0.227337  0.620216  0  4.153186  0
C  C64  1  0.36586524  0.67654199  0.31554750  1  1.546492  0  0.228784  0.625176  0  4.15147  0
C  C65  1  0.63794963  0.56871741  0.18618675  1  1.56734  0  0.215436  0.619699  0  4.204233  0
C  C66  1  0.64711276  0.67824019  0.31550523  1  1.54856  0  0.227883  0.620374  0  4.159321  0
C  C67  1  0.61682335  0.83543274  0.18109409  1  1.60603  0  0.22839  0.62376  0  4.151058  0
C  C68  1  0.37460152  0.92611393  0.31796606  1  1.57374  0  0.219365  0.613819  0  4.209302  0
C  C69  1  0.35947893  0.81078025  0.18321786  1  1.555819  0  0.22875  0.623528  0  4.154603  0
C  C70  1  0.13324272  0.91998921  0.07042746  1  1.558146  0  0.229205  0.625967  0  4.15172  0
C  C71  1  0.91020294  0.18295584  0.06138417  1  1.600397  0  0.218822  0.61181  0  4.208956  0
C  C72  1  0.84566788  0.94552530  0.06845632  1  1.596146  0  0.229876  0.623951  0  4.153131  0
C  C73  1  0.84345316  0.07573236  0.94095437  1  1.604689  0  0.230217  0.626064  0  4.148321  0
C  C74  1  0.11926693  0.81848377  0.93957983  1  1.593155  0  0.218795  0.612141  0  4.209885  0
C  C75  1  0.13271632  0.06443379  0.92463148  1  1.570269  0  0.229795  0.626685  0  4.147585  0
C  C76  1  0.71963053  0.80586032  0.59787190  1  -0.029708  0  -0.023783  0.059604  0  4.004669  0
C  C77  1  0.74893901  0.94258230  0.65135706  1  0.004058  0  -0.087246  -0.131591  0  3.959841  0
C  C78  1  0.80762560  0.75659774  0.58605684  1  -0.084709  0  -0.031154  -0.175775  0  3.948587  0
C  C79  1  0.66147772  0.99174655  0.66205557  1  -0.170791  0  -0.022252  -0.113717  0  3.967436  0
C  C80  1  0.77012369  0.87518855  0.62764847  1  -0.160538  0  -0.020809  0.003193  0  4.077053  0
C  C81  1  0.69796169  0.87395437  0.62130682  1  -0.13998  0  -0.030159  -0.072399  0  4.084938  0
C  C82  1  0.20099763  0.22096763  0.37297781  1  0.016531  0  -0.023105  0.059463  0  4.0061  0
C  C83  1  0.30316522  0.01601532  0.38698567  1  -0.011125  0  -0.088982  -0.134173  0  3.963245  0
C  C84  1  0.17804706  0.23806681  0.41680357  1  -0.105833  0  -0.030315  -0.170647  0  3.952154  0
C  C85  1  0.32623429  0.00113012  0.34315290  1  -0.117878  0  -0.023196  -0.116347  0  3.97494  0
C  C86  1  0.25797226  0.09650302  0.39806698  1  -0.141259  0  -0.020212  0.004391  0  4.067196  0
C  C87  1  0.24705591  0.14050443  0.36226480  1  -0.165352  0  -0.030787  -0.074194  0  4.106002  0
C  C88  1  0.72435997  0.32424875  0.65926314  1  0.098301  0  -0.013454  -0.123036  0  3.936421  0
C  C89  1  0.83209728  0.38036088  0.59982608  1  0.060526  0  -0.013655  -0.123563  0  3.930082  0
C  C90  1  0.69123835  0.39371651  0.64009204  1  -0.071867  0  -0.003527  0.071022  0  3.903027  0
C  C91  1  0.86813244  0.30976144  0.61951832  1  0.074575  0  0.016146  0.068434  0  3.97272  0
C  C92  1  0.74266819  0.42037646  0.61166964  1  0.017658  0  -0.004941  0.069299  0  3.905456  0
C  C93  1  0.81543812  0.28249706  0.64850742  1  0.079573  0  0.015926  0.069246  0  3.982037  0
C  C94  1  0.60834037  0.46285390  0.63728969  1  -0.009708  0  -0.150395  -0.198124  0  3.873542  0
C  C95  1  0.66674563  0.49313311  0.60499531  1  -0.043039  0  -0.150114  -0.196284  0  3.88035  0
C  C96  1  0.30563276  0.64877606  0.34197238  1  0.035329  0  -0.014092  -0.124011  0  3.932122  0
C  C97  1  0.18839132  0.60012734  0.39870882  1  0.009078  0  -0.01258  -0.116117  0  3.944933  0
C  C98  1  0.28154241  0.66058146  0.38638614  1  -0.009503  0  -0.005445  0.066638  0  3.905996  0
C  C99  1  0.20992312  0.58855678  0.35358874  1  0.114901  0  0.017414  0.068634  0  3.984427  0
C  C100  1  0.22493772  0.63779874  0.41354804  1  -0.016933  0  -0.005358  0.066102  0  3.911278  0
C  C101  1  0.26794827  0.61145684  0.32577107  1  0.147276  0  0.018256  0.070762  0  3.976148  0
C  C102  1  0.29479130  0.69277690  0.42295861  1  0.02124  0  -0.148286  -0.19257  0  3.879163  0
C  C103  1  0.23050404  0.66674063  0.45378929  1  -0.053864  0  -0.149629  -0.19884  0  3.874498  0
C  C104  1  0.70984604  0.64883306  0.34143141  1  0.055535  0  -0.012289  -0.120999  0  3.930596  0
C  C105  1  0.82112525  0.59039468  0.39754544  1  0.099555  0  -0.012729  -0.118274  0  3.934769  0
C  C106  1  0.67878152  0.65790148  0.38590429  1  -0.067282  0  -0.006299  0.065833  0  3.90806  0
C  C107  1  0.85521810  0.57995200  0.35224965  1  0.136298  0  0.017526  0.068426  0  3.974776  0
C  C108  1  0.73191810  0.62996183  0.41268930  1  -0.065622  0  -0.004696  0.067988  0  3.909454  0
C  C109  1  0.80097694  0.60943165  0.32482561  1  0.096928  0  0.018203  0.070835  0  3.971652  0
C  C110  1  0.59725070  0.69108491  0.42274207  1  0.014837  0  -0.148844  -0.194041  0  3.878341  0
C  C111  1  0.65771868  0.65952041  0.45316041  1  -0.057581  0  -0.151945  -0.199212  0  3.877892  0
C  C112  1  0.31232561  0.37272583  0.65010538  1  0.008294  0  -0.012978  -0.12028  0  3.935306  0
C  C113  1  0.19785867  0.43033387  0.59558127  1  0.050935  0  -0.013186  -0.12357  0  3.934434  0
C  C114  1  0.27643840  0.33092519  0.63857317  1  0.008536  0  -0.004222  0.068599  0  3.905115  0
C  C115  1  0.23134816  0.47556384  0.60777898  1  0.106228  0  0.01684  0.070296  0  3.976014  0
C  C116  1  0.22192915  0.35836628  0.61247400  1  -0.019998  0  -0.003981  0.070785  0  3.90628  0
C  C117  1  0.28732456  0.44737611  0.63436187  1  0.114447  0  0.015957  0.068155  0  3.979661  0
C  C118  1  0.27290060  0.25520531  0.64362970  1  0.00373  0  -0.14892  -0.194311  0  3.872246  0
C  C119  1  0.21097174  0.28638322  0.61396794  1  -0.001003  0  -0.150335  -0.198245  0  3.876779  0
C  C120  1  0.29848674  0.58844080  0.81880284  1  -0.02405  0  -0.023015  0.059888  0  4.00141  0
C  C121  1  0.19680624  0.67090571  0.92815395  1  0.075281  0  -0.086411  -0.130697  0  3.958055  0
C  C122  1  0.32394836  0.51419765  0.83255490  1  -0.122237  0  -0.030986  -0.173703  0  3.949355  0
C  C123  1  0.17110181  0.74420835  0.91365593  1  -0.201888  0  -0.023044  -0.114527  0  3.970637  0
C  C124  1  0.24311347  0.61393855  0.89355372  1  -0.248524  0  -0.020476  0.003484  0  4.072035  0
C  C125  1  0.25208991  0.64538761  0.85347537  1  -0.125807  0  -0.03024  -0.072159  0  4.093805  0
C  C126  1  0.78045290  0.10338655  0.91522179  1  0.015586  0  -0.012135  -0.11747  0  3.935977  0
C  C127  1  0.66876583  0.15575658  0.85930755  1  -0.00222  0  -0.015384  -0.125611  0  3.934434  0
C  C128  1  0.81143372  0.09594205  0.87079608  1  0.054938  0  -0.00473  0.067527  0  3.907436  0
C  C129  1  0.63509548  0.16283749  0.90462695  1  0.09921  0  0.016301  0.069501  0  3.979307  0
C  C130  1  0.75803300  0.12144699  0.84410323  1  0.025484  0  -0.005087  0.068207  0  3.905709  0
C  C131  1  0.68967324  0.13762775  0.93188562  1  0.058608  0  0.015437  0.065306  0  3.989248  0
C  C132  1  0.89295421  0.06690745  0.83400552  1  -0.048425  0  -0.150229  -0.198732  0  3.872816  0
C  C133  1  0.83231409  0.09640806  0.80366883  1  0.008461  0  -0.149557  -0.19459  0  3.874803  0
C  C134  1  0.18961063  0.09013817  0.89280406  1  0.014767  0  -0.013252  -0.121099  0  3.933867  0
C  C135  1  0.29765175  0.14916166  0.83634495  1  0.011026  0  -0.013606  -0.123182  0  3.932106  0
C  C136  1  0.22580815  0.12824477  0.90772662  1  -0.024895  0  -0.005107  0.067247  0  3.906916  0
C  C137  1  0.26231990  0.10982500  0.81995719  1  0.13326  0  0.016718  0.069383  0  3.977815  0
C  C138  1  0.27701490  0.15674697  0.88080197  1  0.033184  0  -0.004198  0.069388  0  3.904766  0
C  C139  1  0.21006881  0.08062680  0.84753133  1  0.107808  0  0.015845  0.067894  0  3.979739  0
C  C140  1  0.23214705  0.15616034  0.94803769  1  -0.016885  0  -0.150209  -0.197113  0  3.879707  0
C  C141  1  0.29037753  0.18847833  0.91747377  1  -0.012188  0  -0.149542  -0.196106  0  3.872254  0
C  C142  1  0.66766313  0.44274067  0.14920555  1  0.010272  0  -0.022872  0.059944  0  4.00813  0
C  C143  1  0.88947026  0.30713063  0.09786393  1  0.040858  0  -0.088888  -0.135034  0  3.957431  0
C  C144  1  0.69192544  0.49352441  0.16159204  1  -0.111388  0  -0.02987  -0.169359  0  3.947662  0
C  C145  1  0.86211170  0.25873298  0.08588921  1  -0.196144  0  -0.022789  -0.11746  0  3.969875  0
C  C146  1  0.81836999  0.37517456  0.12088272  1  -0.183754  0  -0.020054  0.004827  0  4.056145  0
C  C147  1  0.73930046  0.37587307  0.12592715  1  -0.121511  0  -0.031572  -0.074809  0  4.113761  0
C  C148  1  0.18912844  0.88728496  0.09976935  1  0.050081  0  -0.015803  -0.126707  0  3.936888  0
C  C149  1  0.29866968  0.83497658  0.15654079  1  0.021595  0  -0.01245  -0.117655  0  3.944889  0
C  C150  1  0.22466853  0.93001777  0.11065450  1  -0.020323  0  -0.00579  0.066671  0  3.905952  0
C  C151  1  0.26284232  0.79020367  0.14658800  1  0.128219  0  0.016522  0.067751  0  3.985935  0
C  C152  1  0.27630795  0.90543390  0.13819071  1  0.010365  0  -0.003713  0.0689  0  3.905799  0
C  C153  1  0.20959507  0.81549468  0.11872304  1  0.115656  0  0.01708  0.071248  0  3.978841  0
C  C154  1  0.23064302  0.00450745  0.10343704  1  -0.032428  0  -0.149627  -0.196625  0  3.876803  0
C  C155  1  0.28898443  0.97670100  0.13489184  1  -0.058087  0  -0.14818  -0.195363  0  3.868204  0
C  C156  1  0.78204324  0.92175654  0.09529084  1  -0.008956  0  -0.012501  -0.11845  0  3.935186  0
C  C157  1  0.66846882  0.86872589  0.15176910  1  0.13238  0  -0.014856  -0.12578  0  3.938384  0
C  C158  1  0.81210131  0.85094282  0.11337965  1  0.004983  0  -0.004746  0.066351  0  3.90613  0
C  C159  1  0.63564162  0.94077946  0.13319954  1  0.110742  0  0.016947  0.069534  0  3.981743  0
C  C160  1  0.75774896  0.82596307  0.14067944  1  -0.091768  0  -0.004269  0.070214  0  3.903637  0
C  C161  1  0.69117987  0.96659271  0.10558298  1  0.123653  0  0.016526  0.067913  0  3.981707  0
C  C162  1  0.89291865  0.77948027  0.11652753  1  -0.046941  0  -0.149734  -0.196317  0  3.872416  0
C  C163  1  0.83111326  0.75118200  0.14758452  1  -0.022861  0  -0.149778  -0.196442  0  3.873379  0
S  S164  1  0.86374084  0.79359446  0.60408871  1  0.291048  0  0.088998  0.141489  0  2.756501  0
S  S165  1  0.60435453  0.95644077  0.64374139  1  0.287539  0  0.085644  0.134708  0  2.764476  0
S  S166  1  0.21303441  0.15510603  0.44472294  1  0.277136  0  0.086013  0.133837  0  2.72514  0
S  S167  1  0.29331417  0.08382166  0.31518523  1  0.300161  0  0.08923  0.142138  0  2.801899  0
S  S168  1  0.29107763  0.51453968  0.88812889  1  0.322123  0  0.089306  0.139779  0  2.738281  0
S  S169  1  0.20317095  0.74465516  0.85821777  1  0.342263  0  0.086701  0.136202  0  2.780211  0
S  S170  1  0.80305884  0.45867661  0.14449734  1  0.267888  0  0.084345  0.129796  0  2.715211  0
S  S171  1  0.75118589  0.29473010  0.10239130  1  0.319365  0  0.091477  0.147791  0  2.828185  0
Br  Br172  1  0.63574374  0.78855150  0.58528595  1  -0.00533  0  0.039459  -0.020069  0  1.390828  0
Br  Br173  1  0.17884768  0.29135324  0.33061160  1  0.02015  0  0.0494  -0.003859  0  1.416657  0
Br  Br174  1  0.31886188  0.61559313  0.76204407  1  0.00589  0  0.043685  -0.011325  0  1.41157  0
Br  Br175  1  0.55595398  0.45598074  0.15945661  1  0.018447  0  0.051264  -0.002113  0  1.411873  0
Cl  Cl176  1  0.97752358  0.25463598  0.60982742  1  -0.151935  0  -0.008005  -0.056032  0  1.610736  0
Cl  Cl177  1  0.86534176  0.19781498  0.67156396  1  -0.161107  0  -0.010785  -0.060871  0  1.599978  0
Cl  Cl178  1  0.16229141  0.54933069  0.33131328  1  -0.157936  0  -0.007163  -0.055529  0  1.626966  0
Cl  Cl179  1  0.29226563  0.59044780  0.27186504  1  -0.157203  0  -0.004884  -0.047296  0  1.638155  0
Cl  Cl180  1  0.96398500  0.52820168  0.32865231  1  -0.157807  0  -0.006415  -0.051521  0  1.646185  0
Cl  Cl181  1  0.85016770  0.59638999  0.27066584  1  -0.151876  0  -0.005795  -0.052224  0  1.612663  0
Cl  Cl182  1  0.20367026  0.56751872  0.59152384  1  -0.160647  0  -0.00997  -0.058446  0  1.601914  0
Cl  Cl183  1  0.32202678  0.50765292  0.64829034  1  -0.166316  0  -0.010938  -0.060837  0  1.618449  0
Cl  Cl184  1  0.52647354  0.20024421  0.92848011  1  -0.161846  0  -0.008104  -0.057023  0  1.605613  0
Cl  Cl185  1  0.64295906  0.14634548  0.98609791  1  -0.158538  0  -0.007661  -0.052532  0  1.655336  0
Cl  Cl186  1  0.28008218  0.09703254  0.76579867  1  -0.16034  0  -0.0082  -0.055267  0  1.605662  0
Cl  Cl187  1  0.17445799  0.03054839  0.82423055  1  -0.167478  0  -0.008172  -0.056554  0  1.601106  0
Cl  Cl188  1  0.28006546  0.70488156  0.17001399  1  -0.158634  0  -0.007724  -0.055181  0  1.62298  0
Cl  Cl189  1  0.17268609  0.75485308  0.10775654  1  -0.169227  0  -0.009448  -0.05756  0  1.596255  0
Cl  Cl190  1  0.52686205  0.00067566  0.14408929  1  -0.170678  0  -0.006994  -0.054819  0  1.603038  0
Cl  Cl191  1  0.64499612  0.05313194  0.08353113  1  -0.164838  0  -0.007886  -0.052679  0  1.65945  0
O  O192  1  0.99976146  0.50019210  0.50141776  1  -1.231898  0  -0.57638  -1.035144  0  2.54238  0
O  O193  1  0.83253562  0.55941105  0.46709337  1  -1.163496  0  -0.308394  -0.540189  0  2.292284  0
O  O194  1  0.09235268  0.37207316  0.42147862  1  -1.16757  0  -0.315789  -0.538231  0  2.378074  0
O  O195  1  0.96185416  0.37338701  0.55379143  1  -1.175715  0  -0.315549  -0.546472  0  2.42316  0
O  O196  1  0.95096817  0.54940318  0.41589342  1  -1.168666  0  -0.316828  -0.548753  0  2.410156  0
O  O197  1  0.83566397  0.48265124  0.55910122  1  -1.160162  0  -0.308366  -0.539048  0  2.309084  0
O  O198  1  0.13080862  0.31367644  0.48039103  1  -1.163671  0  -0.320634  -0.546165  0  2.309958  0
O  O199  1  0.11209161  0.40510512  0.56462911  1  -1.159373  0  -0.308163  -0.537343  0  2.334436  0
O  O200  1  0.94144802  0.65502378  0.55438541  1  -1.171044  0  -0.321504  -0.548748  0  2.344256  0
O  O201  1  0.12737854  0.51243336  0.54629089  1  -1.174262  0  -0.313418  -0.544957  0  2.401297  0
O  O202  1  0.82316637  0.65016021  0.54787291  1  -1.161374  0  -0.315463  -0.542005  0  2.340411  0
O  O203  1  0.13791328  0.50843251  0.41940078  1  -1.170485  0  -0.317365  -0.550334  0  2.378737  0
O  O204  1  0.09262571  0.61019653  0.46618445  1  -1.154046  0  -0.307242  -0.531968  0  2.278224  0
O  O205  1  0.50043708  0.25031742  0.74987568  1  -1.231602  0  -0.573068  -1.031979  0  2.534234  0
O  O206  1  0.68816860  0.23097938  0.69808963  1  -1.167553  0  -0.311677  -0.545058  0  2.389494  0
O  O207  1  0.40236572  0.43729756  0.76775595  1  -1.184789  0  -0.315542  -0.539759  0  2.377106  0
O  O208  1  0.53724682  0.22590166  0.84071018  1  -1.183107  0  -0.312794  -0.545158  0  2.414964  0
O  O209  1  0.58491759  0.35511604  0.69968805  1  -1.168062  0  -0.308508  -0.535333  0  2.340367  0
O  O210  1  0.66161274  0.15630015  0.78880172  1  -1.167368  0  -0.309537  -0.540111  0  2.32419  0
O  O211  1  0.38159727  0.38012912  0.83023413  1  -1.162574  0  -0.320301  -0.545576  0  2.326997  0
O  O212  1  0.36797584  0.22396819  0.83198397  1  -1.15459  0  -0.308201  -0.537922  0  2.322135  0
O  O213  1  0.53599156  0.10802160  0.68783816  1  -1.172476  0  -0.320801  -0.544932  0  2.325885  0
O  O214  1  0.38496268  0.16380944  0.77044275  1  -1.178907  0  -0.313572  -0.54388  0  2.419321  0
O  O215  1  0.65833398  0.08593102  0.70386405  1  -1.169878  0  -0.314796  -0.538271  0  2.303789  0
O  O216  1  0.42136887  0.36335511  0.68003484  1  -1.161677  0  -0.314745  -0.546142  0  2.39091  0
O  O217  1  0.37034937  0.27642397  0.69479167  1  -1.161947  0  -0.308359  -0.537029  0  2.331652  0
O  O218  1  0.50067849  0.75016154  0.25181373  1  -1.219201  0  -0.575854  -1.033898  0  2.542445  0
O  O219  1  0.40206437  0.69830718  0.33624946  1  -1.157813  0  -0.310036  -0.543147  0  2.306091  0
O  O220  1  0.55917083  0.58690117  0.20366278  1  -1.171933  0  -0.315815  -0.539943  0  2.37971  0
O  O221  1  0.67544311  0.66212009  0.27539112  1  -1.152411  0  -0.315429  -0.545803  0  2.434071  0
O  O222  1  0.37548930  0.67799695  0.27551098  1  -1.148537  0  -0.314814  -0.546668  0  2.425891  0
O  O223  1  0.56807713  0.71688382  0.33689824  1  -1.159446  0  -0.308955  -0.538493  0  2.310958  0
O  O224  1  0.67483875  0.60938887  0.18818267  1  -1.166  0  -0.320197  -0.54476  0  2.312223  0
O  O225  1  0.66093624  0.77556130  0.19856316  1  -1.163906  0  -0.3077  -0.535803  0  2.333436  0
O  O226  1  0.39184193  0.93052406  0.27738438  1  -1.168545  0  -0.319597  -0.544624  0  2.349187  0
O  O227  1  0.53644919  0.86614650  0.18618202  1  -1.18548  0  -0.314803  -0.548538  0  2.402382  0
O  O228  1  0.39459773  0.86492917  0.33814961  1  -1.174756  0  -0.316244  -0.540567  0  2.293042  0
O  O229  1  0.40957710  0.73906746  0.18345373  1  -1.16417  0  -0.315184  -0.547783  0  2.37939  0
O  O230  1  0.35813408  0.86594863  0.20263281  1  -1.150724  0  -0.306555  -0.530021  0  2.29325  0
O  O231  1  0.00065958  0.00081826  0.00105708  1  -1.233208  0  -0.574287  -1.033914  0  2.537886  0
O  O232  1  0.08490771  0.89153658  0.06816148  1  -1.160879  0  -0.316256  -0.549751  0  2.405413  0
O  O233  1  0.99213392  0.15041353  0.04816330  1  -1.160259  0  -0.315374  -0.539466  0  2.271296  0
O  O234  1  0.82180196  0.01708166  0.06440645  1  -1.164281  0  -0.312674  -0.543122  0  2.401775  0
O  O235  1  0.13828519  0.97659093  0.05029944  1  -1.166698  0  -0.309252  -0.540404  0  2.317714  0
O  O236  1  0.92137887  0.89014257  0.05259607  1  -1.169439  0  -0.308663  -0.537202  0  2.308638  0
O  O237  1  0.86170361  0.15656489  0.05572866  1  -1.17504  0  -0.318774  -0.543005  0  2.382562  0
O  O238  1  0.81951518  0.10582500  0.97872837  1  -1.161957  0  -0.31205  -0.543537  0  2.384835  0
O  O239  1  0.10021478  0.87916254  0.91869830  1  -1.170551  0  -0.319638  -0.546251  0  2.332647  0
O  O240  1  0.91901169  0.02382969  0.92136963  1  -1.162351  0  -0.30894  -0.538641  0  2.314564  0
O  O241  1  0.09780170  0.81560807  0.98011038  1  -1.172299  0  -0.314209  -0.536615  0  2.306958  0
O  O242  1  0.14031330  0.06072272  0.96257937  1  -1.159382  0  -0.307975  -0.539618  0  2.307689  0
O  O243  1  0.08073514  0.05053955  0.91252621  1  -1.16673  0  -0.317076  -0.550341  0  2.396398  0
