# generated using pymatgen
data_CuH20(C8N5)2
_symmetry_space_group_name_H-M   'P 1'
_cell_length_a   9.73304037
_cell_length_b   9.81052819
_cell_length_c   11.39889345
_cell_angle_alpha   72.86237568
_cell_angle_beta   67.00756698
_cell_angle_gamma   78.12383687
_symmetry_Int_Tables_number   1
_chemical_formula_structural   CuH20(C8N5)2
_chemical_formula_sum   'Cu2 H40 C32 N20'
_cell_volume   952.37814249
_cell_formula_units_Z   2
loop_
 _symmetry_equiv_pos_site_id
 _symmetry_equiv_pos_as_xyz
  1  'x, y, z'
loop_
 _atom_site_type_symbol
 _atom_site_label
 _atom_site_symmetry_multiplicity
 _atom_site_fract_x
 _atom_site_fract_y
 _atom_site_fract_z
 _atom_site_occupancy
 _atom_site_hle17_ddec_charge
 _atom_site_hle17_ddec_spin_density
 _atom_site_hle17_ddec_sum_bond_order
 _atom_site_hle17_magmom
 _atom_site_hse06_10hf_ddec_charge
 _atom_site_hse06_10hf_ddec_spin_density
 _atom_site_hse06_10hf_ddec_sum_bond_order
 _atom_site_hse06_10hf_magmom
 _atom_site_hse06_ddec_charge
 _atom_site_hse06_ddec_spin_density
 _atom_site_hse06_ddec_sum_bond_order
 _atom_site_hse06_magmom
 _atom_site_pbe_cm5_charge
 _atom_site_pbe_ddec_charge
 _atom_site_pbe_ddec_spin_density
 _atom_site_pbe_ddec_sum_bond_order
 _atom_site_pbe_magmom
Cu  Cu0  1  0.49999956  0.99999882  0.99999918  1  0.77549  -0.69734  1.798338  -0.48  0.745054  -0.779598  2.182244  -0.587  0.818686  -0.851129  2.132303  -0.664  0.71876  0.702813  -0.732549  2.216342  -0.54
Cu  Cu1  1  0.99999838  0.50000168  0.50000278  1  0.768397  0.689053  1.783539  0.471  0.738195  0.770869  2.162901  0.575  0.811223  0.841852  2.113054  0.651  0.715963  0.69688  0.724979  2.196218  0.531
H  H2  1  0.36494926  0.78480816  0.14415582  1  0.283352  0.000764  0.946781  0.002  0.273138  -0.000113  1.009227  0.0  0.280056  0.00013  1.004424  0.001  0.287129  0.268358  -0.0003  1.012752  0.0
H  H3  1  0.63504982  0.21519147  0.85584171  1  0.283299  0.00077  0.946822  0.002  0.273081  -0.000114  1.009277  0.0  0.28  0.00013  1.004472  0.001  0.2871  0.268299  -0.0003  1.012802  0.0
H  H4  1  0.34109339  0.82445759  0.99954135  1  0.29515  0.000609  0.91166  0.001  0.285734  -0.000272  0.972199  0.0  0.291615  -2.1e-05  0.969228  0.001  0.288306  0.281781  -0.00047  0.974305  0.0
H  H5  1  0.65890593  0.17553990  0.00045664  1  0.295152  0.000616  0.911696  0.001  0.285767  -0.000272  0.972192  0.0  0.291649  -2.1e-05  0.969221  0.001  0.288321  0.28181  -0.00047  0.974295  0.0
H  H6  1  0.35726532  0.16962880  0.85384982  1  0.291029  0.00053  0.927118  0.001  0.277977  -0.000332  0.995309  0.0  0.283507  -8.4e-05  0.993074  0.0  0.28863  0.274314  -0.000519  0.996792  0.0
H  H7  1  0.64273389  0.83036975  0.14615058  1  0.290941  0.000531  0.927192  0.001  0.277905  -0.000333  0.995348  0.0  0.283434  -8.5e-05  0.993114  0.0  0.288606  0.274243  -0.000519  0.996828  0.0
H  H8  1  0.40418253  0.26415164  0.92542753  1  0.290827  0.000539  0.877708  0.001  0.294261  -0.000397  0.915283  0.0  0.299414  -0.000103  0.913266  0.0  0.307747  0.290765  -0.000616  0.916912  0.0
H  H9  1  0.59581779  0.73584692  0.07457161  1  0.290791  0.000533  0.877734  0.001  0.294228  -0.000397  0.915316  0.0  0.299381  -0.000103  0.913298  0.0  0.307731  0.29073  -0.000616  0.916953  0.0
H  H10  1  0.16831425  0.93525680  0.23535054  1  0.062693  -0.000103  0.927398  0.0  0.078587  -0.000137  0.990176  0.0  0.077413  -8.2e-05  0.992097  0.0  0.103384  0.079303  -0.000157  0.98888  0.0
H  H11  1  0.83168396  0.06474068  0.76464782  1  0.062706  -0.00011  0.927533  0.0  0.07861  -0.000138  0.990294  0.0  0.07743  -8.1e-05  0.992225  0.0  0.103419  0.079324  -0.000157  0.988999  0.0
H  H12  1  0.10168922  0.83602297  0.16493276  1  0.049053  -0.0066  0.930317  -0.008  0.06621  -0.004567  0.993531  -0.006  0.064621  -0.00333  0.995045  -0.004  0.098577  0.067089  -0.00547  0.992758  -0.006
H  H13  1  0.89830986  0.16397666  0.83506390  1  0.049069  -0.006611  0.930267  -0.008  0.066222  -0.004566  0.993484  -0.006  0.064634  -0.00333  0.994997  -0.004  0.098578  0.067099  -0.00547  0.992715  -0.006
H  H14  1  0.00157995  0.08073357  0.11250469  1  0.075101  0.00033  0.972937  0.0  0.090543  0.000128  1.037641  0.0  0.090341  0.000115  1.039575  0.0  0.093872  0.090598  0.000129  1.036359  0.0
H  H15  1  0.99842011  0.91926713  0.88749399  1  0.075096  0.000327  0.972934  0.0  0.090542  0.000128  1.037636  0.0  0.090339  0.000116  1.039571  0.0  0.093876  0.090595  0.000129  1.036359  0.0
H  H16  1  0.13026289  0.03786807  0.96652919  1  0.074655  0.0001  0.955614  0.0  0.092445  4.7e-05  1.015222  0.0  0.09238  3.7e-05  1.017518  0.0  0.093542  0.092523  5.6e-05  1.013688  0.0
H  H17  1  0.86973582  0.96213477  0.03346854  1  0.07462  0.000101  0.955669  0.0  0.092437  4.6e-05  1.015246  0.0  0.092366  3.8e-05  1.017547  0.0  0.093533  0.092515  5.6e-05  1.01371  0.0
H  H18  1  0.13848273  0.28214822  0.99193401  1  0.053248  -0.006154  0.927559  -0.008  0.0708  -0.004244  0.98882  -0.005  0.069638  -0.003066  0.98985  -0.004  0.101884  0.071579  -0.005144  0.988181  -0.006
H  H19  1  0.86151858  0.71785142  0.00806541  1  0.053293  -0.006168  0.927512  -0.008  0.070856  -0.004244  0.988764  -0.005  0.069696  -0.003066  0.989794  -0.004  0.101904  0.071636  -0.005144  0.988129  -0.006
H  H20  1  0.20163433  0.19856421  0.12594754  1  0.056573  -0.000433  0.939403  -0.001  0.076111  -0.000366  0.997938  -0.001  0.075018  -0.000246  0.999704  -0.001  0.102935  0.076807  -0.000493  0.99677  -0.001
H  H21  1  0.79836612  0.80143328  0.87405271  1  0.056546  -0.000435  0.939421  -0.001  0.0761  -0.000366  0.997946  -0.001  0.075006  -0.000247  0.999712  -0.001  0.102944  0.076796  -0.000493  0.996775  -0.001
H  H22  1  0.24841504  0.53584220  0.50606439  1  0.282319  -0.000402  0.922436  -0.001  0.274303  0.000498  0.980263  0.0  0.27906  0.000174  0.979189  0.0  0.291909  0.270767  0.000728  0.981762  0.0
H  H23  1  0.75158281  0.46415846  0.49394119  1  0.282333  -0.00041  0.922461  -0.001  0.274289  0.000498  0.980301  0.0  0.279045  0.000173  0.979228  0.0  0.291909  0.270754  0.000728  0.981803  0.0
H  H24  1  0.19323561  0.38331400  0.60884415  1  0.291028  -0.000621  0.930783  -0.001  0.27878  0.000279  0.995818  0.0  0.284461  2.6e-05  0.993403  -0.001  0.286028  0.274888  0.000496  0.997553  0.0
H  H25  1  0.80676359  0.61668455  0.39115800  1  0.290949  -0.000621  0.93094  -0.001  0.278734  0.000279  0.995907  0.0  0.284416  2.6e-05  0.993492  -0.001  0.286012  0.274843  0.000496  0.997647  0.0
H  H26  1  0.08639359  0.67037870  0.66100187  1  0.058389  0.000548  0.926247  0.001  0.075554  0.000466  0.987641  0.001  0.074341  0.000314  0.989504  0.001  0.100241  0.076587  0.000573  0.985799  0.001
H  H27  1  0.91361048  0.32961662  0.33901175  1  0.058439  0.000534  0.926571  0.001  0.075607  0.000466  0.987899  0.001  0.074396  0.000314  0.98976  0.001  0.100299  0.076636  0.000573  0.986056  0.001
H  H28  1  0.21493570  0.54241649  0.72270921  1  0.056904  0.006513  0.919261  0.008  0.071839  0.004527  0.980009  0.006  0.070587  0.003312  0.981356  0.004  0.097852  0.072549  0.005428  0.979172  0.006
H  H29  1  0.78506749  0.45756705  0.27729976  1  0.056914  0.006495  0.919307  0.008  0.071791  0.004528  0.980067  0.006  0.07054  0.003313  0.981414  0.004  0.097799  0.072495  0.005429  0.97924  0.006
H  H30  1  0.97519630  0.52267281  0.89582634  1  0.075053  -0.00047  0.941239  0.0  0.09228  -0.000309  1.004511  0.0  0.093057  -0.000242  1.004773  0.0  0.095984  0.091541  -0.000366  1.004525  0.0
H  H31  1  0.02480503  0.47731715  0.10418077  1  0.075143  -0.000467  0.941148  0.0  0.092326  -0.000309  1.004425  0.0  0.093105  -0.000242  1.004685  0.0  0.09599  0.091587  -0.000366  1.004437  0.0
H  H32  1  0.01550162  0.36888703  0.83381021  1  0.079278  -0.000204  0.943215  0.0  0.094428  -0.00017  1.00916  0.0  0.09563  -0.000125  1.008921  0.0  0.093204  0.093438  -0.000264  1.009572  0.0
H  H33  1  0.98449475  0.63110719  0.16619486  1  0.079135  -0.000202  0.943221  0.0  0.094267  -0.00017  1.009174  0.0  0.095468  -0.000125  1.00894  0.0  0.093141  0.093273  -0.000264  1.009588  0.0
H  H34  1  0.74855245  0.47922746  0.88150891  1  0.057791  0.006678  0.91304  0.008  0.074052  0.004763  0.972129  0.006  0.073522  0.003501  0.971969  0.004  0.09892  0.074358  0.005641  0.972374  0.007
H  H35  1  0.25144528  0.52077428  0.11849644  1  0.057771  0.00667  0.913094  0.008  0.074063  0.004763  0.972172  0.006  0.073534  0.003501  0.972006  0.004  0.098936  0.074361  0.005641  0.972418  0.007
H  H36  1  0.81071574  0.63831974  0.76176161  1  0.05356  0.000255  0.933747  0.001  0.070493  0.00025  0.997021  0.001  0.069245  0.000163  0.999023  0.0  0.100633  0.071119  0.000311  0.995881  0.001
H  H37  1  0.18929090  0.36168207  0.23824161  1  0.053522  0.000256  0.933773  0.001  0.070465  0.00025  0.997064  0.001  0.069214  0.000164  0.999065  0.0  0.100625  0.071093  0.000311  0.99592  0.001
H  H38  1  0.84280183  0.35524287  0.70869158  1  0.282623  -0.001178  0.911486  -0.002  0.275339  -0.000165  0.971212  0.0  0.280506  -0.000367  0.969049  -0.001  0.292096  0.271628  1.5e-05  0.973251  0.0
H  H39  1  0.15719576  0.64475994  0.29131179  1  0.282621  -0.001174  0.911455  -0.002  0.275324  -0.000165  0.971198  0.0  0.280496  -0.000368  0.969023  -0.001  0.292088  0.271611  1.5e-05  0.973236  0.0
H  H40  1  0.73410315  0.50154496  0.67111028  1  0.294292  -0.000364  0.951573  -0.001  0.278807  0.000386  1.021737  0.0  0.286169  0.000121  1.016132  -0.001  0.28408  0.273878  0.000624  1.025517  0.0
H  H41  1  0.26589557  0.49845786  0.32889447  1  0.294292  -0.000366  0.951591  -0.001  0.278831  0.000385  1.021723  0.0  0.286192  0.000121  1.016119  -0.001  0.284071  0.273905  0.000624  1.025492  0.0
C  C42  1  0.26763050  0.82559739  0.79009658  1  0.284581  7.2e-05  3.865332  0.0  0.268427  5.4e-05  4.138707  0.0  0.281192  6e-05  4.156731  0.0  0.169997  0.259924  -5.4e-05  4.126384  0.0
C  C43  1  0.73237575  0.17440767  0.20989719  1  0.284639  5.6e-05  3.865554  0.0  0.268461  5.3e-05  4.138918  0.0  0.281227  5.6e-05  4.156943  0.0  0.169981  0.259957  -5.4e-05  4.126595  0.0
C  C44  1  0.35469043  0.05950952  0.31971753  1  0.301904  0.000917  3.851285  0.001  0.28699  0.000755  4.12735  0.001  0.303789  0.000684  4.14453  0.001  0.176458  0.275726  0.000831  4.116776  0.001
C  C45  1  0.64530815  0.94049438  0.68028435  1  0.301838  0.00099  3.851446  0.001  0.286937  0.000756  4.127512  0.001  0.303735  0.000685  4.144694  0.001  0.176433  0.275672  0.000831  4.116934  0.001
C  C46  1  0.15047238  0.14185899  0.49257031  1  0.298148  -0.001123  3.84985  -0.001  0.286681  -0.000873  4.117031  -0.001  0.303327  -0.000779  4.133501  -0.001  0.173545  0.276054  -0.000905  4.105564  -0.001
C  C47  1  0.84953079  0.85814388  0.50743030  1  0.298213  -0.000979  3.849945  -0.001  0.286757  -0.000872  4.117121  -0.001  0.303404  -0.000774  4.13359  -0.001  0.173608  0.276129  -0.000905  4.105664  -0.001
C  C48  1  0.25741652  0.07745445  0.70271551  1  0.296475  -7.7e-05  3.855533  0.0  0.275399  -6.9e-05  4.130869  0.0  0.288158  -4e-05  4.150094  0.0  0.18106  0.266701  -0.000204  4.118137  0.0
C  C49  1  0.74258715  0.92255377  0.29728798  1  0.296462  -7e-05  3.855199  0.0  0.275355  -6.9e-05  4.130567  0.0  0.288118  -3.9e-05  4.149795  0.0  0.181056  0.266651  -0.000204  4.11784  0.0
C  C50  1  0.48596232  0.70144414  0.58232055  1  0.286742  6.8e-05  3.851372  0.0  0.267797  0.000159  4.12611  0.0  0.280642  9.4e-05  4.145485  0.0  0.173771  0.259003  0.000263  4.113476  0.0
C  C51  1  0.51403527  0.29855869  0.41767843  1  0.286796  -3.7e-05  3.851268  0.0  0.267856  0.000164  4.125999  0.0  0.280697  7.6e-05  4.145376  0.0  0.173813  0.259056  0.000263  4.113368  0.0
C  C52  1  0.39415891  0.75500402  0.40640781  1  0.301149  -0.00018  3.844789  0.0  0.284164  -0.000131  4.112463  0.0  0.297946  -0.000103  4.130142  0.0  0.180888  0.274701  -8.8e-05  4.100552  0.0
C  C53  1  0.60583856  0.24499988  0.59359094  1  0.30102  -0.000176  3.844725  0.0  0.284052  -0.000125  4.112389  0.0  0.297831  -0.000108  4.130071  0.0  0.180832  0.274586  -8.8e-05  4.10048  0.0
C  C54  1  0.31677343  0.92452244  0.54926811  1  0.132485  5e-05  3.852306  0.0  0.11121  5.7e-05  4.106041  0.0  0.127472  -1.6e-05  4.125531  0.0  0.024869  0.101086  5.3e-05  4.091556  0.0
C  C55  1  0.68323048  0.07548365  0.45073145  1  0.132666  0.000114  3.852445  0.0  0.111381  4.1e-05  4.106174  0.0  0.127649  2.9e-05  4.12566  0.0  0.024938  0.101257  5.3e-05  4.091682  0.0
C  C56  1  0.27371265  0.03991129  0.45496032  1  -0.212038  -3.9e-05  3.964254  0.0  -0.193401  3e-06  4.20897  0.0  -0.209981  2.4e-05  4.229477  0.0  -0.045311  -0.182671  -2.3e-05  4.19538  0.0
C  C57  1  0.72628903  0.96009478  0.54503911  1  -0.212043  -8.7e-05  3.964263  0.0  -0.193428  1.6e-05  4.209011  0.0  -0.210008  1.7e-05  4.229515  0.0  -0.04534  -0.182697  -2.3e-05  4.195423  0.0
C  C58  1  0.27966705  0.94070658  0.67911459  1  -0.214373  -2.1e-05  3.968327  0.0  -0.194429  -3.7e-05  4.216765  0.0  -0.209356  -1.3e-05  4.238299  0.0  -0.045754  -0.184697  -2e-06  4.202125  0.0
C  C59  1  0.72033909  0.05929952  0.32088597  1  -0.214676  -3.4e-05  3.968603  0.0  -0.194684  -3.9e-05  4.217011  0.0  -0.209623  -2.7e-05  4.238556  0.0  -0.045884  -0.184948  -2e-06  4.202365  0.0
C  C60  1  0.39760420  0.79524630  0.51343770  1  -0.208125  0.000125  3.973692  0.0  -0.189165  7.4e-05  4.222822  0.0  -0.203731  6.2e-05  4.243493  0.0  -0.043479  -0.178842  3.7e-05  4.207814  0.0
C  C61  1  0.60239674  0.20475656  0.48656103  1  -0.208231  7.6e-05  3.973763  0.0  -0.189277  0.000102  4.222897  0.0  -0.203838  9e-06  4.243565  0.0  -0.043517  -0.178946  3.7e-05  4.207881  0.0
C  C62  1  0.17622113  0.91861433  0.14164871  1  0.08748  0.00011  3.63535  0.003  0.033233  -0.001831  3.906941  0.0  0.039557  -0.000867  3.920814  0.001  -0.073658  0.029472  -0.00257  3.897241  0.0
C  C63  1  0.82377919  0.08138424  0.85834780  1  0.087465  0.000145  3.635318  0.003  0.033209  -0.001827  3.906912  0.0  0.039537  -0.000867  3.920786  0.001  -0.073705  0.029449  -0.00257  3.897199  0.0
C  C64  1  0.12143049  0.05543341  0.06016994  1  -0.161937  -0.001897  3.676508  -0.003  -0.196726  -0.001358  3.927582  -0.002  -0.199635  -0.000883  3.942343  -0.001  -0.167365  -0.194582  -0.001793  3.91728  -0.002
C  C65  1  0.87856970  0.94456622  0.93982897  1  -0.161886  -0.001891  3.676416  -0.003  -0.196699  -0.001357  3.927513  -0.002  -0.199603  -0.000884  3.942272  -0.001  -0.167343  -0.194552  -0.001793  3.917204  -0.002
C  C66  1  0.20039327  0.18546921  0.03394197  1  0.089997  0.000517  3.632082  0.003  0.03652  -0.001512  3.898307  0.0  0.042622  -0.000594  3.911618  0.001  -0.071649  0.032766  -0.002186  3.889081  0.0
C  C67  1  0.79960817  0.81452936  0.96605768  1  0.089975  0.000545  3.631964  0.003  0.036455  -0.001513  3.89825  0.0  0.042555  -0.000593  3.911558  0.001  -0.07168  0.0327  -0.002186  3.889024  0.0
C  C68  1  0.11687911  0.55483593  0.69337193  1  0.083949  -0.000371  3.63713  -0.003  0.030847  0.00181  3.907588  0.0  0.03693  0.000854  3.921589  -0.001  -0.074353  0.027059  0.002546  3.897848  0.001
C  C69  1  0.88312235  0.44515294  0.30664067  1  0.083857  -0.000289  3.637637  -0.003  0.030846  0.001808  3.907879  0.0  0.03693  0.000856  3.92188  -0.001  -0.074342  0.027071  0.002545  3.898117  0.001
C  C70  1  0.98748461  0.48598448  0.80962247  1  -0.167483  0.001379  3.688336  0.002  -0.208082  0.000912  3.95219  0.001  -0.210913  0.000577  3.965848  0.001  -0.165509  -0.205919  0.001215  3.942742  0.002
C  C71  1  0.01251548  0.51400655  0.19038566  1  -0.167594  0.001354  3.688331  0.002  -0.208083  0.000914  3.952022  0.001  -0.21092  0.00058  3.965681  0.001  -0.165484  -0.205912  0.001215  3.942564  0.002
C  C72  1  0.83783138  0.52151123  0.78881554  1  0.094813  0.000142  3.631307  -0.002  0.041886  0.002098  3.901148  0.0  0.048128  0.001124  3.915127  -0.001  -0.072269  0.03801  0.002951  3.891629  0.001
C  C73  1  0.16217130  0.47848625  0.21118834  1  0.095032  0.000143  3.631203  -0.002  0.042013  0.002099  3.901074  0.0  0.048266  0.001119  3.915039  -0.001  -0.072258  0.038139  0.002951  3.891555  0.001
N  N74  1  0.42363794  0.08030910  0.20655375  1  -0.473895  0.001176  2.706439  0.0  -0.45285  0.001173  2.969364  0.0  -0.46784  0.001158  2.976337  0.0  -0.33942  -0.443737  0.001084  2.965685  0.0
N  N75  1  0.57636088  0.91969267  0.79344420  1  -0.473848  0.001112  2.706679  0.0  -0.452824  0.001168  2.969595  0.0  -0.467814  0.001159  2.976572  0.0  -0.33942  -0.443711  0.001084  2.965915  0.0
N  N76  1  0.04576275  0.22600331  0.52213809  1  -0.472449  -0.000834  2.67112  0.001  -0.452272  -0.00102  2.926718  0.0  -0.466221  -0.001008  2.933416  0.0  -0.338878  -0.443671  -0.001038  2.922057  0.0
N  N77  1  0.95423622  0.77399736  0.47786799  1  -0.47247  -0.000976  2.671237  0.0  -0.452304  -0.001025  2.926863  0.0  -0.466257  -0.001013  2.933561  0.0  -0.338894  -0.443701  -0.001039  2.922209  0.0
N  N78  1  0.24170346  0.19041633  0.72514271  1  -0.467376  -0.000208  2.669597  0.0  -0.431096  -0.000274  2.904976  0.0  -0.441702  -0.000218  2.914658  0.0  -0.328846  -0.42401  -0.000213  2.898488  0.0
N  N79  1  0.75829798  0.80958223  0.27486133  1  -0.467321  -0.00021  2.669051  0.0  -0.431018  -0.000274  2.904421  0.0  -0.441624  -0.000217  2.914103  0.0  -0.32881  -0.423929  -0.000213  2.897937  0.0
N  N80  1  0.56203255  0.62282028  0.63703067  1  -0.433965  0.000172  2.659639  0.0  -0.404793  0.00019  2.892919  0.0  -0.416115  8.9e-05  2.903639  0.0  -0.320873  -0.397197  0.000149  2.886426  0.0
N  N81  1  0.43796442  0.37717826  0.36296872  1  -0.433975  0.000295  2.659617  0.0  -0.404806  0.000175  2.892906  0.0  -0.416125  0.000119  2.903623  0.0  -0.320911  -0.397213  0.000149  2.886421  0.0
N  N82  1  0.38906239  0.71699150  0.31974710  1  -0.460066  0.000426  2.677931  0.0  -0.42727  0.000462  2.915569  0.0  -0.43822  0.000382  2.92399  0.0  -0.326792  -0.419538  0.000527  2.91033  0.0
N  N83  1  0.61093260  0.28301452  0.68025458  1  -0.459925  0.000432  2.677774  0.0  -0.427145  0.000449  2.915397  0.0  -0.438094  0.000398  2.923822  0.0  -0.326732  -0.419411  0.000527  2.910161  0.0
N  N84  1  0.25029206  0.73606980  0.88808937  1  -0.452205  -8e-06  2.56537  0.0  -0.424639  1.9e-05  2.783381  0.0  -0.433683  2e-05  2.792474  0.0  -0.33531  -0.418411  9e-05  2.77717  0.0
N  N85  1  0.74970838  0.26392768  0.11191175  1  -0.452096  1.2e-05  2.565701  0.0  -0.42453  2.1e-05  2.78371  0.0  -0.43357  2.6e-05  2.792802  0.0  -0.335227  -0.418302  9e-05  2.777503  0.0
N  N86  1  0.33350057  0.86566310  0.07533610  1  -0.596038  -0.093913  3.136848  -0.113  -0.576061  -0.063727  3.409837  -0.08  -0.605785  -0.052608  3.412691  -0.07  -0.640607  -0.557842  -0.069908  3.408837  -0.085
N  N87  1  0.66649863  0.13433546  0.92466078  1  -0.596021  -0.093952  3.136894  -0.113  -0.576062  -0.063726  3.409848  -0.08  -0.605786  -0.052609  3.412697  -0.07  -0.640595  -0.557834  -0.069912  3.408827  -0.085
N  N88  1  0.35759252  0.17235488  0.94337835  1  -0.586265  -0.08881  3.132209  -0.107  -0.565738  -0.062183  3.401201  -0.079  -0.594079  -0.051565  3.404117  -0.069  -0.632166  -0.548429  -0.067895  3.400058  -0.083
N  N89  1  0.64240669  0.82764367  0.05662117  1  -0.586124  -0.088808  3.1322  -0.107  -0.5656  -0.062181  3.401199  -0.079  -0.593937  -0.051567  3.404116  -0.069  -0.632122  -0.548287  -0.067892  3.400058  -0.083
N  N90  1  0.15816168  0.49030151  0.58054158  1  -0.587808  0.093274  3.132948  0.112  -0.56308  0.064884  3.400805  0.081  -0.592117  0.054169  3.404911  0.072  -0.63845  -0.545408  0.070253  3.399427  0.085
N  N91  1  0.84183641  0.50969702  0.41946270  1  -0.587668  0.093268  3.133021  0.112  -0.562973  0.064886  3.400912  0.081  -0.592012  0.054168  3.405024  0.072  -0.638435  -0.545307  0.070254  3.399545  0.085
N  N92  1  0.83640064  0.46479096  0.68279163  1  -0.598577  0.092849  3.142772  0.111  -0.576869  0.064456  3.417097  0.081  -0.605932  0.053809  3.419613  0.072  -0.644217  -0.559279  0.070462  3.416547  0.085
N  N93  1  0.16359820  0.53521079  0.31721247  1  -0.598647  0.092855  3.142725  0.111  -0.576947  0.064458  3.417062  0.081  -0.606017  0.053808  3.41958  0.072  -0.644205  -0.55935  0.070464  3.416501  0.085
