# generated using pymatgen
data_KPH24C15S2O3
_symmetry_space_group_name_H-M   'P 1'
_cell_length_a   8.20267209
_cell_length_b   11.21107722
_cell_length_c   11.33660270
_cell_angle_alpha   96.76636280
_cell_angle_beta   102.86114058
_cell_angle_gamma   111.52319235
_symmetry_Int_Tables_number   1
_chemical_formula_structural   KPH24C15S2O3
_chemical_formula_sum   'K2 P2 H48 C30 S4 O6'
_cell_volume   922.34109745
_cell_formula_units_Z   2
loop_
 _symmetry_equiv_pos_site_id
 _symmetry_equiv_pos_as_xyz
  1  'x, y, z'
loop_
 _atom_site_type_symbol
 _atom_site_label
 _atom_site_symmetry_multiplicity
 _atom_site_fract_x
 _atom_site_fract_y
 _atom_site_fract_z
 _atom_site_occupancy
 _atom_site_hle17_bader_spin_density
 _atom_site_hle17_ddec_charge
 _atom_site_hle17_ddec_spin_density
 _atom_site_hle17_ddec_sum_bond_order
 _atom_site_hle17_magmom
 _atom_site_hse06_10hf_bader_spin_density
 _atom_site_hse06_10hf_ddec_charge
 _atom_site_hse06_10hf_ddec_spin_density
 _atom_site_hse06_10hf_ddec_sum_bond_order
 _atom_site_hse06_10hf_magmom
 _atom_site_hse06_bader_spin_density
 _atom_site_hse06_ddec_charge
 _atom_site_hse06_ddec_spin_density
 _atom_site_hse06_ddec_sum_bond_order
 _atom_site_hse06_magmom
 _atom_site_pbe_bader_spin_density
 _atom_site_pbe_cm5_charge
 _atom_site_pbe_ddec_charge
 _atom_site_pbe_ddec_spin_density
 _atom_site_pbe_ddec_sum_bond_order
 _atom_site_pbe_magmom
K  K0  1  0.55216913  0.36319929  0.60247331  1  0  0.854584  0  0.561688  0  0  0.784053  0  0.780246  0  0  0.798202  0  0.76104  0  0  0.685052  0.772991  0  0.794624  0
K  K1  1  0.44783051  0.63680070  0.39752476  1  0  0.854592  0  0.561677  0  0  0.784035  0  0.78028  0  0  0.798182  0  0.761077  0  0  0.685042  0.772969  0  0.794653  0
P  P2  1  0.43457786  0.31161022  0.27024128  1  0  0.844663  0  4.756606  0  0  0.761594  0  5.221329  0  0  0.798611  0  5.208982  0  0  0.145819  0.735696  0  5.229155  0
P  P3  1  0.56542109  0.68839075  0.72975856  1  0  0.844683  0  4.75659  0  0  0.761619  0  5.221273  0  0  0.798636  0  5.208924  0  0  0.145831  0.735724  0  5.229089  0
H  H4  1  0.58527970  0.46498767  0.10339303  1  0  0.087354  0  0.968333  0  0  0.096831  0  1.035275  0  0  0.0994  0  1.033732  0  0  0.099252  0.094812  0  1.036628  0
H  H5  1  0.41471870  0.53501232  0.89660660  1  0  0.087353  0  0.968285  0  0  0.096828  0  1.035238  0  0  0.099397  0  1.033696  0  0  0.099251  0.094812  0  1.03659  0
H  H6  1  0.58336725  0.40825366  0.88438752  1  0  0.105978  0  0.964116  0  0  0.114761  0  1.030935  0  0  0.118673  0  1.02838  0  0  0.108031  0.1118  0  1.033235  0
H  H7  1  0.41663476  0.59174830  0.11561204  1  0  0.105925  0  0.964165  0  0  0.114692  0  1.03101  0  0  0.118601  0  1.028454  0  0  0.108005  0.111732  0  1.03331  0
H  H8  1  0.34052757  0.99604911  0.88683179  1  0  0.104662  0  0.975416  0  0  0.116504  0  1.037382  0  0  0.119191  0  1.037222  0  0  0.102225  0.114524  0  1.037816  0
H  H9  1  0.65947194  0.00395285  0.11316736  1  0  0.104655  0  0.975401  0  0  0.116502  0  1.037364  0  0  0.119189  0  1.037204  0  0  0.102234  0.114524  0  1.037796  0
H  H10  1  0.33466905  0.05486307  0.10363889  1  0  0.0839  0  0.97351  0  0  0.092099  0  1.042402  0  0  0.095165  0  1.040172  0  0  0.093491  0.089974  0  1.043904  0
H  H11  1  0.66533115  0.94513791  0.89636027  1  0  0.083909  0  0.973513  0  0  0.092098  0  1.042424  0  0  0.095165  0  1.040188  0  0  0.09349  0.089976  0  1.043923  0
H  H12  1  0.38811960  0.05183139  0.58516261  1  0  0.098617  0  0.938108  0  0  0.116174  0  1.00219  0  0  0.117356  0  1.001039  0  0  0.107654  0.115032  0  1.003436  0
H  H13  1  0.61187990  0.94817056  0.41483743  1  0  0.098625  0  0.938102  0  0  0.116183  0  1.002175  0  0  0.117365  0  1.001023  0  0  0.107657  0.115044  0  1.003417  0
H  H14  1  0.23270771  0.99558957  0.67605087  1  0  0.085276  0  0.939716  0  0  0.105795  0  1.001838  0  0  0.106034  0  1.001979  0  0  0.102377  0.105457  0  1.001955  0
H  H15  1  0.76729249  0.00441140  0.32394917  1  0  0.085286  0  0.939714  0  0  0.105794  0  1.001839  0  0  0.106033  0  1.00198  0  0  0.102375  0.105456  0  1.001953  0
H  H16  1  0.45441869  0.98900720  0.71678251  1  0  0.083832  0  0.974573  0  0  0.095668  0  1.051505  0  0  0.096363  0  1.050996  0  0  0.091752  0.095076  0  1.052109  0
H  H17  1  0.54558221  0.01099280  0.28321664  1  0  0.083843  0  0.974584  0  0  0.09569  0  1.051501  0  0  0.096384  0  1.050992  0  0  0.09176  0.095096  0  1.052108  0
H  H18  1  0.08274227  0.51385168  0.20289964  1  0  0.110749  0  0.969605  0  0  0.128085  0  1.035264  0  0  0.13058  0  1.033984  0  0  0.092325  0.126212  0  1.036294  0
H  H19  1  0.91725683  0.48614733  0.79710087  1  0  0.110724  0  0.969651  0  0  0.128082  0  1.035282  0  0  0.130577  0  1.034003  0  0  0.092324  0.126208  0  1.036309  0
H  H20  1  0.89399374  0.38782083  0.08892051  1  0  0.112024  0  0.961511  0  0  0.134499  0  1.021003  0  0  0.134826  0  1.023151  0  0  0.090336  0.134183  0  1.019626  0
H  H21  1  0.10600716  0.61217916  0.91107953  1  0  0.11203  0  0.961498  0  0  0.134505  0  1.020995  0  0  0.134831  0  1.023143  0  0  0.090333  0.134189  0  1.019621  0
H  H22  1  0.11083100  0.45095527  0.05947783  1  0  0.10685  0  0.956471  0  0  0.128237  0  1.018247  0  0  0.129418  0  1.018457  0  0  0.090253  0.127351  0  1.018212  0
H  H23  1  0.88916935  0.54904374  0.94052288  1  0  0.106881  0  0.956477  0  0  0.128267  0  1.018245  0  0  0.129449  0  1.018456  0  0  0.090275  0.127381  0  1.018211  0
H  H24  1  0.04928451  0.37771274  0.36477863  1  0  0.114268  0  0.952692  0  0  0.134661  0  1.01512  0  0  0.136516  0  1.014725  0  0  0.092242  0.133188  0  1.015707  0
H  H25  1  0.95071639  0.62228726  0.63522140  1  0  0.114292  0  0.95272  0  0  0.134682  0  1.01515  0  0  0.136538  0  1.014754  0  0  0.092258  0.133212  0  1.015734  0
H  H26  1  0.03614120  0.21430244  0.33220601  1  0  0.106749  0  0.98426  0  0  0.123533  0  1.05334  0  0  0.125203  0  1.053397  0  0  0.081532  0.122332  0  1.053335  0
H  H27  1  0.96385664  0.78569656  0.66779518  1  0  0.106749  0  0.984258  0  0  0.123548  0  1.053309  0  0  0.125218  0  1.053366  0  0  0.081535  0.122346  0  1.053303  0
H  H28  1  0.85164810  0.25388384  0.25627990  1  0  0.113601  0  0.945576  0  0  0.135463  0  1.006026  0  0  0.136205  0  1.007463  0  0  0.08804  0.134768  0  1.005319  0
H  H29  1  0.14835155  0.74611615  0.74372170  1  0  0.113599  0  0.945528  0  0  0.13546  0  1.005979  0  0  0.1362  0  1.007421  0  0  0.088026  0.134765  0  1.005272  0
H  H30  1  0.05580617  0.11891079  0.12379266  1  0  0.115988  0  0.962933  0  0  0.134094  0  1.02643  0  0  0.135585  0  1.026706  0  0  0.084156  0.133034  0  1.026234  0
H  H31  1  0.94419473  0.88108920  0.87620738  1  0  0.115997  0  0.962926  0  0  0.134097  0  1.026426  0  0  0.135588  0  1.026701  0  0  0.084154  0.133036  0  1.026234  0
H  H32  1  0.09598122  0.21945118  0.01347048  1  0  0.114991  0  0.957006  0  0  0.137411  0  1.013918  0  0  0.138215  0  1.015629  0  0  0.089687  0.136816  0  1.012846  0
H  H33  1  0.90401787  0.78054783  0.98653003  1  0  0.115025  0  0.957004  0  0  0.137443  0  1.01391  0  0  0.138245  0  1.015622  0  0  0.089687  0.136847  0  1.012837  0
H  H34  1  0.87951398  0.16126542  0.04280575  1  0  0.111354  0  0.949468  0  0  0.136755  0  1.00406  0  0  0.137571  0  1.005136  0  0  0.091834  0.136126  0  1.00336  0
H  H35  1  0.12048622  0.83873555  0.95719516  1  0  0.111357  0  0.949466  0  0  0.136755  0  1.004056  0  0  0.137572  0  1.005132  0  0  0.091841  0.136124  0  1.00336  0
H  H36  1  0.98061811  0.35370599  0.56092282  1  0  0.054855  0  0.947048  0  0  0.071131  0  1.010139  0  0  0.07177  0  1.009647  0  0  0.089823  0.070469  0  1.01078  0
H  H37  1  0.01938209  0.64629498  0.43907986  1  0  0.054876  0  0.947018  0  0  0.071149  0  1.010099  0  0  0.071791  0  1.009607  0  0  0.0898  0.070489  0  1.010737  0
H  H38  1  0.78571609  0.20963067  0.47191364  1  0  0.048544  0  0.949101  0  0  0.062802  0  1.018508  0  0  0.062482  0  1.019358  0  0  0.096541  0.06281  0  1.018333  0
H  H39  1  0.21428481  0.79036933  0.52808551  1  0  0.04854  0  0.949112  0  0  0.06279  0  1.018522  0  0  0.062469  0  1.019372  0  0  0.096525  0.0628  0  1.018341  0
H  H40  1  0.91589671  0.06728214  0.56762189  1  0  0.07029  0  0.949886  0  0  0.089665  0  1.011036  0  0  0.09001  0  1.012192  0  0  0.087176  0.089316  0  1.010325  0
H  H41  1  0.08410294  0.93271785  0.43237794  1  0  0.070269  0  0.949921  0  0  0.089659  0  1.011037  0  0  0.090006  0  1.012191  0  0  0.087177  0.089312  0  1.010327  0
H  H42  1  0.12070496  0.19800906  0.56698968  1  0  0.070368  0  0.953984  0  0  0.086801  0  1.02019  0  0  0.08795  0  1.020158  0  0  0.092953  0.085904  0  1.020326  0
H  H43  1  0.87929414  0.80198995  0.43300994  1  0  0.07038  0  0.953935  0  0  0.086812  0  1.020137  0  0  0.087962  0  1.020105  0  0  0.092965  0.085923  0  1.020261  0
H  H44  1  0.16364399  0.30630765  0.77992568  1  0  0.070585  0  0.945516  0  0  0.086789  0  1.010636  0  0  0.087444  0  1.011313  0  0  0.087749  0.086176  0  1.010365  0
H  H45  1  0.83635386  0.69369136  0.22007374  1  0  0.070633  0  0.945488  0  0  0.086823  0  1.010604  0  0  0.087477  0  1.01128  0  0  0.087774  0.086213  0  1.010332  0
H  H46  1  0.08158267  0.13754810  0.78892101  1  0  0.075327  0  0.952998  0  0  0.093182  0  1.015282  0  0  0.093521  0  1.016499  0  0  0.089844  0.092825  0  1.014605  0
H  H47  1  0.91841643  0.86245090  0.21107862  1  0  0.075348  0  0.952962  0  0  0.093191  0  1.015254  0  0  0.093527  0  1.016471  0  0  0.08983  0.092837  0  1.014573  0
H  H48  1  0.77326930  0.11882730  0.76197829  1  0  0.043985  0  0.953222  0  0  0.057322  0  1.022146  0  0  0.058054  0  1.021259  0  0  0.085508  0.056645  0  1.022975  0
H  H49  1  0.22672980  0.88117171  0.23802310  1  0  0.044001  0  0.953179  0  0  0.057339  0  1.022104  0  0  0.05807  0  1.021218  0  0  0.085524  0.056665  0  1.022929  0
H  H50  1  0.89455360  0.28614272  0.84646272  1  0  0.045918  0  0.94192  0  0  0.062488  0  1.006563  0  0  0.062189  0  1.007133  0  0  0.097705  0.062456  0  1.006548  0
H  H51  1  0.10544550  0.71385628  0.15353690  1  0  0.045881  0  0.941917  0  0  0.062477  0  1.006537  0  0  0.062178  0  1.007107  0  0  0.097705  0.062449  0  1.006518  0
C  C52  1  0.45558756  0.26306576  0.11708947  1  0  -0.18212  0  3.781173  0  0  -0.147267  0  4.021092  0  0  -0.157863  0  4.045925  0  0  -0.040015  -0.139976  0  4.00414  0
C  C53  1  0.54441320  0.73693620  0.88291077  1  0  -0.182116  0  3.781203  0  0  -0.147242  0  4.021101  0  0  -0.157838  0  4.045937  0  0  -0.04001  -0.139947  0  4.004143  0
C  C54  1  0.52890726  0.36232571  0.05494705  1  0  -0.023777  0  3.761212  0  0  -0.044108  0  4.00463  0  0  -0.040759  0  4.023871  0  0  -0.082174  -0.046107  0  3.991461  0
C  C55  1  0.47109349  0.63767625  0.94505231  1  0  -0.023792  0  3.761125  0  0  -0.044133  0  4.004549  0  0  -0.040783  0  4.02379  0  0  -0.082179  -0.046132  0  3.99138  0
C  C56  1  0.52992592  0.33115225  0.93322016  1  0  -0.201184  0  3.753757  0  0  -0.221391  0  4.009064  0  0  -0.227659  0  4.026756  0  0  -0.103097  -0.217348  0  3.997514  0
C  C57  1  0.47007679  0.66884873  0.06677851  1  0  -0.201148  0  3.753719  0  0  -0.221314  0  4.009049  0  0  -0.227577  0  4.026738  0  0  -0.103058  -0.217277  0  3.997505  0
C  C58  1  0.45815329  0.19887216  0.87069694  1  0  0.279219  0  3.815559  0  0  0.273787  0  4.066761  0  0  0.286549  0  4.082313  0  0  0.087236  0.265175  0  4.056119  0
C  C59  1  0.54184817  0.80112881  0.12930418  1  0  0.2794  0  3.815434  0  0  0.273886  0  4.066748  0  0  0.286646  0  4.082298  0  0  0.087299  0.265271  0  4.05611  0
C  C60  1  0.39274485  0.09889726  0.93303539  1  0  -0.214446  0  3.75521  0  0  -0.231909  0  4.001949  0  0  -0.239381  0  4.022611  0  0  -0.111145  -0.22712  0  3.988386  0
C  C61  1  0.60725660  0.90110371  0.06696397  1  0  -0.214517  0  3.755209  0  0  -0.231953  0  4.001976  0  0  -0.239426  0  4.022638  0  0  -0.11117  -0.22716  0  3.988412  0
C  C62  1  0.39121093  0.13207178  0.05552145  1  0  -0.032136  0  3.785353  0  0  -0.051717  0  4.030422  0  0  -0.048682  0  4.050818  0  0  -0.084384  -0.053684  0  4.016721  0
C  C63  1  0.60879052  0.86792919  0.94447790  1  0  -0.032135  0  3.785481  0  0  -0.051719  0  4.030541  0  0  -0.048682  0  4.050938  0  0  -0.084379  -0.053692  0  4.016842  0
C  C64  1  0.37725300  0.04486241  0.67892214  1  0  -0.081367  0  3.623915  0  0  -0.179436  0  3.889343  0  0  -0.172478  0  3.89225  0  0  -0.14087  -0.183987  0  3.88769  0
C  C65  1  0.62274720  0.95513857  0.32107790  1  0  -0.081418  0  3.623941  0  0  -0.179468  0  3.889334  0  0  -0.172514  0  3.892241  0  0  -0.140885  -0.184021  0  3.887679  0
C  C66  1  0.08748443  0.31964479  0.18694565  1  0  0.456416  0  3.505969  0  0  0.471251  0  3.746193  0  0  0.481024  0  3.758002  0  0  0.076468  0.46457  0  3.737803  0
C  C67  1  0.91251578  0.68035618  0.81305527  1  0  0.456378  0  3.505924  0  0  0.47118  0  3.746199  0  0  0.480952  0  3.758008  0  0  0.076456  0.4645  0  3.737807  0
C  C68  1  0.04236719  0.42503267  0.13139226  1  0  -0.38219  0  3.644387  0  0  -0.463951  0  3.880956  0  0  -0.467548  0  3.889206  0  0  -0.247678  -0.461135  0  3.875311  0
C  C69  1  0.95763190  0.57496633  0.86860825  1  0  -0.382202  0  3.644425  0  0  -0.463975  0  3.880992  0  0  -0.467574  0  3.889244  0  0  -0.247698  -0.461158  0  3.875347  0
C  C70  1  0.00110540  0.28895752  0.29165637  1  0  -0.391626  0  3.654052  0  0  -0.472138  0  3.88583  0  0  -0.476546  0  3.895389  0  0  -0.249757  -0.468883  0  3.879507  0
C  C71  1  0.99889370  0.71104148  0.70834413  1  0  -0.391644  0  3.654027  0  0  -0.472149  0  3.885799  0  0  -0.476558  0  3.895359  0  0  -0.249765  -0.468896  0  3.879476  0
C  C72  1  0.02756322  0.19719944  0.08586269  1  0  -0.390743  0  3.641422  0  0  -0.469389  0  3.866861  0  0  -0.473695  0  3.876684  0  0  -0.250584  -0.466128  0  3.860062  0
C  C73  1  0.97243698  0.80280153  0.91413911  1  0  -0.390787  0  3.641428  0  0  -0.469417  0  3.86686  0  0  -0.473722  0  3.876682  0  0  -0.250583  -0.466152  0  3.860065  0
C  C74  1  0.89030637  0.25329629  0.56227839  1  0  0.088445  0  3.60739  0  0  0.035615  0  3.871209  0  0  0.042282  0  3.877619  0  0  -0.079221  0.031201  0  3.866778  0
C  C75  1  0.10969328  0.74670370  0.43772144  1  0  0.088394  0  3.607427  0  0  0.035581  0  3.871185  0  0  0.042244  0  3.8776  0  0  -0.079193  0.031161  0  3.866751  0
C  C76  1  0.00022238  0.17332441  0.60160090  1  0  -0.14576  0  3.686358  0  0  -0.185215  0  3.942049  0  0  -0.187392  0  3.955778  0  0  -0.167733  -0.183461  0  3.932396  0
C  C77  1  0.99977797  0.82667460  0.39839804  1  0  -0.145777  0  3.686402  0  0  -0.185223  0  3.942036  0  0  -0.187402  0  3.955765  0  0  -0.167765  -0.183473  0  3.93238  0
C  C78  1  0.04764109  0.20992430  0.74337646  1  0  -0.148893  0  3.690022  0  0  -0.189937  0  3.950264  0  0  -0.191825  0  3.963721  0  0  -0.172276  -0.188455  0  3.940917  0
C  C79  1  0.95235800  0.79007471  0.25662317  1  0  -0.148943  0  3.690026  0  0  -0.189976  0  3.950271  0  0  -0.191862  0  3.963724  0  0  -0.172263  -0.188499  0  3.940926  0
C  C80  1  0.87259783  0.21677105  0.76155181  1  0  0.09735  0  3.614407  0  0  0.042939  0  3.884463  0  0  0.050192  0  3.889852  0  0  -0.078877  0.038068  0  3.880795  0
C  C81  1  0.12740127  0.78322796  0.23844782  1  0  0.097384  0  3.614296  0  0  0.04295  0  3.884366  0  0  0.050203  0  3.88975  0  0  -0.078889  0.038074  0  3.880699  0
S  S82  1  0.34173496  0.15533403  0.34257138  1  0  -0.651917  0  1.843939  0  0  -0.613699  0  2.161909  0  0  -0.629499  0  2.149152  0  0  -0.262463  -0.601834  0  2.170724  0
S  S83  1  0.65826594  0.84466596  0.65742777  1  0  -0.651931  0  1.84393  0  0  -0.613709  0  2.16189  0  0  -0.62951  0  2.149134  0  0  -0.262471  -0.601846  0  2.1707  0
S  S84  1  0.66881767  0.46073153  0.36895526  1  0  -0.696526  0  1.837021  0  0  -0.661756  0  2.165851  0  0  -0.679805  0  2.154466  0  0  -0.313703  -0.64827  0  2.173669  0
S  S85  1  0.33118323  0.53926847  0.63104477  1  0  -0.696525  0  1.837038  0  0  -0.661757  0  2.165864  0  0  -0.679805  0  2.15448  0  0  -0.313699  -0.648276  0  2.173682  0
O  O86  1  0.29040374  0.38280281  0.24217210  1  0  -0.540282  0  2.206962  0  0  -0.455111  0  2.45324  0  0  -0.4763  0  2.447368  0  0  -0.273907  -0.440068  0  2.456981  0
O  O87  1  0.70959536  0.61719619  0.75782753  1  0  -0.540268  0  2.206877  0  0  -0.455092  0  2.453168  0  0  -0.476273  0  2.447283  0  0  -0.273905  -0.440051  0  2.456905  0
O  O88  1  0.45467938  0.17811617  0.74885634  1  0  -0.290204  0  2.393241  0  0  -0.210709  0  2.634961  0  0  -0.229348  0  2.638775  0  0  -0.238346  -0.197529  0  2.632043  0
O  O89  1  0.54532207  0.82188480  0.25114213  1  0  -0.29027  0  2.393212  0  0  -0.210763  0  2.634971  0  0  -0.229398  0  2.638783  0  0  -0.238392  -0.197583  0  2.632049  0
O  O90  1  0.79722142  0.26124226  0.65604892  1  0  -0.383566  0  2.207201  0  0  -0.312251  0  2.460367  0  0  -0.327797  0  2.459631  0  0  -0.330837  -0.301  0  2.460363  0
O  O91  1  0.20277532  0.73875478  0.34395009  1  0  -0.383539  0  2.207175  0  0  -0.312228  0  2.460341  0  0  -0.327775  0  2.459611  0  0  -0.330824  -0.300974  0  2.460337  0
