# generated using pymatgen
data_SrH10C15N2O5
_symmetry_space_group_name_H-M   'P 1'
_cell_length_a   6.68279966
_cell_length_b   12.46789795
_cell_length_c   17.14977558
_cell_angle_alpha   104.17328934
_cell_angle_beta   89.99975301
_cell_angle_gamma   90.00003294
_symmetry_Int_Tables_number   1
_chemical_formula_structural   SrH10C15N2O5
_chemical_formula_sum   'Sr4 H40 C60 N8 O20'
_cell_volume   1385.43015132
_cell_formula_units_Z   4
loop_
 _symmetry_equiv_pos_site_id
 _symmetry_equiv_pos_as_xyz
  1  'x, y, z'
loop_
 _atom_site_type_symbol
 _atom_site_label
 _atom_site_symmetry_multiplicity
 _atom_site_fract_x
 _atom_site_fract_y
 _atom_site_fract_z
 _atom_site_occupancy
 _atom_site_hle17_bader_spin_density
 _atom_site_hle17_ddec_charge
 _atom_site_hle17_ddec_spin_density
 _atom_site_hle17_ddec_sum_bond_order
 _atom_site_hle17_magmom
 _atom_site_hse06_10hf_bader_spin_density
 _atom_site_hse06_10hf_ddec_charge
 _atom_site_hse06_10hf_ddec_spin_density
 _atom_site_hse06_10hf_ddec_sum_bond_order
 _atom_site_hse06_10hf_magmom
 _atom_site_hse06_bader_spin_density
 _atom_site_hse06_ddec_charge
 _atom_site_hse06_ddec_spin_density
 _atom_site_hse06_ddec_sum_bond_order
 _atom_site_hse06_magmom
 _atom_site_pbe_bader_spin_density
 _atom_site_pbe_cm5_charge
 _atom_site_pbe_ddec_charge
 _atom_site_pbe_ddec_spin_density
 _atom_site_pbe_ddec_sum_bond_order
 _atom_site_pbe_magmom
Sr  Sr0  1  0.43702883  0.66184277  0.47472829  1  0  1.609481  0  1.136936  0  0  1.473189  0  1.493351  0  0  1.513924  0  1.448578  0  0  0.984043  1.443144  0  1.525063  0
Sr  Sr1  1  0.93703318  0.83816130  0.52527173  1  0  1.609444  0  1.136991  0  0  1.473151  0  1.493414  0  0  1.513885  0  1.448644  0  0  0.984018  1.443096  0  1.525154  0
Sr  Sr2  1  0.56296363  0.33816324  0.52527077  1  0  1.609452  0  1.136938  0  0  1.473129  0  1.49339  0  0  1.513865  0  1.448616  0  0  0.984006  1.443056  0  1.525148  0
Sr  Sr3  1  0.06296228  0.16184224  0.47472805  1  0  1.60945  0  1.136982  0  0  1.47315  0  1.493416  0  0  1.513884  0  1.448644  0  0  0.984028  1.443071  0  1.525191  0
H  H4  1  0.97725561  0.08349937  0.78201547  1  0  0.09974  0  0.973424  0  0  0.110268  0  1.03862  0  0  0.113927  0  1.035919  0  0  0.102483  0.107626  0  1.040619  0
H  H5  1  0.47724669  0.41648695  0.21798678  1  0  0.099808  0  0.973488  0  0  0.110325  0  1.038676  0  0  0.113981  0  1.035979  0  0  0.10255  0.107691  0  1.040656  0
H  H6  1  0.02274434  0.91649258  0.21798400  1  0  0.09983  0  0.973412  0  0  0.110336  0  1.038616  0  0  0.113995  0  1.035911  0  0  0.102521  0.107693  0  1.040618  0
H  H7  1  0.52274727  0.58351162  0.78201271  1  0  0.099844  0  0.973466  0  0  0.110311  0  1.038713  0  0  0.113968  0  1.036012  0  0  0.102541  0.107677  0  1.040691  0
H  H8  1  0.67167520  0.09871304  0.86089530  1  0  0.086138  0  0.96032  0  0  0.096939  0  1.024414  0  0  0.09984  0  1.023011  0  0  0.097599  0.094835  0  1.025524  0
H  H9  1  0.17168354  0.40127751  0.13910009  1  0  0.086172  0  0.960375  0  0  0.096897  0  1.024551  0  0  0.099828  0  1.023109  0  0  0.097547  0.094787  0  1.025677  0
H  H10  1  0.32831128  0.90128553  0.13910011  1  0  0.08621  0  0.96039  0  0  0.096926  0  1.024563  0  0  0.099829  0  1.02316  0  0  0.097598  0.09482  0  1.025677  0
H  H11  1  0.82832089  0.59871775  0.86089589  1  0  0.086235  0  0.960512  0  0  0.096982  0  1.024641  0  0  0.099915  0  1.023196  0  0  0.097573  0.094868  0  1.025772  0
H  H12  1  0.43915841  0.21116677  0.96228121  1  0  0.082546  0  0.991202  0  0  0.091575  0  1.056794  0  0  0.093071  0  1.058746  0  0  0.09386  0.0905  0  1.055536  0
H  H13  1  0.93918568  0.28882535  0.03770697  1  0  0.082544  0  0.991264  0  0  0.091571  0  1.056852  0  0  0.093065  0  1.058807  0  0  0.093832  0.090499  0  1.055591  0
H  H14  1  0.56082656  0.78883759  0.03771347  1  0  0.082537  0  0.991407  0  0  0.091595  0  1.056964  0  0  0.093092  0  1.058914  0  0  0.093855  0.090519  0  1.055707  0
H  H15  1  0.06081725  0.71116329  0.96229016  1  0  0.082551  0  0.991344  0  0  0.091597  0  1.056907  0  0  0.093093  0  1.058859  0  0  0.093825  0.090525  0  1.055644  0
H  H16  1  0.50552478  0.41118012  0.01851895  1  0  0.082916  0  0.975288  0  0  0.094036  0  1.038091  0  0  0.096037  0  1.038193  0  0  0.09662  0.092613  0  1.038058  0
H  H17  1  0.00555106  0.08881049  0.98147266  1  0  0.082861  0  0.975277  0  0  0.093981  0  1.038095  0  0  0.096013  0  1.038105  0  0  0.0966  0.092561  0  1.038063  0
H  H18  1  0.49447516  0.58882259  0.98147835  1  0  0.082911  0  0.975333  0  0  0.094017  0  1.038147  0  0  0.096019  0  1.038249  0  0  0.096641  0.092595  0  1.038114  0
H  H19  1  0.99446235  0.91117898  0.01852754  1  0  0.082931  0  0.975349  0  0  0.094039  0  1.038162  0  0  0.096054  0  1.038227  0  0  0.096622  0.092615  0  1.038132  0
H  H20  1  0.79571717  0.50206674  0.97099430  1  0  0.087601  0  0.972836  0  0  0.097033  0  1.040703  0  0  0.099469  0  1.040304  0  0  0.097232  0.09529  0  1.041077  0
H  H21  1  0.29572825  0.99792745  0.02900539  1  0  0.087664  0  0.972827  0  0  0.097001  0  1.040817  0  0  0.099435  0  1.040422  0  0  0.09725  0.09527  0  1.041161  0
H  H22  1  0.20428875  0.49793266  0.02900533  1  0  0.08752  0  0.972805  0  0  0.096913  0  1.040738  0  0  0.099348  0  1.04034  0  0  0.097184  0.095166  0  1.041128  0
H  H23  1  0.70428965  0.00206616  0.97099496  1  0  0.087609  0  0.97282  0  0  0.096987  0  1.040755  0  0  0.09942  0  1.04036  0  0  0.097225  0.09524  0  1.041144  0
H  H24  1  0.10358254  0.48766266  0.88526636  1  0  0.091275  0  0.957812  0  0  0.104561  0  1.016498  0  0  0.107079  0  1.016074  0  0  0.099392  0.102773  0  1.016894  0
H  H25  1  0.60359225  0.01232874  0.11473279  1  0  0.091272  0  0.957793  0  0  0.104601  0  1.016429  0  0  0.107121  0  1.016004  0  0  0.099393  0.10281  0  1.016833  0
H  H26  1  0.89641740  0.51233177  0.11473355  1  0  0.09126  0  0.957732  0  0  0.104554  0  1.01642  0  0  0.107074  0  1.015996  0  0  0.099373  0.102764  0  1.01682  0
H  H27  1  0.39642864  0.98767231  0.88526830  1  0  0.091286  0  0.957813  0  0  0.10458  0  1.016488  0  0  0.107099  0  1.016065  0  0  0.099393  0.102788  0  1.016892  0
H  H28  1  0.33844861  0.37338192  0.78942999  1  0  0.10319  0  0.97182  0  0  0.115001  0  1.031331  0  0  0.11829  0  1.029157  0  0  0.105329  0.112609  0  1.033019  0
H  H29  1  0.83844998  0.12661602  0.21057166  1  0  0.103202  0  0.971795  0  0  0.114994  0  1.031343  0  0  0.118283  0  1.029172  0  0  0.105344  0.112614  0  1.033017  0
H  H30  1  0.66155433  0.62661747  0.21056964  1  0  0.103217  0  0.971825  0  0  0.115032  0  1.031316  0  0  0.11832  0  1.029142  0  0  0.105337  0.11265  0  1.03299  0
H  H31  1  0.16156044  0.87339248  0.78942842  1  0  0.103185  0  0.971682  0  0  0.114967  0  1.03126  0  0  0.118255  0  1.029089  0  0  0.10535  0.112586  0  1.032932  0
H  H32  1  0.16470343  0.99713079  0.68589156  1  0  0.327729  0  0.886445  0  0  0.307108  0  0.952412  0  0  0.315324  0  0.945555  0  0  0.324861  0.301278  0  0.957339  0
H  H33  1  0.66468864  0.50286675  0.31411071  1  0  0.327607  0  0.886581  0  0  0.307036  0  0.952472  0  0  0.315254  0  0.945612  0  0  0.324873  0.301207  0  0.957399  0
H  H34  1  0.83529651  0.00287440  0.31410969  1  0  0.32755  0  0.886593  0  0  0.306986  0  0.952499  0  0  0.3152  0  0.945643  0  0  0.324842  0.301157  0  0.957424  0
H  H35  1  0.33530681  0.49713513  0.68588936  1  0  0.3276  0  0.886587  0  0  0.306983  0  0.952531  0  0  0.315197  0  0.945676  0  0  0.324891  0.301153  0  0.957458  0
H  H36  1  0.44882569  0.67425931  0.30024255  1  0  0.393915  0  0.926807  0  0  0.351376  0  1.012808  0  0  0.363258  0  0.995715  0  0  0.284791  0.343043  0  1.02476  0
H  H37  1  0.94883122  0.82574393  0.69975905  1  0  0.393919  0  0.926845  0  0  0.351376  0  1.012815  0  0  0.363259  0  0.995722  0  0  0.284791  0.343044  0  1.024766  0
H  H38  1  0.55117575  0.32574257  0.69975985  1  0  0.393906  0  0.926839  0  0  0.351368  0  1.012821  0  0  0.363251  0  0.995728  0  0  0.284795  0.343035  0  1.024773  0
H  H39  1  0.05117171  0.17425712  0.30024321  1  0  0.393901  0  0.926853  0  0  0.351356  0  1.012845  0  0  0.363239  0  0.995752  0  0  0.284799  0.343023  0  1.024797  0
H  H40  1  0.29191535  0.57870074  0.29953347  1  0  0.410569  0  0.840941  0  0  0.389865  0  0.905206  0  0  0.397125  0  0.897171  0  0  0.315063  0.384713  0  0.910929  0
H  H41  1  0.79192547  0.92130420  0.70046814  1  0  0.410571  0  0.840946  0  0  0.389858  0  0.905229  0  0  0.397117  0  0.897194  0  0  0.315078  0.384706  0  0.910951  0
H  H42  1  0.70808459  0.42130114  0.70046719  1  0  0.410547  0  0.840963  0  0  0.389847  0  0.905217  0  0  0.397107  0  0.897182  0  0  0.315064  0.384695  0  0.910939  0
H  H43  1  0.20807746  0.07869768  0.29953485  1  0  0.410558  0  0.840938  0  0  0.38985  0  0.90521  0  0  0.39711  0  0.897175  0  0  0.31509  0.384701  0  0.910928  0
C  C44  1  0.44830437  0.01164249  0.63297793  1  0  0.004386  0  3.654542  0  0  -0.010554  0  3.918499  0  0  -0.012184  0  3.934509  0  0  0.097822  -0.009654  0  3.907961  0
C  C45  1  0.94828807  0.48835459  0.36702395  1  0  0.00422  0  3.654742  0  0  -0.010746  0  3.918744  0  0  -0.012375  0  3.934758  0  0  0.097739  -0.009841  0  3.908205  0
C  C46  1  0.55169857  0.98835691  0.36702170  1  0  0.004359  0  3.654633  0  0  -0.010591  0  3.918597  0  0  -0.012222  0  3.934613  0  0  0.097805  -0.009694  0  3.908059  0
C  C47  1  0.05170589  0.51164646  0.63297772  1  0  0.00433  0  3.654758  0  0  -0.010667  0  3.918762  0  0  -0.012297  0  3.934775  0  0  0.097769  -0.009764  0  3.908224  0
C  C48  1  0.43832281  0.90280851  0.57423740  1  0  0.665573  0  3.953688  0  0  0.616936  0  4.250311  0  0  0.65264  0  4.238701  0  0  0.223559  0.592618  0  4.257481  0
C  C49  1  0.93831595  0.59718977  0.42576159  1  0  0.665715  0  3.953677  0  0  0.617078  0  4.25031  0  0  0.652782  0  4.238698  0  0  0.223573  0.592761  0  4.257479  0
C  C50  1  0.56167414  0.09719420  0.42576341  1  0  0.665417  0  3.95368  0  0  0.616801  0  4.250262  0  0  0.652504  0  4.238657  0  0  0.223524  0.592486  0  4.257425  0
C  C51  1  0.06167950  0.40281211  0.57424081  1  0  0.665402  0  3.954059  0  0  0.616829  0  4.25059  0  0  0.652532  0  4.238984  0  0  0.223521  0.592513  0  4.257751  0
C  C52  1  0.31381545  0.15466161  0.72140176  1  0  0.344355  0  3.733956  0  0  0.308762  0  4.003151  0  0  0.323122  0  4.016626  0  0  0.232379  0.299346  0  3.993813  0
C  C53  1  0.81379541  0.34533634  0.27860460  1  0  0.344414  0  3.733751  0  0  0.308875  0  4.002842  0  0  0.323257  0  4.016288  0  0  0.232422  0.299453  0  3.993514  0
C  C54  1  0.68618749  0.84533944  0.27859992  1  0  0.344162  0  3.73399  0  0  0.30859  0  4.003166  0  0  0.322962  0  4.016622  0  0  0.232279  0.299168  0  3.993839  0
C  C55  1  0.18620453  0.65466554  0.72139606  1  0  0.344444  0  3.733707  0  0  0.308861  0  4.002844  0  0  0.323253  0  4.016275  0  0  0.232394  0.299439  0  3.993515  0
C  C56  1  0.17304634  0.22014230  0.77848698  1  0  0.000575  0  3.812105  0  0  0.018373  0  4.054198  0  0  0.016384  0  4.075747  0  0  -0.004522  0.019517  0  4.039599  0
C  C57  1  0.67304927  0.27985238  0.22151789  1  0  0.000551  0  3.812144  0  0  0.018306  0  4.054239  0  0  0.016311  0  4.075782  0  0  -0.00451  0.019451  0  4.039644  0
C  C58  1  0.82694612  0.77986040  0.22151616  1  0  0.000747  0  3.812114  0  0  0.018527  0  4.054177  0  0  0.016535  0  4.075719  0  0  -0.004474  0.019673  0  4.039582  0
C  C59  1  0.32695517  0.72014867  0.77848204  1  0  0.00044  0  3.812377  0  0  0.018266  0  4.054429  0  0  0.016268  0  4.075971  0  0  -0.004524  0.01941  0  4.039835  0
C  C60  1  0.00569866  0.17201638  0.80373442  1  0  -0.129094  0  3.678579  0  0  -0.160785  0  3.924479  0  0  -0.161937  0  3.942877  0  0  -0.084392  -0.15967  0  3.911835  0
C  C61  1  0.50568693  0.32797836  0.19626842  1  0  -0.129156  0  3.678351  0  0  -0.160862  0  3.924212  0  0  -0.162014  0  3.942599  0  0  -0.084456  -0.159745  0  3.911566  0
C  C62  1  0.99429829  0.82798633  0.19626755  1  0  -0.129186  0  3.678367  0  0  -0.160847  0  3.924275  0  0  -0.16199  0  3.942669  0  0  -0.084396  -0.159733  0  3.911632  0
C  C63  1  0.49431151  0.67202021  0.80373048  1  0  -0.129135  0  3.678273  0  0  -0.160811  0  3.92417  0  0  -0.161963  0  3.942559  0  0  -0.084431  -0.159696  0  3.911526  0
C  C64  1  0.86832041  0.23561565  0.85878473  1  0  0.06042  0  3.798157  0  0  0.079428  0  4.023413  0  0  0.078711  0  4.047751  0  0  -0.007078  0.079833  0  4.006826  0
C  C65  1  0.36832708  0.26437070  0.14121421  1  0  0.06039  0  3.798383  0  0  0.079511  0  4.023423  0  0  0.078802  0  4.047749  0  0  -0.007121  0.079918  0  4.006831  0
C  C66  1  0.13167504  0.76438126  0.14121271  1  0  0.060414  0  3.798035  0  0  0.079393  0  4.023297  0  0  0.078662  0  4.04766  0  0  -0.007102  0.079798  0  4.006709  0
C  C67  1  0.63168333  0.73562374  0.85878512  1  0  0.060455  0  3.79817  0  0  0.079536  0  4.023298  0  0  0.078826  0  4.047625  0  0  -0.007094  0.079942  0  4.006707  0
C  C68  1  0.69796799  0.18688017  0.88568989  1  0  -0.109798  0  3.738608  0  0  -0.13105  0  3.989514  0  0  -0.133022  0  4.009552  0  0  -0.089832  -0.129641  0  3.976035  0
C  C69  1  0.19797499  0.31311699  0.11431128  1  0  -0.109829  0  3.738298  0  0  -0.131054  0  3.989165  0  0  -0.133044  0  4.009189  0  0  -0.089772  -0.129647  0  3.975684  0
C  C70  1  0.30201998  0.81312337  0.11430989  1  0  -0.109874  0  3.738481  0  0  -0.131046  0  3.989396  0  0  -0.133017  0  4.009432  0  0  -0.089844  -0.129638  0  3.97592  0
C  C71  1  0.80202794  0.68687579  0.88568309  1  0  -0.109946  0  3.738417  0  0  -0.131193  0  3.989343  0  0  -0.133185  0  4.009361  0  0  -0.089793  -0.129787  0  3.975865  0
C  C72  1  0.56931208  0.24914616  0.94168225  1  0  -0.068909  0  3.776828  0  0  -0.082439  0  4.027291  0  0  -0.084692  0  4.049818  0  0  -0.094353  -0.080957  0  4.012169  0
C  C73  1  0.06931959  0.25083532  0.05830704  1  0  -0.06907  0  3.776872  0  0  -0.082594  0  4.027295  0  0  -0.084852  0  4.049839  0  0  -0.094399  -0.081114  0  4.012174  0
C  C74  1  0.43068936  0.75085572  0.05831316  1  0  -0.068855  0  3.77699  0  0  -0.0824  0  4.027391  0  0  -0.084651  0  4.049917  0  0  -0.094296  -0.08092  0  4.012269  0
C  C75  1  0.93068933  0.74915332  0.94169242  1  0  -0.068977  0  3.776846  0  0  -0.0825  0  4.027264  0  0  -0.084756  0  4.049803  0  0  -0.094318  -0.081018  0  4.012141  0
C  C76  1  0.60580866  0.36343355  0.97296653  1  0  -0.067937  0  3.781809  0  0  -0.082788  0  4.031018  0  0  -0.083608  0  4.051748  0  0  -0.094149  -0.082042  0  4.016914  0
C  C77  1  0.10583432  0.13655951  0.02702709  1  0  -0.067784  0  3.78226  0  0  -0.082623  0  4.031417  0  0  -0.083435  0  4.052174  0  0  -0.094059  -0.081877  0  4.017315  0
C  C78  1  0.39418680  0.63657164  0.02703063  1  0  -0.067937  0  3.782207  0  0  -0.082781  0  4.031429  0  0  -0.083601  0  4.052163  0  0  -0.094149  -0.082034  0  4.01732  0
C  C79  1  0.89417610  0.86343162  0.97297107  1  0  -0.067974  0  3.782509  0  0  -0.082823  0  4.031715  0  0  -0.083642  0  4.052466  0  0  -0.094144  -0.082078  0  4.017613  0
C  C80  1  0.76773497  0.41394267  0.94679862  1  0  -0.138271  0  3.768345  0  0  -0.155951  0  4.017714  0  0  -0.158836  0  4.037638  0  0  -0.096038  -0.153947  0  4.004082  0
C  C81  1  0.26773786  0.08604620  0.05320037  1  0  -0.138289  0  3.768677  0  0  -0.155932  0  4.018056  0  0  -0.158821  0  4.037993  0  0  -0.096061  -0.153929  0  4.004432  0
C  C82  1  0.23227994  0.58605838  0.05319897  1  0  -0.13815  0  3.768287  0  0  -0.155811  0  4.017689  0  0  -0.158696  0  4.037614  0  0  -0.096057  -0.15381  0  4.004054  0
C  C83  1  0.73227555  0.91394658  0.94679983  1  0  -0.138153  0  3.768434  0  0  -0.155803  0  4.017822  0  0  -0.158692  0  4.037759  0  0  -0.09605  -0.153803  0  4.004192  0
C  C84  1  0.90293455  0.35194791  0.88932974  1  0  0.054693  0  3.801151  0  0  0.069478  0  4.024938  0  0  0.069959  0  4.048984  0  0  -0.010072  0.069254  0  4.008501  0
C  C85  1  0.40292944  0.14804505  0.11067149  1  0  0.054802  0  3.801451  0  0  0.069591  0  4.025147  0  0  0.07007  0  4.049195  0  0  -0.009985  0.069369  0  4.00871  0
C  C86  1  0.09707138  0.64805066  0.11067091  1  0  0.054531  0  3.801108  0  0  0.069347  0  4.024891  0  0  0.069832  0  4.04894  0  0  -0.010103  0.069124  0  4.00845  0
C  C87  1  0.59707649  0.85195104  0.88932930  1  0  0.054736  0  3.801198  0  0  0.069532  0  4.02492  0  0  0.070011  0  4.048966  0  0  -0.010001  0.069307  0  4.008484  0
C  C88  1  0.07462618  0.39937569  0.86210702  1  0  -0.124762  0  3.761019  0  0  -0.141309  0  4.009755  0  0  -0.144511  0  4.03071  0  0  -0.093557  -0.139193  0  3.995543  0
C  C89  1  0.57462678  0.10061489  0.13789205  1  0  -0.124888  0  3.760823  0  0  -0.141484  0  4.009558  0  0  -0.144686  0  4.030515  0  0  -0.093615  -0.139371  0  3.995358  0
C  C90  1  0.92537226  0.60062288  0.13789247  1  0  -0.124677  0  3.760645  0  0  -0.141251  0  4.009379  0  0  -0.144453  0  4.030334  0  0  -0.093537  -0.139136  0  3.99517  0
C  C91  1  0.42538364  0.89938368  0.86210627  1  0  -0.12491  0  3.761081  0  0  -0.141472  0  4.00983  0  0  -0.144675  0  4.03079  0  0  -0.093681  -0.13936  0  3.995631  0
C  C92  1  0.20654419  0.33571680  0.80871286  1  0  -0.076465  0  3.724854  0  0  -0.102223  0  3.975339  0  0  -0.103067  0  3.995338  0  0  -0.086077  -0.101401  0  3.961844  0
C  C93  1  0.70653832  0.16428036  0.19129297  1  0  -0.076411  0  3.724958  0  0  -0.102153  0  3.975476  0  0  -0.103  0  3.995483  0  0  -0.086079  -0.101339  0  3.961975  0
C  C94  1  0.79345276  0.66428508  0.19129013  1  0  -0.076565  0  3.724726  0  0  -0.102295  0  3.975192  0  0  -0.103138  0  3.995191  0  0  -0.086067  -0.101482  0  3.961691  0
C  C95  1  0.29347060  0.83572235  0.80870958  1  0  -0.076324  0  3.725053  0  0  -0.102082  0  3.975575  0  0  -0.102929  0  3.995585  0  0  -0.086014  -0.10127  0  3.962074  0
C  C96  1  0.57348543  0.10432210  0.64381386  1  0  0.029455  0  3.700278  0  0  0.020885  0  3.96487  0  0  0.021187  0  3.981567  0  0  0.101049  0.020623  0  3.953792  0
C  C97  1  0.07347058  0.39567758  0.35618741  1  0  0.029593  0  3.700436  0  0  0.020945  0  3.96501  0  0  0.021245  0  3.981709  0  0  0.101097  0.020667  0  3.953957  0
C  C98  1  0.42651451  0.89568061  0.35618578  1  0  0.02938  0  3.700398  0  0  0.0208  0  3.964958  0  0  0.021101  0  3.981656  0  0  0.101028  0.020545  0  3.953871  0
C  C99  1  0.92652786  0.60432430  0.64381383  1  0  0.029524  0  3.700412  0  0  0.020928  0  3.964992  0  0  0.021234  0  3.981696  0  0  0.101081  0.020657  0  3.95393  0
C  C100  1  0.76191716  0.12324819  0.60236463  1  0  0.673471  0  3.93497  0  0  0.624244  0  4.232399  0  0  0.658683  0  4.221808  0  0  0.22143  0.600764  0  4.238944  0
C  C101  1  0.26190636  0.37675805  0.39763571  1  0  0.673175  0  3.935171  0  0  0.624144  0  4.232307  0  0  0.658582  0  4.221715  0  0  0.221331  0.600666  0  4.238858  0
C  C102  1  0.23807829  0.87675534  0.39763515  1  0  0.673401  0  3.93522  0  0  0.62425  0  4.232518  0  0  0.65869  0  4.221926  0  0  0.221419  0.600766  0  4.23907  0
C  C103  1  0.73809209  0.62324466  0.60236451  1  0  0.67333  0  3.935075  0  0  0.624185  0  4.232395  0  0  0.658605  0  4.221829  0  0  0.221403  0.600706  0  4.238946  0
N  N104  1  0.48687180  0.19156211  0.69792965  1  0  -0.406271  0  3.057864  0  0  -0.358125  0  3.312727  0  0  -0.373642  0  3.326768  0  0  -0.30707  -0.347553  0  3.303114  0
N  N105  1  0.98686046  0.30843661  0.30207420  1  0  -0.40645  0  3.057862  0  0  -0.358295  0  3.31271  0  0  -0.373817  0  3.326743  0  0  -0.307136  -0.347717  0  3.303105  0
N  N106  1  0.51312814  0.80843729  0.30207056  1  0  -0.406234  0  3.057782  0  0  -0.358087  0  3.312635  0  0  -0.373607  0  3.326671  0  0  -0.307044  -0.347514  0  3.303023  0
N  N107  1  0.01313499  0.69156444  0.69792572  1  0  -0.40651  0  3.057814  0  0  -0.358346  0  3.312661  0  0  -0.373871  0  3.326689  0  0  -0.307194  -0.34777  0  3.303054  0
N  N108  1  0.28759753  0.04616607  0.68318317  1  0  -0.333538  0  3.396869  0  0  -0.273855  0  3.627762  0  0  -0.28963  0  3.642333  0  0  -0.357557  -0.263245  0  3.61797  0
N  N109  1  0.78757572  0.45383603  0.31682047  1  0  -0.333269  0  3.396859  0  0  -0.273607  0  3.627672  0  0  -0.289394  0  3.642245  0  0  -0.357529  -0.262998  0  3.617882  0
N  N110  1  0.71240540  0.95383747  0.31681661  1  0  -0.33319  0  3.396759  0  0  -0.273564  0  3.62762  0  0  -0.289343  0  3.642195  0  0  -0.357491  -0.262954  0  3.617833  0
N  N111  1  0.21241973  0.54616503  0.68318062  1  0  -0.333254  0  3.396741  0  0  -0.273555  0  3.627646  0  0  -0.289341  0  3.642216  0  0  -0.357512  -0.262948  0  3.617857  0
O  O112  1  0.28964105  0.84080047  0.58094684  1  0  -0.729617  0  1.965065  0  0  -0.668859  0  2.20454  0  0  -0.694985  0  2.193922  0  0  -0.401316  -0.650259  0  2.211204  0
O  O113  1  0.78963881  0.65920283  0.41905332  1  0  -0.729695  0  1.965086  0  0  -0.668934  0  2.20457  0  0  -0.69506  0  2.193948  0  0  -0.401338  -0.650338  0  2.211235  0
O  O114  1  0.71034692  0.15920555  0.41905514  1  0  -0.729495  0  1.965099  0  0  -0.668726  0  2.204549  0  0  -0.69485  0  2.19393  0  0  -0.401304  -0.650123  0  2.211214  0
O  O115  1  0.21034766  0.34079492  0.58094777  1  0  -0.729559  0  1.965221  0  0  -0.668797  0  2.20464  0  0  -0.694922  0  2.194021  0  0  -0.40131  -0.650193  0  2.211302  0
O  O116  1  0.56889411  0.87603911  0.51924658  1  0  -0.713864  0  2.04356  0  0  -0.655128  0  2.287371  0  0  -0.682141  0  2.279036  0  0  -0.387224  -0.636159  0  2.292654  0
O  O117  1  0.06888367  0.62395929  0.48075135  1  0  -0.713922  0  2.043616  0  0  -0.655191  0  2.287418  0  0  -0.682203  0  2.279083  0  0  -0.387185  -0.636221  0  2.292697  0
O  O118  1  0.43110135  0.12396112  0.48075728  1  0  -0.713836  0  2.04342  0  0  -0.655105  0  2.287208  0  0  -0.682118  0  2.278879  0  0  -0.387174  -0.636125  0  2.292485  0
O  O119  1  0.93111478  0.37604011  0.51925003  1  0  -0.713818  0  2.043727  0  0  -0.655105  0  2.28751  0  0  -0.682118  0  2.27918  0  0  -0.387171  -0.63613  0  2.292789  0
O  O120  1  0.88066690  0.04398175  0.57268457  1  0  -0.729189  0  1.996742  0  0  -0.672582  0  2.245294  0  0  -0.69871  0  2.234892  0  0  -0.393796  -0.654132  0  2.25201  0
O  O121  1  0.38063942  0.45602197  0.42732153  1  0  -0.729037  0  1.997035  0  0  -0.672488  0  2.245449  0  0  -0.698615  0  2.235048  0  0  -0.393732  -0.654042  0  2.252163  0
O  O122  1  0.11932855  0.95602013  0.42731551  1  0  -0.729165  0  1.996913  0  0  -0.672613  0  2.245461  0  0  -0.698741  0  2.235059  0  0  -0.393813  -0.654163  0  2.252181  0
O  O123  1  0.61935005  0.54398570  0.57268015  1  0  -0.729066  0  1.996977  0  0  -0.672501  0  2.245493  0  0  -0.698619  0  2.235098  0  0  -0.393764  -0.654054  0  2.252209  0
O  O124  1  0.79495878  0.22168930  0.59709290  1  0  -0.732234  0  2.043076  0  0  -0.671915  0  2.278339  0  0  -0.698491  0  2.269685  0  0  -0.381472  -0.653196  0  2.283777  0
O  O125  1  0.29495679  0.27831031  0.40290271  1  0  -0.732179  0  2.04304  0  0  -0.671904  0  2.278166  0  0  -0.698482  0  2.269511  0  0  -0.381453  -0.653187  0  2.283606  0
O  O126  1  0.20503966  0.77831340  0.40290499  1  0  -0.732158  0  2.043157  0  0  -0.671846  0  2.278341  0  0  -0.698422  0  2.269684  0  0  -0.381418  -0.653133  0  2.283782  0
O  O127  1  0.70504015  0.72169157  0.59709853  1  0  -0.732225  0  2.043046  0  0  -0.67191  0  2.278219  0  0  -0.698481  0  2.269573  0  0  -0.381473  -0.653199  0  2.283659  0
O  O128  1  0.43417457  0.59533759  0.30601917  1  0  -0.848016  0  1.890935  0  0  -0.801456  0  2.088543  0  0  -0.818553  0  2.060243  0  0  -0.588993  -0.789268  0  2.108276  0
O  O129  1  0.93418174  0.90466565  0.69398421  1  0  -0.848011  0  1.890955  0  0  -0.801415  0  2.088538  0  0  -0.818514  0  2.060239  0  0  -0.58901  -0.789226  0  2.108271  0
O  O130  1  0.56582537  0.40466429  0.69398323  1  0  -0.847999  0  1.890965  0  0  -0.801407  0  2.08854  0  0  -0.818505  0  2.06024  0  0  -0.589011  -0.789217  0  2.108271  0
O  O131  1  0.06581969  0.09533623  0.30601820  1  0  -0.847989  0  1.890987  0  0  -0.801408  0  2.088592  0  0  -0.818506  0  2.060293  0  0  -0.589036  -0.789219  0  2.108324  0
