# generated using pymatgen
data_CdH30C48N3O4
_symmetry_space_group_name_H-M   'P 1'
_cell_length_a   9.17745235
_cell_length_b   13.67841444
_cell_length_c   22.83410919
_cell_angle_alpha   74.48238845
_cell_angle_beta   83.64561033
_cell_angle_gamma   87.97152652
_symmetry_Int_Tables_number   1
_chemical_formula_structural   CdH30C48N3O4
_chemical_formula_sum   'Cd2 H60 C96 N6 O8'
_cell_volume   2744.92907951
_cell_formula_units_Z   2
loop_
 _symmetry_equiv_pos_site_id
 _symmetry_equiv_pos_as_xyz
  1  'x, y, z'
loop_
 _atom_site_type_symbol
 _atom_site_label
 _atom_site_symmetry_multiplicity
 _atom_site_fract_x
 _atom_site_fract_y
 _atom_site_fract_z
 _atom_site_occupancy
 _atom_site_pbe_bader_charge
 _atom_site_pbe_bader_spin_density
 _atom_site_pbe_cm5_charge
 _atom_site_pbe_ddec_charge
 _atom_site_pbe_ddec_spin_density
 _atom_site_pbe_ddec_sum_bond_order
 _atom_site_pbe_magmom
Cd  Cd0  1  0.48861280  0.53704782  0.20003100  1  1.241922  0  0.757406  0.793581  0  2.219533  0
Cd  Cd1  1  0.51138067  0.46295083  0.79996992  1  1.241993  0  0.757412  0.793602  0  2.219511  0
H  H2  1  0.71792647  0.40062526  0.27758774  1  0.129979  0  0.119712  0.096185  0  1.005725  0
H  H3  1  0.28206809  0.59937415  0.72241302  1  0.129685  0  0.119706  0.096194  0  1.005693  0
H  H4  1  0.87575889  0.24518948  0.28521032  1  0.096955  0  0.117619  0.129363  0  0.971409  0
H  H5  1  0.12423562  0.75480992  0.71479351  1  0.097014  0  0.117621  0.12933  0  0.971471  0
H  H6  1  0.73089122  0.22496397  0.11540804  1  0.090429  0  0.104692  0.113275  0  1.027354  0
H  H7  1  0.26911428  0.77503696  0.88459289  1  0.090397  0  0.104689  0.113245  0  1.0274  0
H  H8  1  0.57509609  0.38071148  0.11590391  1  0.118906  0  0.116865  0.094404  0  1.015654  0
H  H9  1  0.42491053  0.61928947  0.88409478  1  0.118833  0  0.116875  0.094425  0  1.015637  0
H  H10  1  0.61985195  0.08671250  0.24502256  1  0.072825  0  0.100221  0.102051  0  1.020369  0
H  H11  1  0.38014591  0.91328692  0.75497718  1  0.072846  0  0.10018  0.101984  0  1.020369  0
H  H12  1  0.51265898  0.91707327  0.28818170  1  0.066065  0  0.098692  0.094526  0  1.010649  0
H  H13  1  0.48733779  0.08292691  0.71181709  1  0.066111  0  0.098707  0.094528  0  1.010703  0
H  H14  1  0.67116365  0.76137179  0.29896564  1  0.083472  0  0.10186  0.10075  0  1.026896  0
H  H15  1  0.32883311  0.23862763  0.70103502  1  0.083522  0  0.101876  0.100783  0  1.02684  0
H  H16  1  0.93463312  0.77701836  0.26453305  1  0.071061  0  0.103536  0.106712  0  1.005086  0
H  H17  1  0.06536143  0.22298181  0.73546758  1  0.071052  0  0.10356  0.106747  0  1.005076  0
H  H18  1  0.36933503  0.99377520  0.17156953  1  0.070697  0  0.09729  0.097934  0  1.027005  0
H  H19  1  0.63066173  0.00621889  0.82843548  1  0.070756  0  0.097295  0.098001  0  1.027008  0
H  H20  1  0.47860340  0.16311132  0.13202645  1  0.031493  0  0.094629  0.086493  0  1.045229  0
H  H21  1  0.52139887  0.83688126  0.86797770  1  0.031336  0  0.09464  0.086513  0  1.045289  0
H  H22  1  0.32184537  0.31901320  0.12238198  1  0.068278  0  0.100263  0.09992  0  1.034019  0
H  H23  1  0.67816019  0.68098090  0.87762091  1  0.068198  0  0.100265  0.099943  0  1.034062  0
H  H24  1  0.05806553  0.30468257  0.15518694  1  0.091401  0  0.098669  0.100416  0  1.044025  0
H  H25  1  0.94193889  0.69531533  0.84481496  1  0.09157  0  0.098663  0.100464  0  1.044088  0
H  H26  1  0.01333487  0.51744040  0.15426448  1  0.089867  0  0.104292  0.114463  0  0.997799  0
H  H27  1  0.98666631  0.48256055  0.84573137  1  0.089738  0  0.104336  0.114563  0  0.997968  0
H  H28  1  0.79732760  0.51162641  0.09811435  1  0.069199  0  0.097831  0.097643  0  1.054046  0
H  H29  1  0.20267685  0.48837834  0.90187944  1  0.069036  0  0.097819  0.09759  0  1.05398  0
H  H30  1  0.30547243  0.50125747  0.99670533  1  0.108863  0  0.103457  0.115047  0  1.020744  0
H  H31  1  0.69453641  0.49874349  0.00329151  1  0.109107  0  0.10346  0.115037  0  1.020784  0
H  H32  1  0.75079677  0.60492284  0.36636448  1  0.080389  0  0.099851  0.106666  0  1.012885  0
H  H33  1  0.24920762  0.39508190  0.63363414  1  0.080538  0  0.099861  0.106669  0  1.012818  0
H  H34  1  0.76078771  0.60908769  0.47463888  1  0.038429  0  0.101746  0.103775  0  0.993734  0
H  H35  1  0.23923210  0.39090643  0.52536297  1  0.038522  0  0.101809  0.103885  0  0.993651  0
H  H36  1  0.34932194  0.43773224  0.41639603  1  0.091271  0  0.104989  0.115339  0  1.000757  0
H  H37  1  0.65068695  0.56226036  0.58360433  1  0.09101  0  0.105003  0.115424  0  1.000798  0
H  H38  1  0.31424426  0.71355048  0.12148212  1  0.06663  0  0.111376  0.076009  0  1.030509  0
H  H39  1  0.68576667  0.28645881  0.87851462  1  0.066673  0  0.111351  0.076018  0  1.030492  0
H  H40  1  0.15518182  0.86559090  0.11905470  1  0.071836  0  0.102948  0.111676  0  1.034865  0
H  H41  1  0.84482474  0.13441383  0.88094515  1  0.0718  0  0.103007  0.111758  0  1.034827  0
H  H42  1  0.22604155  0.83207373  0.30723456  1  0.095302  0  0.112572  0.122404  0  0.980128  0
H  H43  1  0.77395526  0.16792113  0.69276638  1  0.095327  0  0.112563  0.1224  0  0.980148  0
H  H44  1  0.38501387  0.68160317  0.30156525  1  0.100587  0  0.117808  0.086548  0  1.006394  0
H  H45  1  0.61499495  0.31839778  0.69843291  1  0.100517  0  0.117793  0.086491  0  1.006423  0
H  H46  1  0.58781518  0.64135422  0.04849173  1  0.160511  0  0.117003  0.100265  0  1.02412  0
H  H47  1  0.41218270  0.35864368  0.95150781  1  0.160568  0  0.116995  0.100264  0  1.024082  0
H  H48  1  0.74388015  0.78534370  0.98155202  1  0.084552  0  0.106103  0.117385  0  1.014235  0
H  H49  1  0.25611110  0.21465875  0.01844795  1  0.084551  0  0.106089  0.117407  0  1.014249  0
H  H50  1  0.85991823  0.84430700  0.14708107  1  0.080718  0  0.101969  0.109161  0  1.040787  0
H  H51  1  0.14007637  0.15569014  0.85291917  1  0.080717  0  0.101956  0.10918  0  1.040691  0
H  H52  1  0.70654958  0.69505480  0.20622771  1  0.157899  0  0.114931  0.098542  0  1.050523  0
H  H53  1  0.29344829  0.30494310  0.79377271  1  0.157897  0  0.114909  0.098541  0  1.050575  0
H  H54  1  0.62387978  0.96620166  0.05051306  1  0.075468  0  0.100133  0.102353  0  1.018408  0
H  H55  1  0.37610818  0.03380078  0.94948662  1  0.075376  0  0.100077  0.102272  0  1.018421  0
H  H56  1  0.52249502  0.13932007  0.03232276  1  0.086783  0  0.096979  0.091449  0  1.036028  0
H  H57  1  0.47749398  0.86068540  0.96767815  1  0.086785  0  0.096969  0.09145  0  1.036047  0
H  H58  1  0.68731811  0.29012474  0.99132487  1  0.086871  0  0.102474  0.10377  0  1.013703  0
H  H59  1  0.31267528  0.70987694  0.00867864  1  0.087005  0  0.102423  0.103695  0  1.013693  0
H  H60  1  0.95040143  0.26628986  0.96453222  1  0.102561  0  0.101004  0.104305  0  1.031877  0
H  H61  1  0.04958866  0.73371409  0.03547063  1  0.102635  0  0.101  0.104317  0  1.031876  0
C  C62  1  0.72217573  0.35807080  0.24331055  1  0.472441  0  0.055912  0.109147  0  3.939208  0
C  C63  1  0.27782209  0.64193013  0.75669070  1  0.472698  0  0.05585  0.109048  0  3.939236  0
C  C64  1  0.81020401  0.27220947  0.24698935  1  -0.020752  0  -0.076544  -0.175127  0  3.928936  0
C  C65  1  0.18979381  0.72779146  0.75301234  1  -0.020692  0  -0.07646  -0.174909  0  3.929027  0
C  C66  1  0.81396940  0.22131391  0.20112041  1  -0.062775  0  0.018051  0.126292  0  4.002938  0
C  C67  1  0.18603175  0.77868551  0.79887963  1  -0.062679  0  0.018008  0.126166  0  4.00303  0
C  C68  1  0.72863368  0.26057611  0.15288204  1  0.04143  0  -0.082815  -0.178632  0  3.934934  0
C  C69  1  0.27137074  0.73942483  0.84711806  1  0.040981  0  -0.082798  -0.178558  0  3.934946  0
C  C70  1  0.64260941  0.34651076  0.15272747  1  0.426272  0  0.049163  0.095489  0  3.953331  0
C  C71  1  0.35739721  0.65349018  0.84727166  1  0.426677  0  0.049118  0.095436  0  3.953443  0
C  C72  1  0.90612545  0.12892861  0.20407120  1  0.000828  0  -0.002941  -0.036203  0  3.93597  0
C  C73  1  0.09387349  0.87107005  0.79592993  1  0.001089  0  -0.002944  -0.036185  0  3.935862  0
C  C74  1  0.84235314  0.03216955  0.22864565  1  -0.066044  0  -0.006747  0.036482  0  3.986664  0
C  C75  1  0.15764362  0.96782987  0.77135501  1  -0.066259  0  -0.006714  0.036509  0  3.986722  0
C  C76  1  0.68947855  0.01949660  0.24904056  1  -0.000139  0  -0.093009  -0.132952  0  3.988235  0
C  C77  1  0.31051710  0.98050357  0.75095959  1  -3.8e-05  0  -0.092948  -0.132866  0  3.988271  0
C  C78  1  0.62976723  0.92470745  0.27336138  1  -0.090954  0  -0.094077  -0.080621  0  4.029893  0
C  C79  1  0.37022951  0.07529348  0.72663860  1  -0.091067  0  -0.094078  -0.080594  0  4.029965  0
C  C80  1  0.71932032  0.83641218  0.27948347  1  -0.002983  0  -0.090557  -0.076184  0  4.008431  0
C  C81  1  0.28067426  0.16358724  0.72051597  1  -0.003022  0  -0.090638  -0.076246  0  4.008325  0
C  C82  1  0.86664185  0.84511218  0.26023554  1  -0.063963  0  -0.092174  -0.133917  0  3.984079  0
C  C83  1  0.13335491  0.15488572  0.73976580  1  -0.063863  0  -0.09216  -0.13398  0  3.984076  0
C  C84  1  0.93329484  0.94215606  0.23391666  1  -0.029338  0  -0.008038  0.028247  0  3.998955  0
C  C85  1  0.06669862  0.05784412  0.76608358  1  -0.029327  0  -0.007995  0.028312  0  3.998953  0
C  C86  1  0.08355274  0.95243683  0.21249032  1  -0.069148  0  -0.005951  -0.040492  0  3.95087  0
C  C87  1  0.91644074  0.04756107  0.78751072  1  -0.069055  0  -0.006001  -0.040625  0  3.951069  0
C  C88  1  0.14718078  0.04911366  0.18791039  1  0.026835  0  -0.007456  0.034702  0  3.994387  0
C  C89  1  0.85281600  0.95088348  0.81209063  1  0.026873  0  -0.007414  0.034786  0  3.994513  0
C  C90  1  0.30022723  0.06115793  0.16793395  1  -0.071184  0  -0.095882  -0.133487  0  3.989238  0
C  C91  1  0.69977067  0.93883541  0.83206851  1  -0.071178  0  -0.095962  -0.133673  0  3.989559  0
C  C92  1  0.36109806  0.15587253  0.14558716  1  -0.009827  0  -0.097164  -0.087814  0  4.041157  0
C  C93  1  0.63890421  0.84412157  0.85441543  1  -0.009798  0  -0.097156  -0.087818  0  4.041221  0
C  C94  1  0.27242407  0.24431067  0.14063850  1  -0.080973  0  -0.094414  -0.080613  0  4.007753  0
C  C95  1  0.72757821  0.75568344  0.85936365  1  -0.080902  0  -0.094366  -0.080556  0  4.007611  0
C  C96  1  0.12470954  0.23616203  0.15905515  1  0.008603  0  -0.088806  -0.118806  0  3.956454  0
C  C97  1  0.87529267  0.76383738  0.84094703  1  0.008358  0  -0.088813  -0.1189  0  3.956531  0
C  C98  1  0.05710259  0.13917092  0.18381619  1  -0.053814  0  -0.004992  0.034389  0  3.987255  0
C  C99  1  0.94289525  0.86082697  0.81618598  1  -0.053875  0  -0.005014  0.034411  0  3.987232  0
C  C100  1  0.30055775  0.51220686  0.11265478  1  1.55215  0  0.182782  0.537355  0  4.285054  0
C  C101  1  0.69944127  0.48778877  0.88734420  1  1.552063  0  0.182725  0.537275  0  4.285134  0
C  C102  1  0.17150030  0.50938013  0.07811752  1  -0.037021  0  -0.022495  -0.032301  0  4.00107  0
C  C103  1  0.82849982  0.49061855  0.92187786  1  -0.037119  0  -0.022333  -0.03195  0  4.001048  0
C  C104  1  0.02685916  0.51239819  0.10712658  1  0.029775  0  -0.091733  -0.10374  0  3.993632  0
C  C105  1  0.97314311  0.48760352  0.89286867  1  -0.00313  0  -0.091794  -0.104023  0  3.993848  0
C  C106  1  0.90798214  0.50888459  0.07597889  1  -0.124027  0  -0.09623  -0.139543  0  4.004089  0
C  C107  1  0.09202452  0.49111865  0.92401506  1  -0.091205  0  -0.096242  -0.139392  0  4.00392  0
C  C108  1  0.92691506  0.50147203  0.01471767  1  -0.046738  0  -0.009404  0.075394  0  4.002542  0
C  C109  1  0.07309488  0.49853198  0.98527558  1  -0.002373  0  -0.009443  0.075396  0  4.002711  0
C  C110  1  0.19343581  0.50308899  0.01824265  1  -0.080275  0  -0.084457  -0.153876  0  3.936385  0
C  C111  1  0.80657089  0.49691121  0.98175134  1  -0.080019  0  -0.084524  -0.153969  0  3.936656  0
C  C112  1  0.54199571  0.52227366  0.32026779  1  1.522118  0  0.179815  0.534065  0  4.276694  0
C  C113  1  0.45801084  0.47773183  0.67973193  1  1.52248  0  0.179973  0.534151  0  4.27664  0
C  C114  1  0.54817513  0.52119677  0.38577568  1  0.025281  0  -0.027646  -0.037507  0  4.015487  0
C  C115  1  0.45183368  0.47880493  0.61422280  1  0.025496  0  -0.027623  -0.037482  0  4.015431  0
C  C116  1  0.66556097  0.56983762  0.40221284  1  -0.063333  0  -0.094999  -0.112006  0  4.024968  0
C  C117  1  0.33444895  0.43016029  0.59778751  1  -0.063561  0  -0.094997  -0.111898  0  4.025009  0
C  C118  1  0.67077090  0.57167280  0.46189820  1  -0.035246  0  -0.09305  -0.135429  0  4.009561  0
C  C119  1  0.32924125  0.42832131  0.53810353  1  -0.035269  0  -0.093148  -0.135664  0  4.00955  0
C  C120  1  0.55931809  0.52483612  0.50822060  1  -0.004117  0  -0.008045  0.076435  0  4.005643  0
C  C121  1  0.44069405  0.47516028  0.49177902  1  -0.054712  0  -0.008049  0.076453  0  4.005587  0
C  C122  1  0.43837978  0.47471306  0.43001084  1  -0.055505  0  -0.081016  -0.140257  0  3.936403  0
C  C123  1  0.56163345  0.52528333  0.56998917  1  -0.055424  0  -0.081129  -0.140475  0  3.936606  0
C  C124  1  0.29271266  0.74218231  0.16183322  1  0.51834  0  0.045859  0.103367  0  3.961025  0
C  C125  1  0.70729506  0.25782016  0.83816387  1  0.518088  0  0.045872  0.103268  0  3.96123  0
C  C126  1  0.20334813  0.82669206  0.16065697  1  -0.021361  0  -0.086269  -0.181672  0  3.937147  0
C  C127  1  0.79665518  0.17331040  0.83934206  1  -0.021075  0  -0.08636  -0.181785  0  3.937338  0
C  C128  1  0.17664470  0.86109845  0.21339760  1  -0.014381  0  0.015001  0.122472  0  4.016394  0
C  C129  1  0.82335425  0.13889945  0.78660409  1  -0.014476  0  0.01503  0.12255  0  4.016393  0
C  C130  1  0.24290567  0.80809596  0.26511798  1  -0.042033  0  -0.0807  -0.186848  0  3.950869  0
C  C131  1  0.75709217  0.19190574  0.73488140  1  -0.042022  0  -0.080709  -0.18691  0  3.95082  0
C  C132  1  0.33160324  0.72432777  0.26209618  1  0.493559  0  0.053663  0.108801  0  3.950236  0
C  C133  1  0.66839788  0.27567469  0.73790250  1  0.493668  0  0.053694  0.108918  0  3.950239  0
C  C134  1  0.65151159  0.68860287  0.06783936  1  0.401248  0  0.045205  0.089314  0  3.951245  0
C  C135  1  0.34848408  0.31139731  0.93215992  1  0.401252  0  0.045178  0.089275  0  3.951116  0
C  C136  1  0.73719220  0.76884526  0.03123749  1  -0.006011  0  -0.085422  -0.181443  0  3.933942  0
C  C137  1  0.26279904  0.23115642  0.96876349  1  -0.005337  0  -0.085451  -0.1816  0  3.933941  0
C  C138  1  0.81441916  0.82691198  0.05931704  1  -0.084056  0  0.014899  0.121246  0  4.012675  0
C  C139  1  0.18557208  0.17309047  0.94068337  1  -0.08509  0  0.014881  0.121355  0  4.012541  0
C  C140  1  0.80275043  0.80072471  0.12324497  1  0.042015  0  -0.085245  -0.175925  0  3.940366  0
C  C141  1  0.19724413  0.19927394  0.87675591  1  0.04214  0  -0.085161  -0.175869  0  3.940122  0
C  C142  1  0.71693109  0.71887576  0.15641911  1  0.44877  0  0.043855  0.094316  0  3.938143  0
C  C143  1  0.28306568  0.28112214  0.84358135  1  0.448844  0  0.043881  0.094309  0  3.938295  0
C  C144  1  0.90767511  0.91493469  0.02575090  1  -0.072949  0  -0.002025  -0.031465  0  3.936674  0
C  C145  1  0.09231610  0.08507079  0.97424903  1  -0.072875  0  -0.001984  -0.031386  0  3.93659  0
C  C146  1  0.84852775  0.01382052  0.01717139  1  0.08003  0  -0.0059  0.032467  0  3.991443  0
C  C147  1  0.15146566  0.98618344  0.98282957  1  0.079811  0  -0.00596  0.032347  0  3.991544  0
C  C148  1  0.69605944  0.03128279  0.03195398  1  -0.104359  0  -0.091645  -0.125238  0  3.977208  0
C  C149  1  0.30392849  0.96872193  0.96804621  1  -0.104181  0  -0.09152  -0.125054  0  3.976975  0
C  C150  1  0.63966384  0.12801562  0.02204789  1  -0.041935  0  -0.096917  -0.090203  0  4.031936  0
C  C151  1  0.36032738  0.87198682  0.97795384  1  -0.041778  0  -0.096882  -0.090203  0  4.031865  0
C  C152  1  0.73288353  0.21350805  0.99828516  1  -0.137669  0  -0.092786  -0.086513  0  4.014909  0
C  C153  1  0.26710657  0.78649666  0.00171669  1  -0.13759  0  -0.092751  -0.08643  0  4.014972  0
C  C154  1  0.88016985  0.20020599  0.98339420  1  -0.03439  0  -0.087838  -0.124035  0  3.956293  0
C  C155  1  0.11982461  0.79979797  0.01660891  1  -0.034562  0  -0.087818  -0.124031  0  3.956273  0
C  C156  1  0.94277477  0.10071965  0.99147668  1  -0.021845  0  -0.00691  0.028364  0  3.993922  0
C  C157  1  0.05721753  0.89928431  0.00852520  1  -0.021643  0  -0.006974  0.02828  0  3.993899  0
N  N158  1  0.63898261  0.39436526  0.19722690  1  -1.217681  0  -0.324765  -0.232985  0  3.500704  0
N  N159  1  0.36102070  0.60563567  0.80277368  1  -1.21772  0  -0.324751  -0.233019  0  3.500769  0
N  N160  1  0.35630317  0.69170718  0.21146224  1  -1.210142  0  -0.319318  -0.229994  0  3.465633  0
N  N161  1  0.64370342  0.30829604  0.78853609  1  -1.210338  0  -0.319311  -0.229926  0  3.465694  0
N  N162  1  0.64176589  0.66370149  0.12928324  1  -1.21205  0  -0.325321  -0.244149  0  3.502859  0
N  N163  1  0.35823202  0.33629489  0.87071610  1  -1.212076  0  -0.325289  -0.244093  0  3.502945  0
O  O164  1  0.42852667  0.52095921  0.08457457  1  -1.188613  0  -0.341798  -0.590474  0  2.173785  0
O  O165  1  0.57147775  0.47904326  0.91542353  1  -1.188803  0  -0.341775  -0.590433  0  2.17396  0
O  O166  1  0.27196531  0.50555815  0.16988950  1  -1.149512  0  -0.340511  -0.538367  0  2.20996  0
O  O167  1  0.72803487  0.49443218  0.83010895  1  -1.149351  0  -0.340518  -0.538427  0  2.209872  0
O  O168  1  0.64060273  0.57117807  0.28027372  1  -1.191756  0  -0.34392  -0.583518  0  2.180274  0
O  O169  1  0.35939614  0.42882741  0.71972677  1  -1.19193  0  -0.344015  -0.583627  0  2.180172  0
O  O170  1  0.43723674  0.47599614  0.30685716  1  -1.149041  0  -0.345157  -0.54843  0  2.152502  0
O  O171  1  0.56277210  0.52400253  0.69314179  1  -1.149191  0  -0.345179  -0.548396  0  2.152652  0
