# generated using pymatgen
data_ZnH18C23N5
_symmetry_space_group_name_H-M   'P 1'
_cell_length_a   18.92565182
_cell_length_b   19.30371692
_cell_length_c   20.33357064
_cell_angle_alpha   107.74143818
_cell_angle_beta   105.30956012
_cell_angle_gamma   112.33727421
_symmetry_Int_Tables_number   1
_chemical_formula_structural   ZnH18C23N5
_chemical_formula_sum   'Zn4 H72 C92 N20'
_cell_volume   5904.80439768
_cell_formula_units_Z   4
loop_
 _symmetry_equiv_pos_site_id
 _symmetry_equiv_pos_as_xyz
  1  'x, y, z'
loop_
 _atom_site_type_symbol
 _atom_site_label
 _atom_site_symmetry_multiplicity
 _atom_site_fract_x
 _atom_site_fract_y
 _atom_site_fract_z
 _atom_site_occupancy
 _atom_site_pbe_bader_charge
 _atom_site_pbe_bader_spin_density
 _atom_site_pbe_cm5_charge
 _atom_site_pbe_ddec_charge
 _atom_site_pbe_ddec_spin_density
 _atom_site_pbe_ddec_sum_bond_order
 _atom_site_pbe_magmom
Zn  Zn0  1  0.11289365  0.10813815  0.50689707  1  1.187178  0  0.743857  0.602778  0  2.469919  0
Zn  Zn1  1  0.88904175  0.88871300  0.49942703  1  1.188719  0  0.743325  0.607199  0  2.460097  0
Zn  Zn2  1  0.99961628  0.90375347  0.40118128  1  1.186671  0  0.744999  0.607886  0  2.488266  0
Zn  Zn3  1  0.99441006  0.09198853  0.60003770  1  1.190911  0  0.741616  0.612543  0  2.422747  0
H  H4  1  0.21398453  0.15600266  0.39651030  1  0.104831  0  0.117582  0.104515  0  0.99873  0
H  H5  1  0.71287705  0.84610177  0.52831089  1  0.083679  0  0.11627  0.103643  0  1.002046  0
H  H6  1  0.69937611  0.23610271  0.32657699  1  0.054495  0  0.10153  0.103714  0  0.993114  0
H  H7  1  0.78569368  0.17470761  0.37263740  1  0.068784  0  0.100712  0.108006  0  1.000603  0
H  H8  1  0.05745393  0.32563067  0.48348045  1  0.066157  0  0.096871  0.100079  0  1.013582  0
H  H9  1  0.12904534  0.47236940  0.50685444  1  0.054223  0  0.100449  0.103045  0  0.99444  0
H  H10  1  0.12081254  0.59479832  0.49813016  1  0.030013  0  0.098784  0.100001  0  0.999218  0
H  H11  1  0.24097478  0.84234818  0.54411812  1  0.065208  0  0.096959  0.099728  0  1.015815  0
H  H12  1  0.38082013  0.11206791  0.67140040  1  0.042491  0  0.097439  0.092093  0  1.053604  0
H  H13  1  0.66937788  0.18931762  0.72580660  1  0.040593  0  0.097877  0.100181  0  1.007167  0
H  H14  1  0.73751488  0.11333875  0.67736928  1  0.025896  0  0.096572  0.098867  0  1.015283  0
H  H15  1  0.84198683  0.69706313  0.47968322  1  0.089169  0  0.117643  0.107392  0  0.989158  0
H  H16  1  0.87850407  0.91107083  0.25975546  1  0.094699  0  0.11878  0.105152  0  1.001626  0
H  H17  1  0.59706870  0.84289195  0.54865932  1  0.04944  0  0.095839  0.097716  0  1.016998  0
H  H18  1  0.44669669  0.76340162  0.52339965  1  0.067656  0  0.099048  0.100075  0  0.997469  0
H  H19  1  0.31632604  0.76362272  0.52374210  1  0.04823  0  0.09797  0.098201  0  1.001231  0
H  H20  1  0.75972330  0.85624302  0.15153937  1  0.039392  0  0.09983  0.100171  0  1.00222  0
H  H21  1  0.62941157  0.76425976  0.03005464  1  0.102357  0  0.104098  0.104057  0  1.019545  0
H  H22  1  0.49050356  0.57248427  0.84271755  1  0.064685  0  0.104417  0.106224  0  0.997438  0
H  H23  1  0.38107659  0.43203549  0.73414165  1  0.034286  0  0.097413  0.097662  0  1.007741  0
H  H24  1  0.60785150  0.84026531  0.27772381  1  0.037607  0  0.099294  0.101191  0  1.001264  0
H  H25  1  0.31800536  0.56598414  0.94502121  1  0.105241  0  0.104334  0.106113  0  1.01435  0
H  H26  1  0.11693989  0.85038152  0.49684107  1  0.054231  0  0.115293  0.099877  0  1.029688  0
H  H27  1  0.47778404  0.74931219  0.15483621  1  0.072548  0  0.104473  0.107203  0  0.997456  0
H  H28  1  0.86569802  0.13905215  0.51130906  1  0.106119  0  0.116314  0.106519  0  1.002477  0
H  H29  1  0.20707755  0.42687553  0.83625976  1  0.035821  0  0.098527  0.097683  0  1.004811  0
H  H30  1  0.27418675  0.06766091  0.96094649  1  0.073538  0  0.101934  0.104583  0  1.034736  0
H  H31  1  0.25637910  0.15313072  0.16460937  1  0.06705  0  0.104283  0.107099  0  0.996954  0
H  H32  1  0.22896210  0.15833474  0.27883872  1  0.054354  0  0.097809  0.09826  0  1.002658  0
H  H33  1  0.00766710  0.84111291  0.73372875  1  0.035083  0  0.097578  0.098465  0  1.0076  0
H  H34  1  0.15833957  0.88708487  0.07657044  1  0.091448  0  0.104667  0.107293  0  1.012629  0
H  H35  1  0.04497171  0.83133849  0.85644381  1  0.075821  0  0.104097  0.1082  0  0.997764  0
H  H36  1  0.13634865  0.89194250  0.19262130  1  0.056366  0  0.097189  0.09468  0  1.009754  0
H  H37  1  0.13461781  0.10984668  0.74924841  1  0.07601  0  0.118476  0.105253  0  1.007475  0
H  H38  1  0.72756844  0.88259729  0.38773814  1  0.093617  0  0.117054  0.103566  0  1.010419  0
H  H39  1  0.03065998  0.17025513  0.39707883  1  0.080393  0  0.11679  0.10612  0  0.998583  0
H  H40  1  0.85054958  0.11739695  0.65611268  1  0.089752  0  0.116226  0.10299  0  1.003084  0
H  H41  1  0.05605562  0.88630905  0.25981374  1  0.099054  0  0.11678  0.101448  0  1.01088  0
H  H42  1  0.27581668  0.30537689  0.63050756  1  0.073543  0  0.116175  0.102132  0  1.004377  0
H  H43  1  0.06162505  0.64287354  0.23976371  1  0.023834  0  0.086395  0.111914  0  0.999776  0
H  H44  1  0.09117762  0.74542874  0.24843062  1  0.000224  0  0.081022  0.102084  0  1.015807  0
H  H45  1  0.16523853  0.72811604  0.30505266  1  0.029735  0  0.089351  0.117446  0  0.996407  0
H  H46  1  0.10538111  0.79602298  0.38285006  1  0.032895  0  0.083833  0.068315  0  1.01523  0
H  H47  1  0.07966125  0.69570011  0.37734519  1  0.0104  0  0.085993  0.074445  0  0.999669  0
H  H48  1  0.99719388  0.83916245  0.61199690  1  0.076264  0  0.116264  0.102381  0  1.00929  0
H  H49  1  0.93692759  0.63248310  0.27172981  1  0.041973  0  0.09774  0.099975  0  0.981143  0
H  H50  1  0.96129164  0.73131601  0.27471729  1  0.026216  0  0.092506  0.08802  0  0.985171  0
H  H51  1  0.59840940  0.46241444  0.19184542  1  0.026576  0  0.082922  0.107013  0  1.005152  0
H  H52  1  0.67164337  0.57084479  0.22895742  1  0.014007  0  0.085253  0.112847  0  1.001004  0
H  H53  1  0.65245449  0.49782961  0.13922219  1  0.016695  0  0.086529  0.11222  0  1.002608  0
H  H54  1  0.79130807  0.54161668  0.24242303  1  0.014117  0  0.084093  0.070321  0  1.006863  0
H  H55  1  0.72133901  0.43296406  0.20374982  1  0.014025  0  0.087045  0.074857  0  0.977222  0
H  H56  1  0.68641782  0.45502760  0.31458968  1  0.019423  0  0.089724  0.085437  0  1.003084  0
H  H57  1  0.74233937  0.56451719  0.34863300  1  0.049511  0  0.088138  0.084195  0  1.01625  0
H  H58  1  0.64146420  0.32502531  0.68776206  1  -0.005016  0  0.082061  0.104604  0  1.007144  0
H  H59  1  0.26581871  0.12131950  0.63215139  1  0.04399  0  0.116277  0.103012  0  1.008348  0
H  H60  1  0.58343575  0.22181556  0.61096798  1  0.039895  0  0.084119  0.11266  0  1.013519  0
H  H61  1  0.55753530  0.29915039  0.60336561  1  0.011655  0  0.083952  0.108462  0  1.007046  0
H  H62  1  0.45223258  0.20128713  0.63141135  1  -0.009813  0  0.084596  0.071391  0  0.997227  0
H  H63  1  0.51026762  0.30384625  0.70798199  1  0.020094  0  0.084929  0.071234  0  0.979612  0
H  H64  1  0.50213371  0.21106898  0.76551718  1  0.022032  0  0.091159  0.085494  0  1.022636  0
H  H65  1  0.60719262  0.26302994  0.77765413  1  0.07065  0  0.092619  0.091179  0  0.976745  0
H  H66  1  0.40373406  0.15236894  0.79958306  1  -0.010339  0  0.0784  0.100617  0  1.047971  0
H  H67  1  0.42153198  0.23489895  0.88266726  1  -0.00897  0  0.082178  0.105546  0  1.005936  0
H  H68  1  0.48449483  0.18627449  0.88956871  1  0.034711  0  0.087306  0.114422  0  0.998199  0
H  H69  1  0.37538297  0.13131785  0.93596363  1  0.022217  0  0.087962  0.076019  0  0.986144  0
H  H70  1  0.11627731  0.28489381  0.75003016  1  0.07623  0  0.118216  0.105321  0  0.998361  0
H  H71  1  0.35682763  0.05015637  0.85257461  1  0.017534  0  0.090785  0.082487  0  0.968056  0
H  H72  1  0.24995450  0.07481337  0.77333158  1  0.033951  0  0.0894  0.086215  0  1.010509  0
H  H73  1  0.26444425  0.15080031  0.85805529  1  -0.001253  0  0.090605  0.086235  0  0.975233  0
H  H74  1  0.03518685  0.65683268  0.46032468  1  0.024614  0  0.095574  0.095887  0  1.025092  0
H  H75  1  0.69062356  0.35337213  0.31160155  1  0.042189  0  0.099007  0.098884  0  1.01926  0
C  C76  1  0.16998272  0.08911847  0.37182631  1  0.383677  0  0.00575  -0.055784  0  3.990917  0
C  C77  1  0.21863699  0.05585752  0.59338756  1  0.467062  0  0.006479  -0.050704  0  3.964419  0
C  C78  1  0.14561684  0.27670869  0.71117206  1  0.432754  0  0.007122  -0.055223  0  3.994653  0
C  C79  1  0.75789842  0.91314441  0.55763736  1  0.369228  0  0.003355  -0.061847  0  4.003953  0
C  C80  1  0.93742122  0.71739391  0.36739557  1  0.437542  0  0.087148  0.144368  0  3.977889  0
C  C81  1  0.22330156  0.33322895  0.71675092  1  -0.036808  0  -0.039573  -0.047436  0  4.102245  0
C  C82  1  0.90131959  0.66742962  0.40049805  1  -0.0173  0  -0.036218  -0.085523  0  4.058026  0
C  C83  1  0.22430128  0.98259660  0.58030697  1  -0.035874  0  -0.035243  -0.037277  0  4.057239  0
C  C84  1  0.08596156  0.97059410  0.70930235  1  -0.011617  0  -0.033571  -0.037244  0  4.064146  0
C  C85  1  0.97755278  0.59584582  0.43323201  1  0.012512  0  -0.095489  -0.192067  0  3.999152  0
C  C86  1  0.89977760  0.58944843  0.39739342  1  -0.075407  0  -0.013947  0.038721  0  4.036513  0
C  C87  1  0.74959720  0.98050148  0.59880411  1  0.038439  0  -0.039086  -0.040073  0  4.094312  0
C  C88  1  0.82342545  0.51200232  0.36343451  1  0.020555  0  -0.00354  0.028325  0  3.87834  0
C  C89  1  0.82685614  0.44171099  0.36925608  1  -0.010141  0  -0.0111  0.018901  0  3.99656  0
C  C90  1  0.90712150  0.44923247  0.40635030  1  -0.016998  0  -0.000281  0.004579  0  3.922936  0
C  C91  1  0.85243515  0.90718394  0.30093994  1  0.424966  0  0.012766  -0.0409  0  3.953176  0
C  C92  1  0.98347819  0.52725322  0.43762438  1  0.029298  0  -0.01562  0.07221  0  4.082766  0
C  C93  1  0.75272719  0.36157086  0.34023972  1  -0.041163  0  -0.096445  -0.133412  0  4.029893  0
C  C94  1  0.75740178  0.29544846  0.34845344  1  -0.051002  0  -0.094474  -0.137354  0  4.022545  0
C  C95  1  0.83690110  0.30149246  0.38506074  1  0.029652  0  -0.011236  0.079424  0  4.054209  0
C  C96  1  0.91202190  0.37969739  0.41303469  1  -0.050429  0  0.000326  0.000323  0  3.90737  0
C  C97  1  0.99268750  0.38792037  0.44868628  1  -0.014789  0  -0.012536  0.080896  0  4.067206  0
C  C98  1  0.77016364  0.88726019  0.29415076  1  -0.02651  0  -0.034333  -0.04351  0  4.065685  0
C  C99  1  0.06806427  0.46701080  0.47900433  1  -0.052715  0  -0.094944  -0.13832  0  4.034219  0
C  C100  1  0.06346496  0.53416187  0.47405183  1  -0.025398  0  -0.096137  -0.136232  0  4.038213  0
C  C101  1  0.84332954  0.23418863  0.39388647  1  -0.058803  0  -0.092433  -0.192354  0  3.940362  0
C  C102  1  0.92245543  0.24211189  0.42831208  1  -0.029747  0  -0.011222  0.093782  0  4.075279  0
C  C103  1  0.91056942  0.13840363  0.48738621  1  0.392906  0  0.005813  -0.053441  0  3.960613  0
C  C104  1  0.99595834  0.31885039  0.45471739  1  -0.049967  0  -0.095493  -0.194923  0  3.953991  0
C  C105  1  0.30103678  0.90166000  0.57688721  1  -0.123226  0  -0.094745  -0.190179  0  3.942855  0
C  C106  1  0.30171661  0.97805618  0.60498714  1  0.050962  0  -0.012223  0.090988  0  4.081436  0
C  C107  1  0.38025827  0.05296511  0.64850547  1  -0.054027  0  -0.094705  -0.188457  0  3.959651  0
C  C108  1  0.45715753  0.05497427  0.65808957  1  -0.005418  0  -0.007898  0.031639  0  4.002452  0
C  C109  1  0.93590027  0.17694140  0.44283562  1  0.043465  0  -0.034788  -0.032122  0  4.06309  0
C  C110  1  0.45503811  0.97715823  0.62343489  1  0.010872  0  -0.001074  0.001644  0  3.93042  0
C  C111  1  0.37616388  0.89978222  0.58502806  1  -0.015952  0  -0.01183  0.07877  0  4.052983  0
C  C112  1  0.53747406  0.13300942  0.69737484  1  -0.045486  0  -0.008432  0.080629  0  3.9457  0
C  C113  1  0.60884382  0.13057138  0.69707792  1  -0.018469  0  -0.095214  -0.202046  0  3.987156  0
C  C114  1  0.60753109  0.05413814  0.65846883  1  0.00343  0  -0.012163  0.084394  0  4.088305  0
C  C115  1  0.77546132  0.89265295  0.36620672  1  0.421593  0  0.010515  -0.04325  0  3.958194  0
C  C116  1  0.52970106  0.97663890  0.62319972  1  -0.000205  0  -0.003113  -0.005515  0  3.932432  0
C  C117  1  0.52714818  0.89958901  0.58491952  1  -0.048231  0  -0.012521  0.080412  0  4.060204  0
C  C118  1  0.44828328  0.82254644  0.55093609  1  -0.054656  0  -0.096043  -0.138391  0  4.030477  0
C  C119  1  0.37622839  0.82273544  0.55122218  1  -0.023043  0  -0.095858  -0.137986  0  4.028812  0
C  C120  1  0.22710845  0.28699033  0.65052420  1  0.445524  0  0.004945  -0.058542  0  4.002907  0
C  C121  1  0.67898129  0.05335870  0.65163950  1  -0.078765  0  -0.096315  -0.192286  0  3.948045  0
C  C122  1  0.67611267  0.97836834  0.61077737  1  0.047522  0  -0.014323  0.089395  0  4.098374  0
C  C123  1  0.60035884  0.90205615  0.57956411  1  -0.051934  0  -0.097313  -0.195277  0  3.949032  0
C  C124  1  0.28588742  0.41789208  0.77741441  1  0.043804  0  -0.00709  0.092439  0  4.039081  0
C  C125  1  0.26928299  0.45827481  0.83731820  1  -0.03739  0  -0.093795  -0.129006  0  3.989737  0
C  C126  1  0.33051053  0.53629537  0.89801525  1  -0.022813  0  -0.085761  -0.132983  0  3.964203  0
C  C127  1  0.99556611  0.15507366  0.42998136  1  0.378886  0  0.004281  -0.059374  0  3.984791  0
C  C128  1  0.41143974  0.57746948  0.90061410  1  0.326274  0  0.080333  0.165633  0  4.063754  0
C  C129  1  0.42751487  0.53959500  0.83969826  1  0.051387  0  -0.085707  -0.138369  0  3.98799  0
C  C130  1  0.36602546  0.46118467  0.77941544  1  -0.092606  0  -0.100143  -0.140714  0  4.006417  0
C  C131  1  0.87364623  0.71288226  0.44454838  1  0.381282  0  0.003755  -0.062702  0  4.037196  0
C  C132  1  0.62579815  0.78225434  0.08475438  1  0.026517  0  -0.087888  -0.134731  0  3.976828  0
C  C133  1  0.69816548  0.83327972  0.15302907  1  -0.064983  0  -0.093326  -0.127122  0  3.991064  0
C  C134  1  0.54560029  0.74813166  0.08514664  1  0.336264  0  0.078381  0.162362  0  4.061046  0
C  C135  1  0.69422474  0.85176927  0.22443422  1  0.031789  0  -0.004204  0.095133  0  4.030812  0
C  C136  1  0.61349130  0.82470033  0.22380421  1  -0.025684  0  -0.097963  -0.137667  0  3.992324  0
C  C137  1  0.54033257  0.77390811  0.15533527  1  -0.057517  0  -0.085195  -0.139386  0  3.985108  0
C  C138  1  0.17730543  0.02476042  0.24279993  1  -0.009711  0  -0.008528  0.087738  0  4.043278  0
C  C139  1  0.82800061  0.05123801  0.62269914  1  0.412467  0  0.003476  -0.059667  0  4.003365  0
C  C140  1  0.16107363  0.94924910  0.18603677  1  -0.081695  0  -0.094033  -0.125633  0  3.994233  0
C  C141  1  0.17417558  0.94604195  0.12163526  1  0.018228  0  -0.087676  -0.138695  0  3.981808  0
C  C142  1  0.14275106  0.91784240  0.52416064  1  0.475157  0  0.008838  -0.045665  0  3.954845  0
C  C143  1  0.20629996  0.01963973  0.11264570  1  0.358893  0  0.079309  0.166015  0  4.061879  0
C  C144  1  0.23018322  0.09650441  0.17194971  1  -0.071908  0  -0.086021  -0.140331  0  3.981583  0
C  C145  1  0.21488491  0.09883389  0.23563836  1  -0.022339  0  -0.096933  -0.134508  0  3.999035  0
C  C146  1  0.21642781  0.01838823  0.90982587  1  -0.035769  0  -0.089127  -0.201726  0  3.939516  0
C  C147  1  0.19964568  0.02269102  0.84062007  1  0.013228  0  -0.006541  0.081937  0  3.915097  0
C  C148  1  0.15921294  0.95194470  0.91670738  1  0.400441  0  0.077948  0.167451  0  4.090089  0
C  C149  1  0.12008658  0.96064506  0.77717073  1  -0.044541  0  -0.002196  0.044029  0  3.975139  0
C  C150  1  0.06761533  0.88991599  0.78288603  1  -0.057348  0  -0.098415  -0.131842  0  4.019658  0
C  C151  1  0.09042575  0.95158440  0.30276867  1  0.349523  0  0.007551  -0.055611  0  3.997923  0
C  C152  1  0.08731020  0.88416826  0.85099153  1  -0.036392  0  -0.089225  -0.146567  0  4.000911  0
C  C153  1  0.09413465  0.04493710  0.70571956  1  0.456598  0  0.01176  -0.042509  0  3.955052  0
C  C154  1  0.15019261  0.02306597  0.30340152  1  0.05698  0  -0.037344  -0.042398  0  4.093129  0
C  C155  1  0.97313008  0.70044794  0.31058508  1  0.01607  0  -0.15592  -0.206411  0  3.984528  0
C  C156  1  0.06790844  0.72828050  0.34339998  1  -0.024147  0  -0.167692  -0.093081  0  3.959151  0
C  C157  1  0.09810063  0.71006344  0.28076881  1  -0.054924  0  -0.242843  -0.347965  0  3.974594  0
C  C158  1  0.74205781  0.50633342  0.31870492  1  -0.040812  0  -0.164895  -0.196511  0  3.975208  0
C  C159  1  0.73137152  0.49535200  0.23768648  1  0.018671  0  -0.163834  -0.084739  0  3.953343  0
C  C160  1  0.65948008  0.50700980  0.19713118  1  -0.066394  0  -0.24437  -0.353049  0  3.985534  0
C  C161  1  0.54184481  0.21608714  0.73434410  1  -0.05093  0  -0.160599  -0.196648  0  3.958543  0
C  C162  1  0.51570652  0.24947891  0.67758813  1  -0.000691  0  -0.164568  -0.087341  0  3.958542  0
C  C163  1  0.57784846  0.27520522  0.64293632  1  -0.041681  0  -0.247869  -0.354536  0  3.989914  0
C  C164  1  0.02284566  0.90670203  0.63609314  1  0.437184  0  0.009546  -0.046273  0  3.962057  0
C  C165  1  0.26584959  0.09195122  0.83423104  1  0.018234  0  -0.160993  -0.190971  0  3.956203  0
C  C166  1  0.35622707  0.10954744  0.87411380  1  -0.005459  0  -0.163886  -0.086256  0  3.961373  0
C  C167  1  0.42015742  0.17452586  0.86100507  1  -0.025548  0  -0.24617  -0.352891  0  3.98381  0
N  N168  1  0.12578653  0.05910448  0.40852407  1  -0.793594  0  -0.265684  -0.171846  0  3.526817  0
N  N169  1  0.47025815  0.68266822  0.02067738  1  -0.50558  0  -0.164742  -0.156806  0  3.288113  0
N  N170  1  0.21023428  0.02153719  0.04490166  1  -0.504957  0  -0.165319  -0.1584  0  3.287219  0
N  N171  1  0.83469487  0.94162481  0.55749857  1  -0.786368  0  -0.271457  -0.17271  0  3.548606  0
N  N172  1  0.16412312  0.95002107  0.98626952  1  -0.49485  0  -0.161341  -0.149307  0  3.301159  0
N  N173  1  0.90093347  0.92118946  0.37044457  1  -0.800569  0  -0.282846  -0.179643  0  3.638  0
N  N174  1  0.95403463  0.09877472  0.50137184  1  -0.789629  0  -0.281664  -0.183217  0  3.610604  0
N  N175  1  0.85363329  0.91216108  0.41049535  1  -0.774375  0  -0.28021  -0.17825  0  3.63621  0
N  N176  1  0.00559395  0.10846773  0.46531898  1  -0.795036  0  -0.288841  -0.184586  0  3.652076  0
N  N177  1  0.87836971  0.02771821  0.59801325  1  -0.802371  0  -0.269792  -0.173062  0  3.547971  0
N  N178  1  0.07611227  0.97333815  0.36514563  1  -0.793487  0  -0.272005  -0.167657  0  3.560579  0
N  N179  1  0.89168474  0.78470812  0.43892349  1  -0.796225  0  -0.277636  -0.178653  0  3.588946  0
N  N180  1  0.15780420  0.21010640  0.60943833  1  -0.80772  0  -0.267622  -0.171057  0  3.536266  0
N  N181  1  0.09420517  0.95074703  0.50429150  1  -0.802738  0  -0.281867  -0.182479  0  3.622552  0
N  N182  1  0.03905254  0.02563652  0.63668564  1  -0.787233  0  -0.282515  -0.181643  0  3.644594  0
N  N183  1  0.99557281  0.94082741  0.59388520  1  -0.803179  0  -0.282504  -0.177436  0  3.643634  0
N  N184  1  0.14086988  0.03553065  0.54708381  1  -0.788041  0  -0.28596  -0.182668  0  3.654785  0
N  N185  1  0.10694960  0.20362800  0.64731540  1  -0.794487  0  -0.265804  -0.170167  0  3.523537  0
N  N186  1  0.93117938  0.78760855  0.39124910  1  -0.796336  0  -0.277171  -0.234077  0  3.509064  0
N  N187  1  0.48198871  0.65117936  0.96248417  1  -0.535321  0  -0.165311  -0.157671  0  3.328589  0
