# generated using pymatgen
data_AlH8C16NO7F
_symmetry_space_group_name_H-M   'P 1'
_cell_length_a   6.65804864
_cell_length_b   22.76682027
_cell_length_c   23.55099313
_cell_angle_alpha   112.59699683
_cell_angle_beta   91.92998488
_cell_angle_gamma   91.65488553
_symmetry_Int_Tables_number   1
_chemical_formula_structural   AlH8C16NO7F
_chemical_formula_sum   'Al4 H32 C64 N4 O28 F4'
_cell_volume   3290.60454200
_cell_formula_units_Z   4
loop_
 _symmetry_equiv_pos_site_id
 _symmetry_equiv_pos_as_xyz
  1  'x, y, z'
loop_
 _atom_site_type_symbol
 _atom_site_label
 _atom_site_symmetry_multiplicity
 _atom_site_fract_x
 _atom_site_fract_y
 _atom_site_fract_z
 _atom_site_occupancy
 _atom_site_pbe_bader_charge
 _atom_site_pbe_bader_spin_density
 _atom_site_pbe_cm5_charge
 _atom_site_pbe_ddec_charge
 _atom_site_pbe_ddec_spin_density
 _atom_site_pbe_ddec_sum_bond_order
 _atom_site_pbe_magmom
Al  Al0  1  0.14602317  0.49992655  0.49890243  1  2.503123  0  0.399315  1.650416  0  2.576083  0
Al  Al1  1  0.64555414  0.49982685  0.49886473  1  2.502129  0  0.399818  1.649972  0  2.566715  0
Al  Al2  1  0.66818406  0.00183980  0.00167608  1  2.500621  0  0.40024  1.645795  0  2.573244  0
Al  Al3  1  0.16992239  0.00130112  0.00169572  1  2.502346  0  0.398413  1.64779  0  2.576184  0
H  H4  1  0.60376875  0.91277932  0.12329766  1  0.090504  0  0.110027  0.118477  0  0.998732  0
H  H5  1  0.60763415  0.84988172  0.18925015  1  0.091049  0  0.099521  0.102994  0  1.032198  0
H  H6  1  0.23339212  0.88246497  0.09407228  1  0.122107  0  0.118034  0.14772  0  0.987336  0
H  H7  1  0.21243993  0.82165522  0.26157367  1  0.081222  0  0.101424  0.105911  0  1.003938  0
H  H8  1  0.19943691  0.75578098  0.32291674  1  0.057729  0  0.101729  0.100917  0  1.004253  0
H  H9  1  0.60983740  0.68035892  0.24179998  1  0.064666  0  0.101621  0.100698  0  1.005288  0
H  H10  1  0.62110298  0.74710176  0.18104225  1  0.079018  0  0.102901  0.106055  0  1.004344  0
H  H11  1  0.58064862  0.68088774  0.33881467  1  0.056626  0  0.098439  0.094326  0  1.025495  0
H  H12  1  0.57542055  0.61437948  0.40160853  1  0.091939  0  0.109143  0.11257  0  1.002261  0
H  H13  1  0.20986883  0.59033611  0.38258153  1  0.100065  0  0.109986  0.11382  0  1.001084  0
H  H14  1  0.21598333  0.65382359  0.31694320  1  0.053243  0  0.098505  0.094448  0  1.025784  0
H  H15  1  0.19714209  0.61334553  0.68776005  1  0.112322  0  0.11882  0.125124  0  0.975063  0
H  H16  1  0.57901813  0.80556530  0.70837848  1  0.108249  0  0.123189  0.140973  0  0.98702  0
H  H17  1  0.23776384  0.70555180  0.78882083  1  0.101184  0  0.112605  0.117548  0  0.987331  0
H  H18  1  0.64928432  0.32304518  0.35221942  1  0.118362  0  0.115826  0.127855  0  0.984513  0
H  H19  1  0.05685610  0.37802161  0.31904539  1  0.146958  0  0.121305  0.15315  0  0.974676  0
H  H20  1  0.78430712  0.22480864  0.27831957  1  0.080566  0  0.108245  0.114284  0  0.988595  0
H  H21  1  0.74824877  0.13012258  0.17933493  1  0.101076  0  0.114485  0.12216  0  0.983449  0
H  H22  1  0.09699980  0.11366459  0.90627451  1  0.105509  0  0.112412  0.118669  0  0.995718  0
H  H23  1  0.08302018  0.17814409  0.84160500  1  0.042645  0  0.096845  0.091396  0  1.027361  0
H  H24  1  0.71614663  0.15293250  0.81155255  1  0.072265  0  0.098456  0.094331  0  1.02119  0
H  H25  1  0.72782820  0.09097006  0.87869305  1  0.091342  0  0.111443  0.11869  0  1.00191  0
H  H26  1  0.69116645  0.25353404  0.81426434  1  0.074328  0  0.106936  0.104961  0  0.99525  0
H  H27  1  0.68081883  0.31714438  0.74972606  1  0.099228  0  0.105447  0.111285  0  1.014777  0
H  H28  1  0.08993988  0.17767928  0.74551574  1  0.114043  0  0.115617  0.124358  0  1.00487  0
H  H29  1  0.30262862  0.24345290  0.58937988  1  0.159814  0  0.121313  0.134605  0  0.983629  0
H  H30  1  0.48650632  0.47512191  0.68141988  1  0.072475  0  0.113829  0.116475  0  0.973956  0
H  H31  1  0.47113564  0.41378954  0.74853883  1  0.035745  0  0.110887  0.110135  0  0.981224  0
H  H32  1  0.40688156  0.58440151  0.53074042  1  0.606171  0  0.350681  0.432743  0  0.856187  0
H  H33  1  0.88899511  0.42577308  0.50457249  1  0.607148  0  0.356135  0.437554  0  0.841545  0
H  H34  1  0.40678426  0.91816107  0.96180661  1  0.638879  0  0.352442  0.431974  0  0.853763  0
H  H35  1  0.93232246  0.08444897  0.03650262  1  0.641663  0  0.356333  0.43738  0  0.845656  0
C  C36  1  0.37268657  0.41055673  0.40195751  1  1.588841  0  0.274858  0.651965  0  4.081001  0
C  C37  1  0.40097751  0.43490975  0.56024267  1  1.616081  0  0.267458  0.648607  0  4.149192  0
C  C38  1  0.92046307  0.59133454  0.59709573  1  1.628647  0  0.267203  0.639896  0  4.115329  0
C  C39  1  0.89085033  0.56160974  0.43587928  1  1.568447  0  0.270812  0.646182  0  4.092409  0
C  C40  1  0.74163468  0.89200192  0.13147430  1  -0.040947  0  -0.085478  -0.101477  0  3.985287  0
C  C41  1  0.74475547  0.85660785  0.16813449  1  -0.001674  0  -0.087256  -0.112364  0  3.988443  0
C  C42  1  0.92097498  0.82896228  0.17913708  1  -0.015172  0  -0.009237  -0.031014  0  3.99917  0
C  C43  1  0.09353442  0.84022074  0.15140418  1  0.379606  0  0.096523  0.237366  0  4.032362  0
C  C44  1  0.09598385  0.87564266  0.11504018  1  0.031894  0  -0.092137  -0.219686  0  3.982205  0
C  C45  1  0.91742847  0.90171381  0.10452640  1  -0.015486  0  -0.015022  -0.021174  0  3.993081  0
C  C46  1  0.08062041  0.79026860  0.25636463  1  0.004156  0  -0.090649  -0.124805  0  3.991227  0
C  C47  1  0.07340178  0.75265584  0.29091344  1  -0.080171  0  -0.090161  -0.125543  0  3.9894  0
C  C48  1  0.90441130  0.71244122  0.28685483  1  0.01978  0  -0.007925  0.064151  0  4.010074  0
C  C49  1  0.74149412  0.71200462  0.24707996  1  -0.072926  0  -0.091623  -0.128122  0  3.996667  0
C  C50  1  0.74811280  0.74965674  0.21252289  1  -0.063463  0  -0.088882  -0.124192  0  3.978682  0
C  C51  1  0.91820179  0.78940099  0.21621063  1  0.028626  0  -0.009814  0.078574  0  4.00818  0
C  C52  1  0.71838195  0.65997917  0.34707796  1  -0.087038  0  -0.090297  -0.136733  0  3.980688  0
C  C53  1  0.71458569  0.62335103  0.38261702  1  -0.024489  0  -0.07698  -0.075692  0  3.970753  0
C  C54  1  0.89240654  0.59872989  0.39605951  1  -0.015594  0  -0.017107  -0.053061  0  3.983698  0
C  C55  1  0.07310390  0.61038695  0.37246215  1  -0.025345  0  -0.077894  -0.078716  0  3.977424  0
C  C56  1  0.07572947  0.64639571  0.33638217  1  -0.060112  0  -0.091482  -0.137631  0  3.985746  0
C  C57  1  0.89903578  0.67248082  0.32348403  1  0.011043  0  0.00027  0.08255  0  3.993185  0
C  C58  1  0.93736428  0.64842783  0.65667826  1  0.057495  0  0.004655  -0.061329  0  3.931056  0
C  C59  1  0.88752640  0.86026847  0.83964475  1  0.103625  0  -0.007167  -0.185702  0  3.95049  0
C  C60  1  0.70001299  0.80479803  0.74031521  1  0.09487  0  -0.079006  -0.184817  0  3.944571  0
C  C61  1  0.73494059  0.85644990  0.79463172  1  0.183118  0  0.090947  0.087263  0  3.946226  0
C  C62  1  0.00804912  0.80873549  0.82529412  1  0.451403  0  0.123371  0.250395  0  3.987211  0
C  C63  1  0.98596422  0.75420252  0.76943310  1  0.038715  0  -0.002769  -0.013284  0  3.997934  0
C  C64  1  0.82575069  0.75233572  0.72643748  1  0.052938  0  0.007753  0.061436  0  3.991051  0
C  C65  1  0.80681127  0.69770600  0.67068290  1  0.169681  0  0.093616  0.017945  0  3.874287  0
C  C66  1  0.09409137  0.65208873  0.70014501  1  0.045738  0  -0.067842  -0.06214  0  3.956612  0
C  C67  1  0.11693527  0.70318382  0.75562725  1  -0.023861  0  -0.07666  -0.103958  0  3.970297  0
C  C68  1  0.35694393  0.35537912  0.34165348  1  -0.017393  0  -0.007747  -0.004905  0  3.997705  0
C  C69  1  0.44836871  0.14985549  0.15665104  1  0.013786  0  -0.023304  -0.164264  0  3.987807  0
C  C70  1  0.64751713  0.21560979  0.24892226  1  -0.04498  0  -0.086963  -0.135979  0  3.990548  0
C  C71  1  0.62768357  0.16315903  0.19467832  1  0.030173  0  -0.078963  -0.068529  0  3.995421  0
C  C72  1  0.29496616  0.19227388  0.17444394  1  0.44705  0  0.117299  0.260108  0  3.988804  0
C  C73  1  0.31060970  0.24816009  0.22904022  1  0.077706  0  -0.016516  -0.143193  0  3.997319  0
C  C74  1  0.49196149  0.25946038  0.26764421  1  -0.028919  0  0.004568  0.119761  0  4.000541  0
C  C75  1  0.51189676  0.31406927  0.32312835  1  0.018212  0  -0.073088  -0.142986  0  3.908948  0
C  C76  1  0.17794299  0.34511835  0.30432317  1  0.014197  0  -0.095034  -0.235314  0  3.980804  0
C  C77  1  0.16024849  0.29391349  0.24919873  1  0.443114  0  0.102276  0.264702  0  4.062328  0
C  C78  1  0.23143372  0.12310518  0.88543820  1  -0.001351  0  -0.075097  -0.074041  0  3.962586  0
C  C79  1  0.22458228  0.15842717  0.84873196  1  -0.049927  0  -0.09097  -0.132569  0  3.985914  0
C  C80  1  0.39932384  0.17084930  0.82246404  1  -0.062156  0  -0.005069  0.069567  0  3.99996  0
C  C81  1  0.58078827  0.14594115  0.83349160  1  -0.029353  0  -0.089749  -0.133859  0  3.982196  0
C  C82  1  0.58840296  0.11094492  0.87052221  1  -0.032819  0  -0.074757  -0.073876  0  3.970049  0
C  C83  1  0.41389291  0.09968298  0.89711268  1  -0.006658  0  -0.011234  -0.040414  0  3.9623  0
C  C84  1  0.55631095  0.25070457  0.78555019  1  -0.041565  0  -0.076255  -0.101712  0  3.945405  0
C  C85  1  0.54926977  0.28788957  0.75053925  1  -0.007837  0  -0.08135  -0.110818  0  3.974163  0
C  C86  1  0.37785752  0.28748784  0.71407453  1  0.01542  0  0.005548  0.029148  0  3.971469  0
C  C87  1  0.21371167  0.24769973  0.71518681  1  0.123281  0  0.077906  0.029613  0  3.92021  0
C  C88  1  0.22060126  0.20882418  0.74853238  1  0.044994  0  -0.076173  -0.167468  0  3.93966  0
C  C89  1  0.39263507  0.20998198  0.78500988  1  0.029999  0  0.003055  0.086431  0  3.990016  0
C  C90  1  0.34001811  0.29434700  0.61105103  1  -0.025015  0  -0.069444  -0.15029  0  3.921167  0
C  C91  1  0.35005222  0.32941528  0.57412780  1  0.232906  0  0.083894  0.054012  0  3.912495  0
C  C92  1  0.40037871  0.39481150  0.59824126  1  0.070856  0  0.00761  -0.048181  0  3.927908  0
C  C93  1  0.44565497  0.42429436  0.66157313  1  -0.04054  0  -0.075775  -0.087914  0  3.967928  0
C  C94  1  0.43752892  0.38973710  0.69914864  1  0.07663  0  -0.070161  -0.097834  0  3.942259  0
C  C95  1  0.38231787  0.32453291  0.67448473  1  -0.008672  0  0.00077  0.084469  0  4.017341  0
C  C96  1  0.42106633  0.06365091  0.93818649  1  1.569866  0  0.265317  0.637686  0  4.103649  0
C  C97  1  0.43319698  0.09170617  0.09881002  1  1.606302  0  0.273335  0.669833  0  4.085187  0
C  C98  1  0.91498384  0.93825534  0.06384364  1  1.580863  0  0.265845  0.637218  0  4.103017  0
C  C99  1  0.90469082  0.91426256  0.90164743  1  1.641232  0  0.271687  0.666415  0  4.11608  0
N  N100  1  0.64477116  0.69593886  0.62546140  1  0.418454  0  0.06102  0.517898  0  4.241062  0
N  N101  1  0.61784437  0.91309904  0.80312002  1  0.43152  0  0.062952  0.517137  0  4.210891  0
N  N102  1  0.01904742  0.24819535  0.68346035  1  0.405917  0  0.056192  0.515101  0  4.20675  0
N  N103  1  0.31239475  0.29493870  0.50720826  1  0.405351  0  0.061744  0.516798  0  4.205172  0
O  O104  1  0.57219793  0.45462802  0.55115348  1  -1.249301  0  -0.233441  -0.587769  0  2.334504  0
O  O105  1  0.20794026  0.43474449  0.42344942  1  -1.25643  0  -0.23055  -0.586069  0  2.344723  0
O  O106  1  0.06074985  0.54997420  0.45499281  1  -1.261666  0  -0.234992  -0.595546  0  2.349615  0
O  O107  1  0.22967811  0.44847049  0.54457643  1  -1.249674  0  -0.234996  -0.594275  0  2.337728  0
O  O108  1  0.08615754  0.56757464  0.57685425  1  -1.244774  0  -0.225878  -0.571567  0  2.338436  0
O  O109  1  0.54688295  0.42900815  0.42774646  1  -1.255955  0  -0.23093  -0.588173  0  2.342448  0
O  O110  1  0.40097071  0.53841888  0.50985140  1  -1.407625  0  -0.448291  -0.996934  0  2.205562  0
O  O111  1  0.74485235  0.57232032  0.57320542  1  -1.248081  0  -0.232803  -0.588304  0  2.361093  0
O  O112  1  0.72040788  0.54454799  0.44903673  1  -1.261175  0  -0.234144  -0.592397  0  2.347805  0
O  O113  1  0.89149321  0.46238383  0.49310877  1  -1.407836  0  -0.446696  -0.99105  0  2.190696  0
O  O114  1  0.26003479  0.06544439  0.07880800  1  -1.251689  0  -0.233533  -0.596062  0  2.357219  0
O  O115  1  0.59231378  0.04629489  0.95009102  1  -1.25143  0  -0.235994  -0.593919  0  2.36202  0
O  O116  1  0.73987078  0.93043021  0.92782561  1  -1.239923  0  -0.229871  -0.583145  0  2.324189  0
O  O117  1  0.59816027  0.07223998  0.07357360  1  -1.264835  0  -0.231158  -0.589463  0  2.327449  0
O  O118  1  0.74493003  0.95668361  0.05245374  1  -1.254402  0  -0.237174  -0.59125  0  2.349422  0
O  O119  1  0.25495065  0.05410713  0.95934769  1  -1.258203  0  -0.236628  -0.596947  0  2.356731  0
O  O120  1  0.41439051  0.96204206  0.99091382  1  -1.43803  0  -0.448618  -0.991539  0  2.198009  0
O  O121  1  0.08190073  0.94715345  0.04267270  1  -1.265182  0  -0.238306  -0.594408  0  2.34184  0
O  O122  1  0.07939329  0.93683409  0.92267047  1  -1.233847  0  -0.221188  -0.566203  0  2.347754  0
O  O123  1  0.92401290  0.03936165  0.01078007  1  -1.440021  0  -0.44817  -0.993406  0  2.196579  0
O  O124  1  0.69512188  0.70135128  0.57768157  1  -0.42514  0  -0.111854  -0.300912  0  1.867324  0
O  O125  1  0.46968634  0.69064848  0.63978388  1  -0.457694  0  -0.116717  -0.322389  0  1.920476  0
O  O126  1  0.71620371  0.96425038  0.81896124  1  -0.433416  0  -0.101503  -0.295091  0  1.920766  0
O  O127  1  0.43409651  0.90501469  0.79157519  1  -0.453873  0  -0.126623  -0.320229  0  1.862924  0
O  O128  1  0.96742271  0.29998758  0.68275214  1  -0.462358  0  -0.132578  -0.342433  0  1.923054  0
O  O129  1  0.91566223  0.19772845  0.66153302  1  -0.465543  0  -0.132708  -0.328281  0  1.86996  0
O  O130  1  0.36714851  0.32233010  0.47340305  1  -0.464551  0  -0.115974  -0.321235  0  1.958435  0
O  O131  1  0.23097920  0.24087160  0.48873763  1  -0.451839  0  -0.135376  -0.33054  0  1.863  0
F  F132  1  0.15289229  0.80758652  0.86662856  1  -0.625308  0  -0.080851  -0.119724  0  1.35201  0
F  F133  1  0.99075012  0.28710759  0.21288688  1  -0.628248  0  -0.101815  -0.148759  0  1.371533  0
F  F134  1  0.12417983  0.18153436  0.13816138  1  -0.622425  0  -0.088831  -0.129581  0  1.390021  0
F  F135  1  0.26941774  0.81317065  0.15845866  1  -0.644953  0  -0.099626  -0.156595  0  1.374306  0
