# generated using pymatgen
data_BaH16C16(N5O3)2
_symmetry_space_group_name_H-M   'P 1'
_cell_length_a   7.03345616
_cell_length_b   11.07546430
_cell_length_c   13.97459110
_cell_angle_alpha   105.31664336
_cell_angle_beta   89.99990587
_cell_angle_gamma   89.99984246
_symmetry_Int_Tables_number   1
_chemical_formula_structural   BaH16C16(N5O3)2
_chemical_formula_sum   'Ba2 H32 C32 N20 O12'
_cell_volume   1049.93735870
_cell_formula_units_Z   2
loop_
 _symmetry_equiv_pos_site_id
 _symmetry_equiv_pos_as_xyz
  1  'x, y, z'
loop_
 _atom_site_type_symbol
 _atom_site_label
 _atom_site_symmetry_multiplicity
 _atom_site_fract_x
 _atom_site_fract_y
 _atom_site_fract_z
 _atom_site_occupancy
 _atom_site_hle17_bader_spin_density
 _atom_site_hle17_ddec_charge
 _atom_site_hle17_ddec_spin_density
 _atom_site_hle17_ddec_sum_bond_order
 _atom_site_hle17_magmom
 _atom_site_hse06_10hf_bader_spin_density
 _atom_site_hse06_10hf_ddec_charge
 _atom_site_hse06_10hf_ddec_spin_density
 _atom_site_hse06_10hf_ddec_sum_bond_order
 _atom_site_hse06_10hf_magmom
 _atom_site_hse06_bader_spin_density
 _atom_site_hse06_ddec_charge
 _atom_site_hse06_ddec_spin_density
 _atom_site_hse06_ddec_sum_bond_order
 _atom_site_hse06_magmom
 _atom_site_pbe_bader_spin_density
 _atom_site_pbe_cm5_charge
 _atom_site_pbe_ddec_charge
 _atom_site_pbe_ddec_spin_density
 _atom_site_pbe_ddec_sum_bond_order
 _atom_site_pbe_magmom
Ba  Ba0  1  0.90554618  0.94385443  0.55266602  1  0  1.618341  0  1.169162  0  0  1.464535  0  1.569124  0  0  1.506055  0  1.525542  0  0  0.93343  1.434058  0  1.600056  0
Ba  Ba1  1  0.40554799  0.05614576  0.44733313  1  0  1.618327  0  1.169194  0  0  1.46451  0  1.56917  0  0  1.506031  0  1.525587  0  0  0.933429  1.434033  0  1.600099  0
H  H2  1  0.49512297  0.12989177  0.20268875  1  0  0.08157  0  0.941614  0  0  0.083772  0  1.013871  0  0  0.086909  0  1.010668  0  0  0.11725  0.081427  0  1.016275  0
H  H3  1  0.99512352  0.87010832  0.79730387  1  0  0.081571  0  0.94154  0  0  0.083745  0  1.013832  0  0  0.086883  0  1.010627  0  0  0.117259  0.081404  0  1.016239  0
H  H4  1  0.50072812  0.03282133  0.01903962  1  0  0.104331  0  0.974126  0  0  0.113316  0  1.037916  0  0  0.116104  0  1.037715  0  0  0.105541  0.11132  0  1.038254  0
H  H5  1  0.00073279  0.96717607  0.98095424  1  0  0.104327  0  0.974055  0  0  0.11333  0  1.037831  0  0  0.116119  0  1.037629  0  0  0.105553  0.111333  0  1.038166  0
H  H6  1  0.80703344  0.90158780  0.17206241  1  0  0.08125  0  0.940641  0  0  0.086572  0  1.008722  0  0  0.089224  0  1.006889  0  0  0.115946  0.084492  0  1.010317  0
H  H7  1  0.30703526  0.09841449  0.82793657  1  0  0.081252  0  0.940635  0  0  0.086607  0  1.008669  0  0  0.08926  0  1.006836  0  0  0.115958  0.084523  0  1.010276  0
H  H8  1  0.81197865  0.81899523  0.98696243  1  0  0.107737  0  0.975364  0  0  0.115337  0  1.042156  0  0  0.1182  0  1.041832  0  0  0.106232  0.113251  0  1.042615  0
H  H9  1  0.31198703  0.18100610  0.01303704  1  0  0.107726  0  0.975384  0  0  0.115354  0  1.042152  0  0  0.118228  0  1.041799  0  0  0.106218  0.113267  0  1.042618  0
H  H10  1  0.16737833  0.72878028  0.06999486  1  0  0.106793  0  0.972974  0  0  0.113123  0  1.042557  0  0  0.116722  0  1.040677  0  0  0.104896  0.110559  0  1.044034  0
H  H11  1  0.66737819  0.27121850  0.93000776  1  0  0.106802  0  0.972975  0  0  0.113121  0  1.042553  0  0  0.116716  0  1.040682  0  0  0.104894  0.110556  0  1.044037  0
H  H12  1  0.17048295  0.83998941  0.25042059  1  0  0.078615  0  0.948531  0  0  0.085313  0  1.01406  0  0  0.088009  0  1.012086  0  0  0.122575  0.083297  0  1.015595  0
H  H13  1  0.67047251  0.16001314  0.74958069  1  0  0.078533  0  0.948551  0  0  0.085217  0  1.014101  0  0  0.087913  0  1.012126  0  0  0.122514  0.083199  0  1.015636  0
H  H14  1  0.62510081  0.55982168  0.20695631  1  0  0.086097  0  0.924499  0  0  0.092213  0  0.989448  0  0  0.094995  0  0.987102  0  0  0.115369  0.090039  0  0.991434  0
H  H15  1  0.12509131  0.44018093  0.79304789  1  0  0.08607  0  0.924466  0  0  0.092191  0  0.989407  0  0  0.094972  0  0.987062  0  0  0.115362  0.090024  0  0.991387  0
H  H16  1  0.62072082  0.46421853  0.02525126  1  0  0.107657  0  0.972645  0  0  0.112006  0  1.04552  0  0  0.115663  0  1.043307  0  0  0.104561  0.109372  0  1.04727  0
H  H17  1  0.12071173  0.53578126  0.97475305  1  0  0.107723  0  0.972619  0  0  0.112072  0  1.045493  0  0  0.115729  0  1.04328  0  0  0.104562  0.109438  0  1.047239  0
H  H18  1  0.45490328  0.69325000  0.62680411  1  0  0.12249  0  0.913625  0  0  0.136024  0  0.972194  0  0  0.138441  0  0.969985  0  0  0.131664  0.134217  0  0.973986  0
H  H19  1  0.95491049  0.30674544  0.37319111  1  0  0.122513  0  0.913502  0  0  0.136038  0  0.972078  0  0  0.138458  0  0.969866  0  0  0.13165  0.134228  0  0.973874  0
H  H20  1  0.63295055  0.79868787  0.69281973  1  0  0.111782  0  0.959817  0  0  0.118428  0  1.031811  0  0  0.12062  0  1.029857  0  0  0.128789  0.116864  0  1.033305  0
H  H21  1  0.13295788  0.20130452  0.30717579  1  0  0.111728  0  0.959903  0  0  0.118358  0  1.031942  0  0  0.12055  0  1.029988  0  0  0.128754  0.116793  0  1.033433  0
H  H22  1  0.52650882  0.42096752  0.60181710  1  0  0.130199  0  0.922364  0  0  0.141891  0  0.982374  0  0  0.144803  0  0.979259  0  0  0.128906  0.139647  0  0.984836  0
H  H23  1  0.02651423  0.57903063  0.39818549  1  0  0.130191  0  0.922417  0  0  0.141905  0  0.982408  0  0  0.144817  0  0.979293  0  0  0.128906  0.139662  0  0.984866  0
H  H24  1  0.48327125  0.32848174  0.68632760  1  0  0.128472  0  0.931105  0  0  0.136815  0  0.997576  0  0  0.140033  0  0.994783  0  0  0.132787  0.134468  0  0.999705  0
H  H25  1  0.98327139  0.67151820  0.31367644  1  0  0.128382  0  0.931089  0  0  0.136761  0  0.997534  0  0  0.139977  0  0.994744  0  0  0.132749  0.134413  0  0.999662  0
H  H26  1  0.19157286  0.19357142  0.67617791  1  0  0.387755  0  0.932646  0  0  0.346239  0  1.014073  0  0  0.357858  0  0.997463  0  0  0.28475  0.338084  0  1.025697  0
H  H27  1  0.69157381  0.80642922  0.32382223  1  0  0.387767  0  0.932628  0  0  0.346252  0  1.014052  0  0  0.35787  0  0.997445  0  0  0.284751  0.338098  0  1.025675  0
H  H28  1  0.07008074  0.22462276  0.59082698  1  0  0.405006  0  0.914761  0  0  0.374972  0  0.978627  0  0  0.386213  0  0.962352  0  0  0.287658  0.36702  0  0.990113  0
H  H29  1  0.57008297  0.77537815  0.40917331  1  0  0.404986  0  0.914792  0  0  0.374968  0  0.97863  0  0  0.386207  0  0.962357  0  0  0.287665  0.367016  0  0.990115  0
H  H30  1  0.82467189  0.63092672  0.59773379  1  0  0.403861  0  0.889589  0  0  0.365678  0  0.968241  0  0  0.376038  0  0.95278  0  0  0.296016  0.358345  0  0.979162  0
H  H31  1  0.32465970  0.36908010  0.40227261  1  0  0.403747  0  0.889721  0  0  0.365559  0  0.968394  0  0  0.37592  0  0.952932  0  0  0.295965  0.358228  0  0.979311  0
H  H32  1  0.71875111  0.64696117  0.50385563  1  0  0.423357  0  0.831181  0  0  0.404463  0  0.889945  0  0  0.41294  0  0.880025  0  0  0.318632  0.398387  0  0.897106  0
H  H33  1  0.21874011  0.35304308  0.49615029  1  0  0.42339  0  0.831243  0  0  0.40453  0  0.889951  0  0  0.413009  0  0.880029  0  0  0.318684  0.398453  0  0.897117  0
C  C34  1  0.42203823  0.04182819  0.17016452  1  0  0.139562  0  3.72403  0  0  0.10887  0  3.993724  0  0  0.115799  0  4.009188  0  0  0.052666  0.104429  0  3.983176  0
C  C35  1  0.92203830  0.95817389  0.82983145  1  0  0.139756  0  3.723908  0  0  0.109074  0  3.993637  0  0  0.116004  0  4.009094  0  0  0.052726  0.104619  0  3.983102  0
C  C36  1  0.42418040  0.98859149  0.06835649  1  0  -0.154488  0  3.703603  0  0  -0.174922  0  3.951612  0  0  -0.181775  0  3.972136  0  0  -0.084031  -0.170469  0  3.937834  0
C  C37  1  0.92418279  0.01140497  0.93163825  1  0  -0.154517  0  3.703657  0  0  -0.174971  0  3.951663  0  0  -0.181824  0  3.972183  0  0  -0.084077  -0.170516  0  3.937884  0
C  C38  1  0.76789364  0.80470578  0.13648248  1  0  0.124147  0  3.721643  0  0  0.097663  0  3.976048  0  0  0.103308  0  3.994033  0  0  0.049252  0.094074  0  3.964049  0
C  C39  1  0.26789207  0.19529750  0.86351889  1  0  0.124142  0  3.721647  0  0  0.097643  0  3.976065  0  0  0.103286  0  3.994053  0  0  0.049253  0.094059  0  3.964058  0
C  C40  1  0.77113697  0.75898826  0.03373090  1  0  -0.147935  0  3.708145  0  0  -0.168135  0  3.955304  0  0  -0.175005  0  3.976911  0  0  -0.08331  -0.163657  0  3.940917  0
C  C41  1  0.27113914  0.24101221  0.96626914  1  0  -0.147938  0  3.708126  0  0  -0.168185  0  3.955268  0  0  -0.175054  0  3.976879  0  0  -0.083289  -0.163709  0  3.940878  0
C  C42  1  0.23935409  0.81829432  0.09595061  1  0  -0.146987  0  3.705436  0  0  -0.169903  0  3.954702  0  0  -0.176827  0  3.975706  0  0  -0.081551  -0.165403  0  3.940593  0
C  C43  1  0.73935300  0.18170713  0.90405110  1  0  -0.147001  0  3.705409  0  0  -0.169894  0  3.954657  0  0  -0.176819  0  3.975661  0  0  -0.081544  -0.165399  0  3.940554  0
C  C44  1  0.71721909  0.63473028  0.99054012  1  0  0.054204  0  3.77743  0  0  0.069347  0  4.005169  0  0  0.071575  0  4.027139  0  0  0.012693  0.068011  0  3.990217  0
C  C45  1  0.21721673  0.36527120  0.00946304  1  0  0.054165  0  3.777527  0  0  0.069395  0  4.005198  0  0  0.071623  0  4.02717  0  0  0.012653  0.068057  0  3.990247  0
C  C46  1  0.71545779  0.58659116  0.88248380  1  0  0.244978  0  3.774637  0  0  0.228623  0  4.050138  0  0  0.235391  0  4.065776  0  0  0.220963  0.223936  0  4.039634  0
C  C47  1  0.21545629  0.41340660  0.11751713  1  0  0.244975  0  3.77473  0  0  0.228548  0  4.050258  0  0  0.235307  0  4.065912  0  0  0.220996  0.223859  0  4.039761  0
C  C48  1  0.24283572  0.87956605  0.19657355  1  0  0.133459  0  3.723883  0  0  0.106693  0  3.984685  0  0  0.113099  0  4.001549  0  0  0.054719  0.102569  0  3.973221  0
C  C49  1  0.74283096  0.12043638  0.80342550  1  0  0.133579  0  3.723872  0  0  0.106833  0  3.984666  0  0  0.113242  0  4.001525  0  0  0.054784  0.102717  0  3.97319  0
C  C50  1  0.33529704  0.81389066  0.92364907  1  0  0.233675  0  3.80435  0  0  0.217301  0  4.077178  0  0  0.223792  0  4.093003  0  0  0.217916  0.21288  0  4.066409  0
C  C51  1  0.83530290  0.18610688  0.07634956  1  0  0.233803  0  3.804121  0  0  0.217366  0  4.077031  0  0  0.223857  0  4.092856  0  0  0.217893  0.212952  0  4.066254  0
C  C52  1  0.33146100  0.87402905  0.02975583  1  0  0.051708  0  3.807701  0  0  0.068926  0  4.032688  0  0  0.071621  0  4.054478  0  0  0.010996  0.067321  0  4.017872  0
C  C53  1  0.83146277  0.12596759  0.97024046  1  0  0.05165  0  3.807637  0  0  0.068903  0  4.032597  0  0  0.0716  0  4.054384  0  0  0.011011  0.067298  0  4.017779  0
C  C54  1  0.66486216  0.61509463  0.15586081  1  0  0.126872  0  3.707957  0  0  0.093834  0  3.974268  0  0  0.09941  0  3.991798  0  0  0.04566  0.09031  0  3.962444  0
C  C55  1  0.16485558  0.38490697  0.84414171  1  0  0.126907  0  3.707792  0  0  0.09387  0  3.974124  0  0  0.099445  0  3.991654  0  0  0.045703  0.090336  0  3.962307  0
C  C56  1  0.66239424  0.56158899  0.05385161  1  0  -0.136816  0  3.69162  0  0  -0.160515  0  3.946029  0  0  -0.167016  0  3.967388  0  0  -0.080303  -0.156232  0  3.931668  0
C  C57  1  0.16238425  0.43841261  0.94615162  1  0  -0.136951  0  3.691705  0  0  -0.160634  0  3.946027  0  0  -0.167134  0  3.967384  0  0  -0.080357  -0.156348  0  3.931666  0
C  C58  1  0.39101249  0.88693807  0.64086781  1  0  0.722701  0  3.887685  0  0  0.678016  0  4.185519  0  0  0.711773  0  4.17609  0  0  0.229776  0.655088  0  4.191034  0
C  C59  1  0.89102200  0.11305838  0.35913197  1  0  0.722588  0  3.887729  0  0  0.677917  0  4.185531  0  0  0.711675  0  4.176106  0  0  0.229765  0.654991  0  4.191042  0
C  C60  1  0.48036559  0.78331169  0.68109398  1  0  -0.229168  0  3.640925  0  0  -0.29217  0  3.899691  0  0  -0.292984  0  3.903784  0  0  -0.044896  -0.291565  0  3.897052  0
C  C61  1  0.98037478  0.21668274  0.31890242  1  0  -0.229007  0  3.640749  0  0  -0.292002  0  3.899471  0  0  -0.29281  0  3.903549  0  0  -0.044815  -0.291391  0  3.896824  0
C  C62  1  0.59238966  0.37914520  0.65675614  1  0  -0.219499  0  3.58533  0  0  -0.278388  0  3.841  0  0  -0.279492  0  3.844247  0  0  -0.042657  -0.277429  0  3.838775  0
C  C63  1  0.09239222  0.62085468  0.34324677  1  0  -0.219427  0  3.585298  0  0  -0.278381  0  3.841024  0  0  -0.279484  0  3.844266  0  0  -0.042626  -0.277419  0  3.838791  0
C  C64  1  0.75087817  0.28895433  0.60383277  1  0  0.703421  0  3.877131  0  0  0.659038  0  4.175997  0  0  0.691254  0  4.169867  0  0  0.226271  0.63728  0  4.179103  0
C  C65  1  0.25087875  0.71104710  0.39616821  1  0  0.703456  0  3.8771  0  0  0.659068  0  4.176008  0  0  0.691284  0  4.169879  0  0  0.226279  0.63731  0  4.179114  0
N  N66  1  0.39785410  0.77487259  0.77370828  1  0  0.253431  0  3.571096  0  0  0.300367  0  3.854006  0  0  0.297195  0  3.875035  0  0  -0.002176  0.302191  0  3.839992  0
N  N67  1  0.89786214  0.22512203  0.22628752  1  0  0.253305  0  3.571094  0  0  0.30023  0  3.853997  0  0  0.297059  0  3.875028  0  0  -0.002259  0.302053  0  3.839978  0
N  N68  1  0.78197128  0.65158900  0.81894943  1  0  -0.244407  0  2.92883  0  0  -0.236517  0  3.221486  0  0  -0.242554  0  3.232365  0  0  -0.188207  -0.232353  0  3.214214  0
N  N69  1  0.28197128  0.34841049  0.18105182  1  0  -0.244303  0  2.928846  0  0  -0.236396  0  3.221516  0  0  -0.242432  0  3.232398  0  0  -0.188168  -0.232233  0  3.214245  0
N  N70  1  0.42643005  0.86210083  0.85772964  1  0  -0.282522  0  2.806447  0  0  -0.270805  0  3.074854  0  0  -0.275909  0  3.087687  0  0  -0.187209  -0.26719  0  3.066523  0
N  N71  1  0.92643732  0.13789466  0.14226703  1  0  -0.282652  0  2.806547  0  0  -0.270886  0  3.074932  0  0  -0.27599  0  3.087757  0  0  -0.187238  -0.26728  0  3.066612  0
N  N72  1  0.66119475  0.47832929  0.73914937  1  0  0.252601  0  3.560063  0  0  0.297194  0  3.842604  0  0  0.29402  0  3.864114  0  0  0.000806  0.299001  0  3.828224  0
N  N73  1  0.16119658  0.52167140  0.26085224  1  0  0.252541  0  3.560194  0  0  0.297144  0  3.842731  0  0  0.29397  0  3.86424  0  0  0.000759  0.298952  0  3.828352  0
N  N74  1  0.74711247  0.58190737  0.72868007  1  0  -0.117094  0  2.9075  0  0  -0.101364  0  3.193916  0  0  -0.099436  0  3.201593  0  0  -0.059941  -0.102479  0  3.188919  0
N  N75  1  0.24711472  0.41809219  0.27132122  1  0  -0.117136  0  2.907641  0  0  -0.101405  0  3.194043  0  0  -0.099478  0  3.201718  0  0  -0.059952  -0.10251  0  3.189038  0
N  N76  1  0.25348125  0.70148802  0.87926022  1  0  -0.254397  0  2.936223  0  0  -0.238544  0  3.233247  0  0  -0.245519  0  3.244399  0  0  -0.190082  -0.23357  0  3.225708  0
N  N77  1  0.75348790  0.29850970  0.12073852  1  0  -0.254403  0  2.936098  0  0  -0.238529  0  3.233141  0  0  -0.245505  0  3.244295  0  0  -0.190043  -0.233558  0  3.225608  0
N  N78  1  0.29449544  0.67743960  0.78401044  1  0  -0.103495  0  2.817908  0  0  -0.109266  0  3.110158  0  0  -0.105048  0  3.118162  0  0  -0.075283  -0.111903  0  3.104984  0
N  N79  1  0.79450309  0.32255615  0.21598783  1  0  -0.103373  0  2.817762  0  0  -0.109142  0  3.11002  0  0  -0.104926  0  3.118023  0  0  -0.075192  -0.111785  0  3.104853  0
N  N80  1  0.71625620  0.73459664  0.19720432  1  0  -0.307911  0  3.145711  0  0  -0.248158  0  3.39538  0  0  -0.26105  0  3.410274  0  0  -0.301014  -0.239519  0  3.385251  0
N  N81  1  0.21625027  0.26540486  0.80279742  1  0  -0.307878  0  3.145573  0  0  -0.248137  0  3.395258  0  0  -0.261029  0  3.41015  0  0  -0.30104  -0.239504  0  3.385135  0
N  N82  1  0.63991914  0.47611854  0.83308101  1  0  -0.288177  0  2.799434  0  0  -0.277047  0  3.0654  0  0  -0.282419  0  3.078847  0  0  -0.186715  -0.273366  0  3.056513  0
N  N83  1  0.13991843  0.52388218  0.16692133  1  0  -0.288097  0  2.799442  0  0  -0.27695  0  3.065413  0  0  -0.282321  0  3.078862  0  0  -0.186652  -0.273271  0  3.056531  0
N  N84  1  0.33340114  0.98868350  0.23403286  1  0  -0.365913  0  3.145921  0  0  -0.312705  0  3.41428  0  0  -0.326746  0  3.430644  0  0  -0.360192  -0.303196  0  3.403149  0
N  N85  1  0.83339697  0.01131968  0.76596486  1  0  -0.366078  0  3.145924  0  0  -0.312879  0  3.414295  0  0  -0.32692  0  3.430656  0  0  -0.360252  -0.303369  0  3.403169  0
O  O86  1  0.21597472  0.90651024  0.65570593  1  0  -0.689503  0  1.960181  0  0  -0.63681  0  2.20192  0  0  -0.663244  0  2.193803  0  0  -0.371685  -0.618058  0  2.206812  0
O  O87  1  0.71597441  0.09348941  0.34429398  1  0  -0.689518  0  1.959947  0  0  -0.636821  0  2.201665  0  0  -0.663259  0  2.19355  0  0  -0.371726  -0.618074  0  2.206557  0
O  O88  1  0.50423702  0.93922267  0.59360697  1  0  -0.721296  0  1.99317  0  0  -0.657163  0  2.241845  0  0  -0.685194  0  2.232771  0  0  -0.379934  -0.637194  0  2.247382  0
O  O89  1  0.00423894  0.06077560  0.40639137  1  0  -0.721237  0  1.993389  0  0  -0.657116  0  2.242053  0  0  -0.685147  0  2.232978  0  0  -0.379925  -0.637155  0  2.247598  0
O  O90  1  0.90985256  0.33589538  0.59233070  1  0  -0.63653  0  1.906365  0  0  -0.589427  0  2.11828  0  0  -0.613734  0  2.108191  0  0  -0.326252  -0.572335  0  2.124574  0
O  O91  1  0.40985757  0.66410384  0.40766967  1  0  -0.636527  0  1.906315  0  0  -0.589429  0  2.118235  0  0  -0.613737  0  2.108148  0  0  -0.326248  -0.572339  0  2.124531  0
O  O92  1  0.70174330  0.17466127  0.57595096  1  0  -0.726686  0  1.98633  0  0  -0.660806  0  2.228978  0  0  -0.689026  0  2.221787  0  0  -0.377251  -0.64084  0  2.23322  0
O  O93  1  0.20174614  0.82533934  0.42404988  1  0  -0.726693  0  1.986318  0  0  -0.660813  0  2.228982  0  0  -0.689032  0  2.221789  0  0  -0.377264  -0.640858  0  2.233249  0
O  O94  1  0.83575606  0.66950321  0.54198599  1  0  -0.826319  0  1.77239  0  0  -0.772374  0  1.934214  0  0  -0.790207  0  1.908834  0  0  -0.580969  -0.75966  0  1.952073  0
O  O95  1  0.33574528  0.33050174  0.45801855  1  0  -0.82625  0  1.772598  0  0  -0.772324  0  1.934389  0  0  -0.790159  0  1.909007  0  0  -0.580973  -0.759611  0  1.952246  0
O  O96  1  0.16256881  0.16156507  0.60326636  1  0  -0.926922  0  1.89496  0  0  -0.861581  0  2.09404  0  0  -0.883916  0  2.061689  0  0  -0.653046  -0.845527  0  2.116472  0
O  O97  1  0.66256939  0.83843564  0.39673382  1  0  -0.926923  0  1.895007  0  0  -0.861586  0  2.094068  0  0  -0.883913  0  2.061715  0  0  -0.653067  -0.845532  0  2.116502  0
