# generated using pymatgen
data_CdH19C20SN5O7
_symmetry_space_group_name_H-M   'P 1'
_cell_length_a   10.28061854
_cell_length_b   10.23727865
_cell_length_c   11.73575302
_cell_angle_alpha   102.29584350
_cell_angle_beta   110.87748538
_cell_angle_gamma   101.95370916
_symmetry_Int_Tables_number   1
_chemical_formula_structural   CdH19C20SN5O7
_chemical_formula_sum   'Cd2 H38 C40 S2 N10 O14'
_cell_volume   1072.01742290
_cell_formula_units_Z   2
loop_
 _symmetry_equiv_pos_site_id
 _symmetry_equiv_pos_as_xyz
  1  'x, y, z'
loop_
 _atom_site_type_symbol
 _atom_site_label
 _atom_site_symmetry_multiplicity
 _atom_site_fract_x
 _atom_site_fract_y
 _atom_site_fract_z
 _atom_site_occupancy
 _atom_site_hle17_bader_spin_density
 _atom_site_hle17_ddec_charge
 _atom_site_hle17_ddec_spin_density
 _atom_site_hle17_ddec_sum_bond_order
 _atom_site_hle17_magmom
 _atom_site_hse06_10hf_bader_spin_density
 _atom_site_hse06_10hf_ddec_charge
 _atom_site_hse06_10hf_ddec_spin_density
 _atom_site_hse06_10hf_ddec_sum_bond_order
 _atom_site_hse06_10hf_magmom
 _atom_site_hse06_bader_spin_density
 _atom_site_hse06_ddec_charge
 _atom_site_hse06_ddec_spin_density
 _atom_site_hse06_ddec_sum_bond_order
 _atom_site_hse06_magmom
 _atom_site_pbe_bader_spin_density
 _atom_site_pbe_cm5_charge
 _atom_site_pbe_ddec_charge
 _atom_site_pbe_ddec_spin_density
 _atom_site_pbe_ddec_sum_bond_order
 _atom_site_pbe_magmom
Cd  Cd0  1  0.03568047  0.37791575  0.37866576  1  0  1.245735  0  1.572  0  0  1.073514  0  2.015043  0  0  1.134039  0  1.954316  0  0  0.776092  1.028164  0  2.058774  0
Cd  Cd1  1  0.96432003  0.62208388  0.62133576  1  0  1.245715  0  1.572034  0  0  1.073488  0  2.015081  0  0  1.134014  0  1.954356  0  0  0.776084  1.028137  0  2.058819  0
H  H2  1  0.57512140  0.43687758  0.05709242  1  0  0.110752  0  0.961829  0  0  0.121751  0  1.024578  0  0  0.124451  0  1.022661  0  0  0.108896  0.119745  0  1.026183  0
H  H3  1  0.42488464  0.56312312  0.94291191  1  0  0.110708  0  0.961832  0  0  0.121743  0  1.024536  0  0  0.124442  0  1.02262  0  0  0.10888  0.119737  0  1.02614  0
H  H4  1  0.29777656  0.40062164  0.02138521  1  0  0.124264  0  0.925813  0  0  0.136966  0  0.979453  0  0  0.140561  0  0.977009  0  0  0.113339  0.134271  0  0.981538  0
H  H5  1  0.70222672  0.59938015  0.97861335  1  0  0.124222  0  0.925858  0  0  0.136927  0  0.979495  0  0  0.140522  0  0.97705  0  0  0.113332  0.13423  0  0.981583  0
H  H6  1  0.07599848  0.83727109  0.26647626  1  0  0.10242  0  0.924223  0  0  0.11491  0  0.981782  0  0  0.118806  0  0.976658  0  0  0.134287  0.111824  0  0.985738  0
H  H7  1  0.92400307  0.16272856  0.73352390  1  0  0.102443  0  0.924218  0  0  0.114911  0  0.981792  0  0  0.118823  0  0.976649  0  0  0.134296  0.111823  0  0.985747  0
H  H8  1  0.26546951  0.29004705  0.74971856  1  0  0.085276  0  0.932255  0  0  0.092442  0  0.996204  0  0  0.094862  0  0.992943  0  0  0.118762  0.090513  0  0.998575  0
H  H9  1  0.73452514  0.70995049  0.25027646  1  0  0.085271  0  0.932241  0  0  0.092434  0  0.996182  0  0  0.094854  0  0.992921  0  0  0.118745  0.090508  0  0.998559  0
H  H10  1  0.17149400  0.68563413  0.34474311  1  0  0.074436  0  0.913838  0  0  0.093164  0  0.969327  0  0  0.093584  0  0.968885  0  0  0.112851  0.092533  0  0.970144  0
H  H11  1  0.82850651  0.31436551  0.65525757  1  0  0.074429  0  0.913822  0  0  0.09313  0  0.969326  0  0  0.093564  0  0.96887  0  0  0.112848  0.092502  0  0.970142  0
H  H12  1  0.26406012  0.71689132  0.51166940  1  0  0.098212  0  0.960974  0  0  0.105436  0  1.03249  0  0  0.107904  0  1.030209  0  0  0.109355  0.103451  0  1.034364  0
H  H13  1  0.73593971  0.28310622  0.48833067  1  0  0.098242  0  0.960968  0  0  0.105456  0  1.032486  0  0  0.107923  0  1.030207  0  0  0.10937  0.103472  0  1.034361  0
H  H14  1  0.43317032  0.69202834  0.40643996  1  0  0.110181  0  0.981801  0  0  0.125204  0  1.052168  0  0  0.126042  0  1.053843  0  0  0.085255  0.124472  0  1.050963  0
H  H15  1  0.56682881  0.30797024  0.59356008  1  0  0.110198  0  0.981793  0  0  0.125223  0  1.052152  0  0  0.126061  0  1.053827  0  0  0.085269  0.124492  0  1.050947  0
H  H16  1  0.49363307  0.86578545  0.51324323  1  0  0.101677  0  0.958806  0  0  0.120024  0  1.025251  0  0  0.121641  0  1.02525  0  0  0.084434  0.118868  0  1.025132  0
H  H17  1  0.50636606  0.13421313  0.48675681  1  0  0.101672  0  0.958801  0  0  0.120013  0  1.025251  0  0  0.121628  0  1.025249  0  0  0.084444  0.118859  0  1.02513  0
H  H18  1  0.40248323  0.83261849  0.34439866  1  0  0.086139  0  0.971447  0  0  0.103463  0  1.042034  0  0  0.104293  0  1.043035  0  0  0.077622  0.102755  0  1.041391  0
H  H19  1  0.59751694  0.16738010  0.65560171  1  0  0.086129  0  0.971426  0  0  0.103448  0  1.042028  0  0  0.104279  0  1.043029  0  0  0.077614  0.102739  0  1.041387  0
H  H20  1  0.50547080  0.82610596  0.78651357  1  0  0.086863  0  0.971656  0  0  0.094029  0  1.044946  0  0  0.094477  0  1.046081  0  0  0.110839  0.09393  0  1.043744  0
H  H21  1  0.49452968  0.17389686  0.21348515  1  0  0.086904  0  0.971602  0  0  0.094047  0  1.044917  0  0  0.094496  0  1.046049  0  0  0.110855  0.093952  0  1.043716  0
H  H22  1  0.61769169  0.87996413  0.95486693  1  0  0.092397  0  0.917265  0  0  0.104441  0  0.982585  0  0  0.10512  0  0.982722  0  0  0.114243  0.103769  0  0.983293  0
H  H23  1  0.38230741  0.12003762  0.04513200  1  0  0.092366  0  0.917313  0  0  0.104444  0  0.982579  0  0  0.105123  0  0.982718  0  0  0.114259  0.103775  0  0.983284  0
H  H24  1  0.77566803  0.86135105  0.83947571  1  0  0.0917  0  0.939421  0  0  0.106186  0  1.00139  0  0  0.106456  0  1.002547  0  0  0.114919  0.105978  0  1.00048  0
H  H25  1  0.22433040  0.13864859  0.16052261  1  0  0.09167  0  0.93941  0  0  0.106154  0  1.001399  0  0  0.106423  0  1.002557  0  0  0.114903  0.105947  0  1.000487  0
H  H26  1  0.70282698  0.97161611  0.75134688  1  0  0.066107  0  0.930674  0  0  0.080198  0  0.99929  0  0  0.080578  0  0.999482  0  0  0.105814  0.07982  0  0.999293  0
H  H27  1  0.29717386  0.02838459  0.24865326  1  0  0.066101  0  0.930663  0  0  0.08019  0  0.999284  0  0  0.080571  0  0.999475  0  0  0.105813  0.079814  0  0.999289  0
H  H28  1  0.76338306  0.23265507  0.88669386  1  0  0.069668  0  0.908551  0  0  0.090077  0  0.961878  0  0  0.08992  0  0.962908  0  0  0.11034  0.09012  0  0.961278  0
H  H29  1  0.23662125  0.76734670  0.11330672  1  0  0.069696  0  0.908516  0  0  0.090096  0  0.961856  0  0  0.089938  0  0.962888  0  0  0.110344  0.090133  0  0.961266  0
H  H30  1  0.87742126  0.28071023  0.05483550  1  0  0.1183  0  0.950333  0  0  0.129498  0  1.013353  0  0  0.131599  0  1.01165  0  0  0.120159  0.127861  0  1.014893  0
H  H31  1  0.12258132  0.71928941  0.94516669  1  0  0.118324  0  0.950346  0  0  0.129518  0  1.013378  0  0  0.131618  0  1.011676  0  0  0.120175  0.127884  0  1.014909  0
H  H32  1  0.68223080  0.12332591  0.08444655  1  0  0.095511  0  0.93453  0  0  0.10521  0  1.001256  0  0  0.106688  0  1.000552  0  0  0.111009  0.104053  0  1.002058  0
H  H33  1  0.31776692  0.87667478  0.91555175  1  0  0.095473  0  0.934519  0  0  0.105166  0  1.001256  0  0  0.106644  0  1.00055  0  0  0.110995  0.104009  0  1.002054  0
H  H34  1  0.60877884  0.24154820  0.00904652  1  0  0.09234  0  0.970767  0  0  0.10219  0  1.041488  0  0  0.102983  0  1.041144  0  0  0.116037  0.101502  0  1.04195  0
H  H35  1  0.39122372  0.75845462  0.99095287  1  0  0.092325  0  0.970681  0  0  0.102156  0  1.041427  0  0  0.102949  0  1.041082  0  0  0.116015  0.101468  0  1.041888  0
H  H36  1  0.93239692  0.09672293  0.92529903  1  0  0.305319  0  0.879743  0  0  0.287219  0  0.939604  0  0  0.295029  0  0.933634  0  0  0.313865  0.281731  0  0.943849  0
H  H37  1  0.06760359  0.90327673  0.07469995  1  0  0.305332  0  0.879744  0  0  0.287222  0  0.93961  0  0  0.295031  0  0.933641  0  0  0.313882  0.281734  0  0.943858  0
H  H38  1  0.87940964  0.04245366  0.03214930  1  0  0.300868  0  0.897152  0  0  0.28084  0  0.958884  0  0  0.290219  0  0.952062  0  0  0.305475  0.274194  0  0.963967  0
H  H39  1  0.12059054  0.95754495  0.96784937  1  0  0.300844  0  0.897132  0  0  0.280803  0  0.95887  0  0  0.290181  0  0.952049  0  0  0.305447  0.274159  0  0.96395  0
C  C40  1  0.78026421  0.44982924  0.30271686  1  0  0.658222  0  3.949841  0  0  0.605642  0  4.243392  0  0  0.641645  0  4.236243  0  0  0.191637  0.581591  0  4.246152  0
C  C41  1  0.21973629  0.55017039  0.69728382  1  0  0.658253  0  3.949848  0  0  0.605698  0  4.243373  0  0  0.641701  0  4.236223  0  0  0.191636  0.581649  0  4.246129  0
C  C42  1  0.62715729  0.45149217  0.25664928  1  0  -0.164235  0  3.722933  0  0  -0.143646  0  3.99108  0  0  -0.151221  0  4.009839  0  0  -0.02531  -0.138702  0  3.978286  0
C  C43  1  0.37284419  0.54851059  0.74335486  1  0  -0.164321  0  3.722964  0  0  -0.143746  0  3.991132  0  0  -0.151322  0  4.009891  0  0  -0.025336  -0.138795  0  3.978326  0
C  C44  1  0.53578388  0.43744279  0.13160226  1  0  -0.079835  0  3.760655  0  0  -0.112452  0  4.02745  0  0  -0.110878  0  4.045916  0  0  -0.094581  -0.113127  0  4.0154  0
C  C45  1  0.46421833  0.56255895  0.86840021  1  0  -0.079796  0  3.760729  0  0  -0.112423  0  4.027509  0  0  -0.11085  0  4.045974  0  0  -0.094589  -0.113106  0  4.015462  0
C  C46  1  0.38894905  0.41860167  0.11240345  1  0  -0.088001  0  3.745127  0  0  -0.115324  0  4.005029  0  0  -0.116163  0  4.023144  0  0  -0.096842  -0.114543  0  3.993048  0
C  C47  1  0.61105140  0.58140110  0.88759952  1  0  -0.087866  0  3.745132  0  0  -0.115188  0  4.005028  0  0  -0.116027  0  4.023145  0  0  -0.096828  -0.114408  0  3.993053  0
C  C48  1  0.36983999  0.42111854  0.22388970  1  0  -0.145109  0  3.716045  0  0  -0.125464  0  3.975809  0  0  -0.129948  0  3.993923  0  0  -0.022515  -0.122581  0  3.963296  0
C  C49  1  0.63016048  0.57888425  0.77611072  1  0  -0.145158  0  3.715914  0  0  -0.125528  0  3.975696  0  0  -0.130012  0  3.99381  0  0  -0.022525  -0.122643  0  3.963179  0
C  C50  1  0.22875966  0.39458316  0.23751232  1  0  0.631543  0  4.018604  0  0  0.587807  0  4.309792  0  0  0.621944  0  4.3027  0  0  0.185699  0.56464  0  4.313339  0
C  C51  1  0.77124289  0.60541964  0.76248961  1  0  0.631519  0  4.018587  0  0  0.587801  0  4.309754  0  0  0.621935  0  4.302665  0  0  0.185745  0.564634  0  4.313299  0
C  C52  1  0.97330710  0.05013574  0.24771130  1  0  0.67374  0  3.914119  0  0  0.619013  0  4.218492  0  0  0.654559  0  4.211485  0  0  0.20007  0.594714  0  4.222793  0
C  C53  1  0.02669483  0.94986182  0.75228772  1  0  0.673747  0  3.914124  0  0  0.619002  0  4.218508  0  0  0.654545  0  4.211506  0  0  0.200068  0.594707  0  4.222802  0
C  C54  1  0.07711621  0.03688835  0.36927011  1  0  -0.287343  0  3.743913  0  0  -0.273859  0  4.010842  0  0  -0.294916  0  4.031458  0  0  -0.04982  -0.26077  0  3.997764  0
C  C55  1  0.92287979  0.96311022  0.63072895  1  0  -0.287319  0  3.743765  0  0  -0.273802  0  4.010686  0  0  -0.294861  0  4.03131  0  0  -0.049809  -0.260712  0  3.997605  0
C  C56  1  0.13209479  0.13978380  0.49521704  1  0  0.417255  0  3.844041  0  0  0.385586  0  4.115261  0  0  0.413891  0  4.120792  0  0  0.123181  0.366917  0  4.111031  0
C  C57  1  0.86790019  0.86021159  0.50478280  1  0  0.417281  0  3.843866  0  0  0.385579  0  4.115186  0  0  0.413875  0  4.120709  0  0  0.123129  0.366907  0  4.110961  0
C  C58  1  0.23297123  0.10632045  0.59914725  1  0  -0.242783  0  3.776482  0  0  -0.22714  0  4.024615  0  0  -0.247117  0  4.048819  0  0  -0.032464  -0.214257  0  4.00776  0
C  C59  1  0.76702791  0.89367814  0.40085110  1  0  -0.242731  0  3.776328  0  0  -0.227195  0  4.024607  0  0  -0.247146  0  4.048774  0  0  -0.032469  -0.214306  0  4.007751  0
C  C60  1  0.27603527  0.98401012  0.58051461  1  0  0.387721  0  3.782216  0  0  0.3499  0  4.045821  0  0  0.370922  0  4.059079  0  0  0.248209  0.336261  0  4.036701  0
C  C61  1  0.72396454  0.01599058  0.41948435  1  0  0.387618  0  3.782218  0  0  0.349834  0  4.045831  0  0  0.370851  0  4.059082  0  0  0.24823  0.336202  0  4.036704  0
C  C62  1  0.12104364  0.91777059  0.35967798  1  0  0.125574  0  3.667242  0  0  0.066733  0  3.930954  0  0  0.084394  0  3.94188  0  0  0.063867  0.055385  0  3.924019  0
C  C63  1  0.87895445  0.08222799  0.64032089  1  0  0.125484  0  3.667254  0  0  0.06667  0  3.930943  0  0  0.08432  0  3.941868  0  0  0.063862  0.055327  0  3.924004  0
C  C64  1  0.29823772  0.19641369  0.72725879  1  0  0.215543  0  3.682451  0  0  0.175555  0  3.944192  0  0  0.192272  0  3.954479  0  0  0.079846  0.165206  0  3.936448  0
C  C65  1  0.70176038  0.80358491  0.27273838  1  0  0.215537  0  3.682433  0  0  0.175613  0  3.944168  0  0  0.192322  0  3.954451  0  0  0.079889  0.165259  0  3.936433  0
C  C66  1  0.43536333  0.05469539  0.79116307  1  0  0.509385  0  3.805593  0  0  0.463715  0  4.091586  0  0  0.490936  0  4.096611  0  0  0.346144  0.445352  0  4.088274  0
C  C67  1  0.56463819  0.94530743  0.20883598  1  0  0.509253  0  3.805639  0  0  0.463705  0  4.09147  0  0  0.490937  0  4.09648  0  0  0.346148  0.445336  0  4.088167  0
C  C68  1  0.25998799  0.76099424  0.43377765  1  0  0.04198  0  3.612634  0  0  -0.018302  0  3.878194  0  0  -0.012452  0  3.887265  0  0  -0.060116  -0.022162  0  3.872255  0
C  C69  1  0.74001217  0.23900433  0.56622358  1  0  0.041895  0  3.612613  0  0  -0.01834  0  3.878131  0  0  -0.012501  0  3.887202  0  0  -0.060125  -0.022203  0  3.872197  0
C  C70  1  0.40606819  0.79037789  0.42367480  1  0  -0.308912  0  3.697135  0  0  -0.386023  0  3.948817  0  0  -0.389517  0  3.959552  0  0  -0.251763  -0.383083  0  3.941128  0
C  C71  1  0.59393335  0.20962174  0.57632706  1  0  -0.308896  0  3.697101  0  0  -0.386015  0  3.948795  0  0  -0.389512  0  3.959539  0  0  -0.251769  -0.383077  0  3.94111  0
C  C72  1  0.59241585  0.91226121  0.86781249  1  0  -0.029169  0  3.645721  0  0  -0.086001  0  3.90157  0  0  -0.082391  0  3.914281  0  0  -0.060117  -0.088294  0  3.892615  0
C  C73  1  0.40758430  0.08774055  0.13218593  1  0  -0.029186  0  3.645787  0  0  -0.085992  0  3.901594  0  0  -0.082382  0  3.914299  0  0  -0.060146  -0.088283  0  3.892643  0
C  C74  1  0.72839363  0.94791336  0.84235932  1  0  0.014117  0  3.543355  0  0  -0.05104  0  3.808735  0  0  -0.047754  0  3.820206  0  0  -0.060077  -0.052653  0  3.800354  0
C  C75  1  0.27160722  0.05208735  0.15763997  1  0  0.014186  0  3.543237  0  0  -0.050988  0  3.808634  0  0  -0.047704  0  3.820106  0  0  -0.060055  -0.052605  0  3.800259  0
C  C76  1  0.78871462  0.19736383  0.97212389  1  0  0.014111  0  3.520348  0  0  -0.047908  0  3.778605  0  0  -0.044355  0  3.78792  0  0  -0.060941  -0.050027  0  3.771884  0
C  C77  1  0.21128726  0.80263686  0.02787742  1  0  0.014066  0  3.520486  0  0  -0.047966  0  3.778749  0  0  -0.044417  0  3.788073  0  0  -0.060958  -0.050083  0  3.772027  0
C  C78  1  0.65297298  0.15410687  0.99681708  1  0  -0.030901  0  3.632725  0  0  -0.09402  0  3.897385  0  0  -0.089733  0  3.90822  0  0  -0.062984  -0.096561  0  3.889307  0
C  C79  1  0.34702821  0.84589489  0.00318166  1  0  -0.030817  0  3.632629  0  0  -0.093902  0  3.897268  0  0  -0.089607  0  3.908083  0  0  -0.06293  -0.096437  0  3.889183  0
S  S80  1  0.53213129  0.44718944  0.35167943  1  0  0.206298  0  2.635609  0  0  0.203746  0  2.959541  0  0  0.205907  0  2.965325  0  0  0.120826  0.202401  0  2.955386  0
S  S81  1  0.46786571  0.55281227  0.64832139  1  0  0.206344  0  2.635539  0  0  0.203799  0  2.959476  0  0  0.205962  0  2.965258  0  0  0.120868  0.202449  0  2.955321  0
N  N82  1  0.39801149  0.17403858  0.82225587  1  0  -0.419721  0  2.995298  0  0  -0.382362  0  3.270237  0  0  -0.40061  0  3.279205  0  0  -0.318277  -0.370675  0  3.264636  0
N  N83  1  0.60198865  0.82596318  0.17774255  1  0  -0.419751  0  2.995341  0  0  -0.382437  0  3.270233  0  0  -0.400689  0  3.279198  0  0  -0.318334  -0.370744  0  3.264637  0
N  N84  1  0.37528864  0.95705701  0.67455729  1  0  -0.491543  0  3.010919  0  0  -0.457011  0  3.28987  0  0  -0.475985  0  3.297381  0  0  -0.326514  -0.445042  0  3.285012  0
N  N85  1  0.62471255  0.04294474  0.32544231  1  0  -0.491437  0  3.010997  0  0  -0.456949  0  3.28991  0  0  -0.475928  0  3.297419  0  0  -0.326496  -0.44498  0  3.285055  0
N  N86  1  0.21586140  0.88900804  0.45788185  1  0  -0.119518  0  3.461645  0  0  -0.026871  0  3.683035  0  0  -0.046809  0  3.705025  0  0  -0.226408  -0.014029  0  3.668138  0
N  N87  1  0.78413772  0.11099054  0.54211820  1  0  -0.119348  0  3.461561  0  0  -0.026715  0  3.682916  0  0  -0.046655  0  3.704921  0  0  -0.226422  -0.013879  0  3.668024  0
N  N88  1  0.54237319  0.03464605  0.88842764  1  0  -0.218577  0  3.375415  0  0  -0.136144  0  3.617019  0  0  -0.157483  0  3.638691  0  0  -0.277553  -0.12081  0  3.600939  0
N  N89  1  0.45762729  0.96535676  0.11157109  1  0  -0.218611  0  3.375435  0  0  -0.136209  0  3.616964  0  0  -0.157555  0  3.638639  0  0  -0.277578  -0.120879  0  3.600897  0
N  N90  1  0.84258108  0.07388228  0.94806697  1  0  -0.294724  0  3.303161  0  0  -0.22791  0  3.522756  0  0  -0.242271  0  3.530595  0  0  -0.480845  -0.218091  0  3.517187  0
N  N91  1  0.15741909  0.92611631  0.05193255  1  0  -0.294714  0  3.303185  0  0  -0.227913  0  3.522888  0  0  -0.242269  0  3.530722  0  0  -0.480835  -0.218094  0  3.517319  0
O  O92  1  0.84604085  0.45399640  0.23013581  1  0  -0.611399  0  1.881097  0  0  -0.552264  0  2.103305  0  0  -0.578891  0  2.093038  0  0  -0.319625  -0.533805  0  2.110735  0
O  O93  1  0.15395483  0.54600113  0.76986125  1  0  -0.61141  0  1.88111  0  0  -0.552279  0  2.103317  0  0  -0.578905  0  2.093049  0  0  -0.319646  -0.533823  0  2.110747  0
O  O94  1  0.83965143  0.43319032  0.41448668  1  0  -0.695359  0  2.051353  0  0  -0.615443  0  2.311491  0  0  -0.647964  0  2.297526  0  0  -0.336984  -0.591669  0  2.319607  0
O  O95  1  0.16034977  0.56680827  0.58551487  1  0  -0.695315  0  2.051344  0  0  -0.615451  0  2.311529  0  0  -0.647975  0  2.297566  0  0  -0.336965  -0.591681  0  2.319646  0
O  O96  1  0.11214911  0.33111489  0.13891693  1  0  -0.603911  0  1.905604  0  0  -0.561774  0  2.121433  0  0  -0.584374  0  2.112804  0  0  -0.327185  -0.544932  0  2.127004  0
O  O97  1  0.88785134  0.66888788  0.86108604  1  0  -0.603898  0  1.905618  0  0  -0.561769  0  2.121425  0  0  -0.584368  0  2.112799  0  0  -0.327225  -0.544928  0  2.126994  0
O  O98  1  0.24095645  0.43710410  0.35408453  1  0  -0.679452  0  2.045053  0  0  -0.611925  0  2.307056  0  0  -0.644091  0  2.296451  0  0  -0.343617  -0.588913  0  2.313318  0
O  O99  1  0.75904405  0.56289554  0.64591615  1  0  -0.679434  0  2.045075  0  0  -0.611901  0  2.307061  0  0  -0.64407  0  2.296469  0  0  -0.343613  -0.588886  0  2.313317  0
O  O100  1  0.10024174  0.25270468  0.52012798  1  0  -0.560593  0  2.035112  0  0  -0.504233  0  2.287211  0  0  -0.531742  0  2.279767  0  0  -0.30856  -0.485237  0  2.291699  0
O  O101  1  0.89974735  0.74728858  0.47987045  1  0  -0.56058  0  2.035061  0  0  -0.504215  0  2.287165  0  0  -0.531725  0  2.279721  0  0  -0.30851  -0.485224  0  2.291672  0
O  O102  1  0.91340761  0.14689136  0.25252953  1  0  -0.644607  0  2.008793  0  0  -0.581411  0  2.264775  0  0  -0.608915  0  2.25258  0  0  -0.32925  -0.562622  0  2.273666  0
O  O103  1  0.08659637  0.85310937  0.74746905  1  0  -0.644643  0  2.00887  0  0  -0.581413  0  2.264814  0  0  -0.608915  0  2.252622  0  0  -0.329264  -0.562628  0  2.273707  0
O  O104  1  0.94736799  0.96104276  0.14107520  1  0  -0.637989  0  1.948378  0  0  -0.585935  0  2.170782  0  0  -0.610144  0  2.161033  0  0  -0.33073  -0.569441  0  2.177412  0
O  O105  1  0.05263046  0.03895371  0.85892423  1  0  -0.637991  0  1.948377  0  0  -0.585931  0  2.170777  0  0  -0.610138  0  2.16103  0  0  -0.330718  -0.569438  0  2.177404  0
