# generated using pymatgen
data_ZnH7C6SN3O4
_symmetry_space_group_name_H-M   'P 1'
_cell_length_a   6.55959496
_cell_length_b   9.69466307
_cell_length_c   16.51925234
_cell_angle_alpha   90.00003706
_cell_angle_beta   89.99948662
_cell_angle_gamma   90.00001392
_symmetry_Int_Tables_number   1
_chemical_formula_structural   ZnH7C6SN3O4
_chemical_formula_sum   'Zn4 H28 C24 S4 N12 O16'
_cell_volume   1050.50985511
_cell_formula_units_Z   4
loop_
 _symmetry_equiv_pos_site_id
 _symmetry_equiv_pos_as_xyz
  1  'x, y, z'
loop_
 _atom_site_type_symbol
 _atom_site_label
 _atom_site_symmetry_multiplicity
 _atom_site_fract_x
 _atom_site_fract_y
 _atom_site_fract_z
 _atom_site_occupancy
 _atom_site_hle17_bader_spin_density
 _atom_site_hle17_ddec_charge
 _atom_site_hle17_ddec_spin_density
 _atom_site_hle17_ddec_sum_bond_order
 _atom_site_hle17_magmom
 _atom_site_hse06_10hf_bader_spin_density
 _atom_site_hse06_10hf_ddec_charge
 _atom_site_hse06_10hf_ddec_spin_density
 _atom_site_hse06_10hf_ddec_sum_bond_order
 _atom_site_hse06_10hf_magmom
 _atom_site_hse06_bader_spin_density
 _atom_site_hse06_ddec_charge
 _atom_site_hse06_ddec_spin_density
 _atom_site_hse06_ddec_sum_bond_order
 _atom_site_hse06_magmom
 _atom_site_pbe_bader_spin_density
 _atom_site_pbe_cm5_charge
 _atom_site_pbe_ddec_charge
 _atom_site_pbe_ddec_spin_density
 _atom_site_pbe_ddec_sum_bond_order
 _atom_site_pbe_magmom
Zn  Zn0  1  0.21577446  0.65381165  0.63533600  1  0  1.082754  0  1.845585  0  0  0.904715  0  2.303036  0  0  0.949292  0  2.250126  0  0  0.697157  0.873476  0  2.339863  0
Zn  Zn1  1  0.28422337  0.34619058  0.13533378  1  0  1.082757  0  1.845553  0  0  0.904759  0  2.302978  0  0  0.949332  0  2.25007  0  0  0.697167  0.87353  0  2.339805  0
Zn  Zn2  1  0.78422763  0.15381200  0.86466913  1  0  1.082811  0  1.845511  0  0  0.904777  0  2.302956  0  0  0.949355  0  2.250045  0  0  0.697178  0.873549  0  2.339785  0
Zn  Zn3  1  0.71577337  0.84618647  0.36466492  1  0  1.082835  0  1.845559  0  0  0.904864  0  2.302988  0  0  0.949433  0  2.250081  0  0  0.697202  0.873634  0  2.339816  0
H  H4  1  0.78588670  0.29716088  0.69412996  1  0  0.104296  0  0.941679  0  0  0.108366  0  1.009  0  0  0.111375  0  1.006888  0  0  0.123868  0.106247  0  1.010627  0
H  H5  1  0.71410599  0.70284050  0.19412872  1  0  0.104237  0  0.941668  0  0  0.108343  0  1.008959  0  0  0.111353  0  1.006847  0  0  0.123865  0.106216  0  1.010598  0
H  H6  1  0.21410933  0.79716175  0.80586917  1  0  0.104302  0  0.941664  0  0  0.108373  0  1.008951  0  0  0.11138  0  1.00684  0  0  0.123863  0.106255  0  1.010578  0
H  H7  1  0.28588767  0.20283655  0.30586689  1  0  0.10433  0  0.941658  0  0  0.108363  0  1.008993  0  0  0.11137  0  1.006882  0  0  0.123861  0.106243  0  1.010619  0
H  H8  1  0.38016280  0.31998793  0.88775506  1  0  0.112428  0  0.929135  0  0  0.118405  0  0.99069  0  0  0.122064  0  0.987352  0  0  0.129042  0.115782  0  0.993154  0
H  H9  1  0.11983996  0.68001252  0.38774991  1  0  0.112449  0  0.92918  0  0  0.11844  0  0.990698  0  0  0.122092  0  0.98736  0  0  0.129086  0.115817  0  0.99316  0
H  H10  1  0.61984542  0.81999281  0.61224469  1  0  0.112481  0  0.929175  0  0  0.118414  0  0.990761  0  0  0.122103  0  0.987375  0  0  0.129077  0.115778  0  0.993234  0
H  H11  1  0.88014760  0.18001157  0.11224690  1  0  0.112529  0  0.929115  0  0  0.118516  0  0.990669  0  0  0.122188  0  0.987298  0  0  0.129141  0.115881  0  0.993142  0
H  H12  1  0.16251766  0.48691786  0.80866473  1  0  0.092072  0  0.956019  0  0  0.097934  0  1.019609  0  0  0.100348  0  1.018835  0  0  0.120211  0.09629  0  1.020223  0
H  H13  1  0.33748537  0.51308251  0.30866178  1  0  0.092082  0  0.956044  0  0  0.097928  0  1.019633  0  0  0.10034  0  1.018865  0  0  0.120214  0.096283  0  1.020245  0
H  H14  1  0.83748146  0.98692286  0.69133690  1  0  0.092028  0  0.956038  0  0  0.097901  0  1.019612  0  0  0.100313  0  1.018843  0  0  0.120219  0.096256  0  1.020224  0
H  H15  1  0.66250672  0.01308057  0.19133921  1  0  0.091968  0  0.956105  0  0  0.097855  0  1.019659  0  0  0.100266  0  1.018891  0  0  0.120186  0.096213  0  1.020271  0
H  H16  1  0.18989000  0.46470238  0.52089681  1  0  0.423251  0  0.817351  0  0  0.405288  0  0.872136  0  0  0.41334  0  0.863325  0  0  0.321643  0.399103  0  0.879258  0
H  H17  1  0.31011348  0.53529972  0.02089578  1  0  0.423258  0  0.817346  0  0  0.405292  0  0.872139  0  0  0.413343  0  0.863325  0  0  0.321628  0.399109  0  0.87926  0
H  H18  1  0.81011064  0.96470152  0.97910360  1  0  0.423261  0  0.817333  0  0  0.405296  0  0.872122  0  0  0.413347  0  0.863311  0  0  0.321642  0.399114  0  0.879243  0
H  H19  1  0.68988776  0.03529812  0.47910280  1  0  0.42327  0  0.817345  0  0  0.405308  0  0.872131  0  0  0.413359  0  0.863321  0  0  0.321645  0.399122  0  0.879252  0
H  H20  1  0.95972693  0.50002088  0.54220635  1  0  0.436361  0  0.86714  0  0  0.403615  0  0.932778  0  0  0.414814  0  0.916623  0  0  0.290897  0.395634  0  0.944292  0
H  H21  1  0.54027989  0.49997517  0.04220565  1  0  0.436347  0  0.867161  0  0  0.403586  0  0.932814  0  0  0.414796  0  0.916649  0  0  0.290891  0.395607  0  0.944326  0
H  H22  1  0.04027818  0.00002014  0.95779388  1  0  0.436341  0  0.867168  0  0  0.403596  0  0.932804  0  0  0.414795  0  0.916649  0  0  0.290885  0.395617  0  0.944317  0
H  H23  1  0.45972146  0.99997833  0.45779310  1  0  0.436345  0  0.867147  0  0  0.403604  0  0.932777  0  0  0.414802  0  0.916624  0  0  0.290899  0.395628  0  0.944286  0
H  H24  1  0.08606050  0.85002778  0.51726373  1  0  0.436946  0  0.861892  0  0  0.40463  0  0.925275  0  0  0.416598  0  0.907952  0  0  0.290302  0.396119  0  0.937613  0
H  H25  1  0.41393696  0.14997432  0.01726400  1  0  0.437002  0  0.86182  0  0  0.404673  0  0.925223  0  0  0.416642  0  0.907898  0  0  0.290296  0.396164  0  0.93756  0
H  H26  1  0.91393706  0.35002829  0.98273663  1  0  0.436976  0  0.861842  0  0  0.404655  0  0.925232  0  0  0.416621  0  0.907913  0  0  0.290314  0.396147  0  0.937567  0
H  H27  1  0.58606430  0.64997341  0.48273704  1  0  0.436983  0  0.861848  0  0  0.404648  0  0.925261  0  0  0.416615  0  0.907939  0  0  0.29028  0.396138  0  0.937599  0
H  H28  1  0.17093376  0.92493399  0.59595118  1  0  0.382559  0  0.932345  0  0  0.349841  0  1.004169  0  0  0.359219  0  0.990717  0  0  0.265393  0.342925  0  1.014099  0
H  H29  1  0.32906649  0.07506717  0.09595232  1  0  0.382592  0  0.932324  0  0  0.349876  0  1.004124  0  0  0.359253  0  0.990672  0  0  0.26539  0.342957  0  1.014057  0
H  H30  1  0.82906229  0.42493646  0.90405043  1  0  0.382522  0  0.932384  0  0  0.349802  0  1.004223  0  0  0.35918  0  0.990769  0  0  0.265364  0.342884  0  1.014155  0
H  H31  1  0.67093781  0.57506722  0.40404808  1  0  0.382544  0  0.932397  0  0  0.349827  0  1.004195  0  0  0.359204  0  0.990744  0  0  0.265382  0.342911  0  1.014125  0
C  C32  1  0.60126056  0.49167092  0.59779848  1  0  0.632557  0  3.921051  0  0  0.573533  0  4.224472  0  0  0.607174  0  4.217528  0  0  0.21693  0.550833  0  4.228268  0
C  C33  1  0.89873279  0.50832313  0.09779652  1  0  0.632667  0  3.920957  0  0  0.573532  0  4.224539  0  0  0.607173  0  4.217602  0  0  0.216934  0.550838  0  4.228332  0
C  C34  1  0.39874313  0.99167091  0.90220436  1  0  0.632737  0  3.92093  0  0  0.573633  0  4.224449  0  0  0.607284  0  4.217496  0  0  0.216998  0.550936  0  4.228246  0
C  C35  1  0.10126235  0.00832131  0.40220326  1  0  0.632653  0  3.920913  0  0  0.573496  0  4.224497  0  0  0.607148  0  4.217552  0  0  0.216927  0.550799  0  4.22829  0
C  C36  1  0.53284383  0.43761647  0.67873809  1  0  0.057269  0  3.743721  0  0  0.059901  0  3.994996  0  0  0.056635  0  4.014356  0  0  0.120141  0.061512  0  3.982639  0
C  C37  1  0.96715226  0.56238283  0.17873954  1  0  0.057294  0  3.743341  0  0  0.060003  0  3.994604  0  0  0.056734  0  4.013972  0  0  0.120191  0.061611  0  3.982244  0
C  C38  1  0.46715985  0.93762154  0.82126170  1  0  0.057207  0  3.743807  0  0  0.059921  0  3.994998  0  0  0.056644  0  4.014363  0  0  0.120162  0.06153  0  3.982644  0
C  C39  1  0.03283832  0.06237368  0.32125905  1  0  0.057165  0  3.743949  0  0  0.059946  0  3.995022  0  0  0.056663  0  4.014394  0  0  0.120126  0.061558  0  3.982662  0
C  C40  1  0.64768427  0.34004117  0.72068045  1  0  0.099091  0  3.633782  0  0  0.05884  0  3.887672  0  0  0.06305  0  3.904984  0  0  0.068235  0.055753  0  3.876663  0
C  C41  1  0.85231696  0.65996127  0.22068355  1  0  0.099041  0  3.633507  0  0  0.058789  0  3.887408  0  0  0.062996  0  3.904725  0  0  0.068228  0.055708  0  3.876403  0
C  C42  1  0.35231786  0.84004720  0.77931870  1  0  0.098999  0  3.633875  0  0  0.05882  0  3.887641  0  0  0.063032  0  3.904958  0  0  0.068258  0.055732  0  3.876634  0
C  C43  1  0.14767821  0.15995210  0.27931871  1  0  0.098989  0  3.63382  0  0  0.058846  0  3.887567  0  0  0.063057  0  3.90489  0  0  0.068278  0.05576  0  3.876555  0
C  C44  1  0.42261124  0.35254396  0.82701738  1  0  0.110924  0  3.620767  0  0  0.074831  0  3.882101  0  0  0.079942  0  3.896222  0  0  0.069195  0.071742  0  3.872227  0
C  C45  1  0.07739290  0.64745333  0.32701660  1  0  0.11082  0  3.620811  0  0  0.074768  0  3.882129  0  0  0.079897  0  3.896235  0  0  0.069151  0.071673  0  3.872257  0
C  C46  1  0.57739242  0.85254786  0.67298117  1  0  0.11077  0  3.62081  0  0  0.074727  0  3.882163  0  0  0.079825  0  3.896255  0  0  0.06911  0.071647  0  3.872295  0
C  C47  1  0.92260684  0.14745865  0.17298202  1  0  0.110752  0  3.620692  0  0  0.074597  0  3.882219  0  0  0.07971  0  3.896312  0  0  0.069075  0.071515  0  3.872355  0
C  C48  1  0.30395045  0.44623981  0.78366092  1  0  0.107145  0  3.643639  0  0  0.078878  0  3.900086  0  0  0.080228  0  3.91738  0  0  0.065989  0.077893  0  3.888464  0
C  C49  1  0.19605010  0.55375847  0.28365969  1  0  0.107015  0  3.643878  0  0  0.078799  0  3.90027  0  0  0.080147  0  3.91756  0  0  0.065955  0.077818  0  3.888647  0
C  C50  1  0.69605323  0.94624172  0.71633888  1  0  0.107163  0  3.643668  0  0  0.078904  0  3.900101  0  0  0.080251  0  3.917401  0  0  0.065959  0.077926  0  3.888474  0
C  C51  1  0.80393895  0.05376175  0.21634010  1  0  0.107341  0  3.643541  0  0  0.079077  0  3.899987  0  0  0.080429  0  3.917281  0  0  0.066062  0.078093  0  3.888368  0
C  C52  1  0.88992884  0.64688325  0.77394762  1  0  0.292138  0  4.060762  0  0  0.273031  0  4.367258  0  0  0.295181  0  4.382936  0  0  0.136712  0.258075  0  4.355787  0
C  C53  1  0.61006355  0.35311615  0.27395630  1  0  0.291896  0  4.060594  0  0  0.272795  0  4.367102  0  0  0.294945  0  4.382784  0  0  0.136466  0.257841  0  4.355631  0
C  C54  1  0.11007020  0.14688742  0.72604843  1  0  0.291925  0  4.060622  0  0  0.272818  0  4.367138  0  0  0.294968  0  4.382822  0  0  0.136527  0.257865  0  4.355668  0
C  C55  1  0.38993166  0.85310047  0.22604421  1  0  0.292039  0  4.060348  0  0  0.272939  0  4.366863  0  0  0.295092  0  4.382543  0  0  0.136574  0.257985  0  4.355389  0
S  S56  1  0.78538784  0.64575586  0.86278718  1  0  -0.34209  0  2.019543  0  0  -0.322687  0  2.292173  0  0  -0.336628  0  2.288329  0  0  -0.161922  -0.312705  0  2.295276  0
S  S57  1  0.71461930  0.35424777  0.36278823  1  0  -0.341934  0  2.019736  0  0  -0.322526  0  2.292348  0  0  -0.336464  0  2.288506  0  0  -0.16181  -0.312546  0  2.295449  0
S  S58  1  0.21461882  0.14574861  0.63721190  1  0  -0.341955  0  2.019629  0  0  -0.322546  0  2.29225  0  0  -0.336486  0  2.288411  0  0  -0.161819  -0.312567  0  2.295349  0
S  S59  1  0.28539421  0.85425465  0.13721047  1  0  -0.341846  0  2.019775  0  0  -0.32245  0  2.292402  0  0  -0.336386  0  2.288563  0  0  -0.161746  -0.312471  0  2.295503  0
N  N60  1  0.36044868  0.48904270  0.71011755  1  0  -0.297144  0  3.284232  0  0  -0.240086  0  3.548012  0  0  -0.251814  0  3.566245  0  0  -0.289965  -0.232017  0  3.536767  0
N  N61  1  0.13955964  0.51095239  0.21012074  1  0  -0.297125  0  3.284182  0  0  -0.240112  0  3.547957  0  0  -0.25184  0  3.566188  0  0  -0.289997  -0.232045  0  3.536713  0
N  N62  1  0.63955805  0.98904571  0.78988045  1  0  -0.297101  0  3.284269  0  0  -0.240108  0  3.54809  0  0  -0.251828  0  3.566315  0  0  -0.289974  -0.232041  0  3.53685  0
N  N63  1  0.86043550  0.01095577  0.28987722  1  0  -0.297355  0  3.284412  0  0  -0.240334  0  3.548189  0  0  -0.252054  0  3.566414  0  0  -0.290054  -0.232266  0  3.536949  0
N  N64  1  0.59285077  0.29870506  0.79488910  1  0  -0.279575  0  3.255386  0  0  -0.209501  0  3.523805  0  0  -0.224398  0  3.541222  0  0  -0.296411  -0.199312  0  3.512644  0
N  N65  1  0.90715182  0.70129849  0.29489263  1  0  -0.279313  0  3.255066  0  0  -0.209374  0  3.523627  0  0  -0.224274  0  3.541037  0  0  -0.296402  -0.19918  0  3.512457  0
N  N66  1  0.40715288  0.79870690  0.70511004  1  0  -0.279365  0  3.255411  0  0  -0.20936  0  3.523835  0  0  -0.224259  0  3.541256  0  0  -0.296351  -0.199166  0  3.512665  0
N  N67  1  0.09285098  0.20129335  0.20510722  1  0  -0.279349  0  3.255226  0  0  -0.209387  0  3.523775  0  0  -0.224282  0  3.541185  0  0  -0.296394  -0.199194  0  3.512604  0
N  N68  1  0.96784597  0.64814061  0.70889369  1  0  -0.583167  0  2.937322  0  0  -0.525633  0  3.234327  0  0  -0.548408  0  3.238042  0  0  -0.408114  -0.509645  0  3.231086  0
N  N69  1  0.53216314  0.35186491  0.20889236  1  0  -0.583068  0  2.936794  0  0  -0.525536  0  3.233771  0  0  -0.548313  0  3.237491  0  0  -0.407968  -0.509555  0  3.230534  0
N  N70  1  0.03217136  0.14813143  0.79111326  1  0  -0.583103  0  2.936983  0  0  -0.525565  0  3.233963  0  0  -0.548345  0  3.237692  0  0  -0.408027  -0.509585  0  3.230727  0
N  N71  1  0.46784122  0.85186582  0.29111299  1  0  -0.583359  0  2.936709  0  0  -0.525821  0  3.233681  0  0  -0.548604  0  3.237407  0  0  -0.408145  -0.509831  0  3.23044  0
O  O72  1  0.50285389  0.59655643  0.57078051  1  0  -0.633568  0  2.07474  0  0  -0.555604  0  2.308425  0  0  -0.584714  0  2.29717  0  0  -0.297163  -0.535265  0  2.315681  0
O  O73  1  0.99715227  0.40343759  0.07078300  1  0  -0.633517  0  2.074646  0  0  -0.555528  0  2.308385  0  0  -0.584628  0  2.297116  0  0  -0.297149  -0.5352  0  2.315652  0
O  O74  1  0.49715428  0.09655679  0.92921795  1  0  -0.633553  0  2.074723  0  0  -0.555585  0  2.308455  0  0  -0.584695  0  2.297193  0  0  -0.297162  -0.53525  0  2.315718  0
O  O75  1  0.00283991  0.90343648  0.42921753  1  0  -0.633383  0  2.074383  0  0  -0.555481  0  2.308239  0  0  -0.584568  0  2.29692  0  0  -0.297124  -0.535146  0  2.315501  0
O  O76  1  0.74735837  0.43118093  0.56412841  1  0  -0.599037  0  1.98034  0  0  -0.550221  0  2.19996  0  0  -0.573258  0  2.189409  0  0  -0.313115  -0.533969  0  2.206691  0
O  O77  1  0.75263574  0.56881721  0.06413062  1  0  -0.599117  0  1.980415  0  0  -0.550265  0  2.200095  0  0  -0.573307  0  2.189546  0  0  -0.313138  -0.534012  0  2.206824  0
O  O78  1  0.25263311  0.93117886  0.93587017  1  0  -0.599135  0  1.980224  0  0  -0.550306  0  2.199887  0  0  -0.573345  0  2.189331  0  0  -0.313175  -0.534052  0  2.206619  0
O  O79  1  0.24735636  0.06881855  0.43586979  1  0  -0.599125  0  1.980363  0  0  -0.550273  0  2.200038  0  0  -0.573314  0  2.189483  0  0  -0.31316  -0.534022  0  2.206768  0
O  O80  1  0.09995290  0.54103613  0.53449203  1  0  -0.802203  0  1.874398  0  0  -0.74204  0  2.072101  0  0  -0.763079  0  2.04278  0  0  -0.562265  -0.727323  0  2.093496  0
O  O81  1  0.40004875  0.45896496  0.03449186  1  0  -0.802207  0  1.874399  0  0  -0.742027  0  2.072132  0  0  -0.763078  0  2.042786  0  0  -0.562238  -0.727308  0  2.093523  0
O  O82  1  0.90005069  0.04103559  0.96550882  1  0  -0.802201  0  1.874405  0  0  -0.742032  0  2.072096  0  0  -0.763071  0  2.042777  0  0  -0.562244  -0.727312  0  2.093485  0
O  O83  1  0.59994802  0.95896403  0.46550808  1  0  -0.802225  0  1.874406  0  0  -0.742061  0  2.072087  0  0  -0.763102  0  2.042771  0  0  -0.562259  -0.727343  0  2.093475  0
O  O84  1  0.13552327  0.83343002  0.57393570  1  0  -0.833092  0  1.953353  0  0  -0.766108  0  2.157353  0  0  -0.787044  0  2.122108  0  0  -0.586791  -0.751228  0  2.182395  0
O  O85  1  0.36447290  0.16657214  0.07393736  1  0  -0.833167  0  1.953324  0  0  -0.766187  0  2.157319  0  0  -0.787118  0  2.122076  0  0  -0.586776  -0.751306  0  2.182367  0
O  O86  1  0.86447276  0.33343149  0.92606466  1  0  -0.83306  0  1.953368  0  0  -0.766081  0  2.157383  0  0  -0.787011  0  2.12214  0  0  -0.586761  -0.751197  0  2.182427  0
O  O87  1  0.63552685  0.66656808  0.42606248  1  0  -0.833077  0  1.953354  0  0  -0.766091  0  2.15733  0  0  -0.787022  0  2.12209  0  0  -0.586753  -0.751214  0  2.182376  0
