# generated using pymatgen
data_CuH8C9N2Cl
_symmetry_space_group_name_H-M   'P 1'
_cell_length_a   3.71942212
_cell_length_b   7.37965628
_cell_length_c   15.35236807
_cell_angle_alpha   94.21028548
_cell_angle_beta   89.99952255
_cell_angle_gamma   89.99998752
_symmetry_Int_Tables_number   1
_chemical_formula_structural   CuH8C9N2Cl
_chemical_formula_sum   'Cu2 H16 C18 N4 Cl2'
_cell_volume   420.25546457
_cell_formula_units_Z   2
loop_
 _symmetry_equiv_pos_site_id
 _symmetry_equiv_pos_as_xyz
  1  'x, y, z'
loop_
 _atom_site_type_symbol
 _atom_site_label
 _atom_site_symmetry_multiplicity
 _atom_site_fract_x
 _atom_site_fract_y
 _atom_site_fract_z
 _atom_site_occupancy
 _atom_site_hle17_bader_spin_density
 _atom_site_hle17_ddec_charge
 _atom_site_hle17_ddec_spin_density
 _atom_site_hle17_ddec_sum_bond_order
 _atom_site_hle17_magmom
 _atom_site_hse06_10hf_bader_spin_density
 _atom_site_hse06_10hf_ddec_charge
 _atom_site_hse06_10hf_ddec_spin_density
 _atom_site_hse06_10hf_ddec_sum_bond_order
 _atom_site_hse06_10hf_magmom
 _atom_site_hse06_bader_spin_density
 _atom_site_hse06_ddec_charge
 _atom_site_hse06_ddec_spin_density
 _atom_site_hse06_ddec_sum_bond_order
 _atom_site_hse06_magmom
 _atom_site_pbe_bader_spin_density
 _atom_site_pbe_cm5_charge
 _atom_site_pbe_ddec_charge
 _atom_site_pbe_ddec_spin_density
 _atom_site_pbe_ddec_sum_bond_order
 _atom_site_pbe_magmom
Cu  Cu0  1  0.02463933  0.55436952  0.59575968  1  0  0.461997  0  1.827331  0  0  0.36671  0  2.30092  0  0  0.37474  0  2.248954  0  0  0.362108  0.363517  0  2.335191  0
Cu  Cu1  1  0.52463943  0.44563448  0.40423821  1  0  0.461984  0  1.827478  0  0  0.366702  0  2.301086  0  0  0.374737  0  2.249114  0  0  0.362143  0.363501  0  2.33546  0
H  H2  1  0.27340987  0.84318875  0.54295078  1  0  0.315608  0  0.933954  0  0  0.295413  0  1.007934  0  0  0.304573  0  0.998153  0  0  0.279058  0.28863  0  1.015348  0
H  H3  1  0.77341393  0.15682057  0.45704873  1  0  0.315641  0  0.934051  0  0  0.295453  0  1.008012  0  0  0.304611  0  0.998236  0  0  0.279082  0.288667  0  1.01544  0
H  H4  1  0.36424367  0.07184342  0.57688100  1  0  0.323396  0  0.937756  0  0  0.307008  0  0.999689  0  0  0.313052  0  0.996679  0  0  0.278487  0.302781  0  1.001728  0
H  H5  1  0.86424276  0.92816314  0.42311886  1  0  0.323333  0  0.937615  0  0  0.306915  0  0.9996  0  0  0.312959  0  0.996592  0  0  0.27847  0.302692  0  1.001636  0
H  H6  1  0.23973279  0.19977392  0.71842474  1  0  0.114579  0  0.96163  0  0  0.125629  0  1.021642  0  0  0.128972  0  1.021064  0  0  0.100734  0.123136  0  1.022356  0
H  H7  1  0.73971495  0.80022991  0.28157854  1  0  0.114596  0  0.961582  0  0  0.125649  0  1.021609  0  0  0.12896  0  1.021071  0  0  0.100752  0.123152  0  1.022335  0
H  H8  1  0.02443892  0.15143139  0.86901088  1  0  0.086387  0  0.951894  0  0  0.102672  0  1.010061  0  0  0.105004  0  1.007773  0  0  0.103501  0.100884  0  1.01185  0
H  H9  1  0.52442581  0.84856300  0.13099250  1  0  0.086411  0  0.951866  0  0  0.102677  0  1.01005  0  0  0.105023  0  1.007746  0  0  0.103478  0.10089  0  1.011842  0
H  H10  1  0.77197780  0.93847519  0.97268996  1  0  0.078539  0  0.980763  0  0  0.090566  0  1.045562  0  0  0.09267  0  1.044745  0  0  0.094909  0.089056  0  1.046157  0
H  H11  1  0.27197996  0.06151371  0.02731137  1  0  0.078531  0  0.980711  0  0  0.090559  0  1.045509  0  0  0.092665  0  1.044687  0  0  0.094906  0.089048  0  1.046106  0
H  H12  1  0.54867903  0.62955061  0.00161455  1  0  0.07712  0  0.985958  0  0  0.087374  0  1.053313  0  0  0.089571  0  1.053288  0  0  0.092212  0.085807  0  1.053432  0
H  H13  1  0.04868517  0.37043842  0.99838401  1  0  0.077098  0  0.985893  0  0  0.087353  0  1.05326  0  0  0.089534  0  1.053251  0  0  0.092194  0.085786  0  1.053377  0
H  H14  1  0.54827537  0.38416591  0.88159164  1  0  0.07641  0  0.960655  0  0  0.088678  0  1.022492  0  0  0.090655  0  1.021894  0  0  0.095646  0.087238  0  1.022988  0
H  H15  1  0.04828494  0.61582725  0.11840382  1  0  0.076497  0  0.960549  0  0  0.08873  0  1.022432  0  0  0.090708  0  1.021834  0  0  0.095649  0.087289  0  1.02293  0
H  H16  1  0.77280180  0.44378036  0.73415705  1  0  0.089893  0  0.995324  0  0  0.09513  0  1.072202  0  0  0.09998  0  1.067609  0  0  0.086084  0.091524  0  1.07568  0
H  H17  1  0.27279869  0.55622086  0.26583888  1  0  0.089877  0  0.995354  0  0  0.095145  0  1.072201  0  0  0.099992  0  1.067611  0  0  0.086087  0.091538  0  1.075698  0
C  C18  1  0.14004840  0.92031353  0.67000311  1  0  0.503101  0  3.816122  0  0  0.471915  0  4.077143  0  0  0.494373  0  4.08681  0  0  0.228084  0.457029  0  4.070391  0
C  C19  1  0.64004579  0.07969038  0.32999778  1  0  0.503064  0  3.816076  0  0  0.471877  0  4.077114  0  0  0.494336  0  4.086777  0  0  0.228073  0.456997  0  4.07037  0
C  C20  1  0.14070105  0.06823325  0.73576957  1  0  -0.211801  0  3.701093  0  0  -0.224109  0  3.949856  0  0  -0.233803  0  3.968314  0  0  -0.09645  -0.218198  0  3.93793  0
C  C21  1  0.64068097  0.93176934  0.26422866  1  0  -0.211721  0  3.700998  0  0  -0.224041  0  3.949755  0  0  -0.233711  0  3.96824  0  0  -0.096426  -0.218127  0  3.937845  0
C  C22  1  0.02327561  0.04047621  0.81790252  1  0  -0.047488  0  3.763751  0  0  -0.073276  0  4.01222  0  0  -0.066966  0  4.028652  0  0  -0.07677  -0.077276  0  4.001096  0
C  C23  1  0.52325273  0.95952094  0.18209902  1  0  -0.047669  0  3.763828  0  0  -0.073401  0  4.012336  0  0  -0.0671  0  4.028756  0  0  -0.076835  -0.077401  0  4.001224  0
C  C24  1  0.89774950  0.86610947  0.83760846  1  0  -0.002759  0  3.814083  0  0  0.01795  0  4.037081  0  0  0.011487  0  4.063973  0  0  -0.017205  0.022079  0  4.018882  0
C  C25  1  0.39773927  0.13388618  0.16239285  1  0  -0.002524  0  3.813954  0  0  0.018055  0  4.037119  0  0  0.011591  0  4.064017  0  0  -0.017132  0.022189  0  4.018926  0
C  C26  1  0.77186574  0.82859393  0.92116421  1  0  -0.110939  0  3.775725  0  0  -0.130802  0  4.024367  0  0  -0.131733  0  4.046921  0  0  -0.095183  -0.129863  0  4.0089  0
C  C27  1  0.27186080  0.17140177  0.07883672  1  0  -0.111034  0  3.775705  0  0  -0.130864  0  4.024384  0  0  -0.131792  0  4.046934  0  0  -0.095221  -0.129923  0  4.008916  0
C  C28  1  0.64894055  0.65766399  0.93734297  1  0  -0.090557  0  3.810644  0  0  -0.106049  0  4.063728  0  0  -0.110624  0  4.08808  0  0  -0.1045  -0.103061  0  4.047159  0
C  C29  1  0.14894136  0.34233040  0.06265753  1  0  -0.090468  0  3.810586  0  0  -0.105945  0  4.063647  0  0  -0.110506  0  4.088006  0  0  -0.104453  -0.102958  0  4.047076  0
C  C30  1  0.64962458  0.51861240  0.86940239  1  0  -0.054625  0  3.792409  0  0  -0.066206  0  4.039681  0  0  -0.066324  0  4.061926  0  0  -0.093091  -0.065844  0  4.024472  0
C  C31  1  0.14961775  0.48138477  0.13059496  1  0  -0.054641  0  3.792452  0  0  -0.066223  0  4.039783  0  0  -0.06634  0  4.062024  0  0  -0.093029  -0.065856  0  4.024571  0
C  C32  1  0.77398927  0.55084650  0.78709539  1  0  -0.154517  0  3.728293  0  0  -0.174386  0  3.981337  0  0  -0.178909  0  3.999422  0  0  -0.099723  -0.171607  0  3.969513  0
C  C33  1  0.27397986  0.44915471  0.21290119  1  0  -0.154602  0  3.728561  0  0  -0.174443  0  3.981506  0  0  -0.178967  0  3.999596  0  0  -0.099824  -0.171666  0  3.969701  0
C  C34  1  0.90015962  0.72463303  0.76895132  1  0  0.22517  0  3.759214  0  0  0.221749  0  3.990672  0  0  0.230165  0  4.012831  0  0  0.102949  0.216181  0  3.975848  0
C  C35  1  0.40015517  0.27537217  0.23104840  1  0  0.22516  0  3.759178  0  0  0.221777  0  3.990672  0  0  0.230193  0  4.012832  0  0  0.103006  0.21621  0  3.975859  0
N  N36  1  0.02175834  0.75341816  0.68613323  1  0  -0.468642  0  3.293296  0  0  -0.399908  0  3.59983  0  0  -0.418611  0  3.602276  0  0  -0.385363  -0.387995  0  3.597697  0
N  N37  1  0.52175071  0.24658850  0.31386868  1  0  -0.468731  0  3.293346  0  0  -0.400011  0  3.599904  0  0  -0.418713  0  3.602347  0  0  -0.385422  -0.388107  0  3.597834  0
N  N38  1  0.25899019  0.94891726  0.58924956  1  0  -0.661619  0  3.133904  0  0  -0.6216  0  3.36359  0  0  -0.642024  0  3.359663  0  0  -0.587337  -0.607674  0  3.366394  0
N  N39  1  0.75898773  0.05109068  0.41075123  1  0  -0.661532  0  3.13385  0  0  -0.621483  0  3.363569  0  0  -0.641903  0  3.359647  0  0  -0.587329  -0.607559  0  3.366385  0
Cl  Cl40  1  0.52074382  0.36632050  0.56694661  1  0  -0.54927  0  1.50001  0  0  -0.474473  0  1.90337  0  0  -0.486271  0  1.858541  0  0  -0.268156  -0.466357  0  1.934157  0
Cl  Cl41  1  0.02074342  0.63367806  0.43305172  1  0  -0.549257  0  1.500015  0  0  -0.474469  0  1.903419  0  0  -0.486252  0  1.858542  0  0  -0.26816  -0.466349  0  1.934252  0
