# generated using pymatgen
data_Al3H19C48I6(Br3O7)2
_symmetry_space_group_name_H-M   'P 1'
_cell_length_a   13.85593151
_cell_length_b   14.19411701
_cell_length_c   26.74824505
_cell_angle_alpha   87.37404960
_cell_angle_beta   89.50294391
_cell_angle_gamma   64.01924167
_symmetry_Int_Tables_number   1
_chemical_formula_structural   Al3H19C48I6(Br3O7)2
_chemical_formula_sum   'Al6 H38 C96 I12 Br12 O28'
_cell_volume   4723.66883441
_cell_formula_units_Z   2
loop_
 _symmetry_equiv_pos_site_id
 _symmetry_equiv_pos_as_xyz
  1  'x, y, z'
loop_
 _atom_site_type_symbol
 _atom_site_label
 _atom_site_symmetry_multiplicity
 _atom_site_fract_x
 _atom_site_fract_y
 _atom_site_fract_z
 _atom_site_occupancy
 _atom_site_pbe_bader_charge
 _atom_site_pbe_bader_spin_density
 _atom_site_pbe_cm5_charge
 _atom_site_pbe_ddec_charge
 _atom_site_pbe_ddec_spin_density
 _atom_site_pbe_ddec_sum_bond_order
 _atom_site_pbe_magmom
Al  Al0  1  0.56716776  0.61061447  0.49598326  1  2.495231  0  0.401812  1.685259  0  2.543996  0
Al  Al1  1  0.60596085  0.81622658  0.49374350  1  2.480194  0  0.5015  1.655089  0  2.518259  0
Al  Al2  1  0.79931683  0.60747037  0.49373587  1  2.478844  0  0.504923  1.656389  0  2.513462  0
Al  Al3  1  0.12216310  0.03032869  0.99124462  1  2.495175  0  0.399236  1.694864  0  2.512759  0
Al  Al4  1  0.06162854  0.84171856  0.98210323  1  2.482177  0  0.493016  1.66379  0  2.496736  0
Al  Al5  1  0.88127988  0.05801323  0.98430953  1  2.483272  0  0.49806  1.671335  0  2.497395  0
H  H6  1  0.66007183  0.80575076  0.26546912  1  0.05122  0  0.083953  0.092499  0  1.038688  0
H  H7  1  0.81032773  0.47082190  0.23883743  1  0.093525  0  0.073219  0.088539  0  1.066494  0
H  H8  1  0.47397857  0.86979508  0.25262413  1  0.035037  0  0.082798  0.092685  0  1.036754  0
H  H9  1  0.67809555  0.78496721  0.18027852  1  0.110649  0  0.074085  0.06773  0  1.089566  0
H  H10  1  0.80641214  0.38363923  0.16837657  1  0.124334  0  0.093586  0.098075  0  1.001305  0
H  H11  1  0.42324913  0.86717466  0.17116476  1  0.098365  0  0.080167  0.077553  0  1.06168  0
H  H12  1  0.72835934  0.02371043  0.17935310  1  0.108915  0  0.094706  0.101924  0  1.011717  0
H  H13  1  0.06362116  0.17991737  0.23000941  1  0.129415  0  0.08089  0.077946  0  1.074875  0
H  H14  1  0.41022585  0.61926785  0.21059750  1  0.120829  0  0.096008  0.103534  0  1.006196  0
H  H15  1  0.92476379  0.62455978  0.62666782  1  0.104045  0  0.103234  0.11422  0  1.032893  0
H  H16  1  0.61247389  0.49821886  0.64166153  1  0.153384  0  0.10267  0.113993  0  1.035198  0
H  H17  1  0.48700273  0.92599214  0.63367727  1  0.104941  0  0.10019  0.110241  0  1.038757  0
H  H18  1  0.99505005  0.59453554  0.80281577  1  0.123693  0  0.094156  0.113062  0  1.042275  0
H  H19  1  0.59988306  0.42744676  0.81778154  1  0.097494  0  0.092934  0.111659  0  1.046269  0
H  H20  1  0.43416898  0.99004436  0.80831910  1  0.107289  0  0.092859  0.109309  0  1.050212  0
H  H21  1  0.71554291  0.11852887  0.74765705  1  0.108945  0  0.09027  0.109157  0  1.060711  0
H  H22  1  0.12938386  0.18846442  0.75939981  1  0.09764  0  0.088455  0.106679  0  1.068122  0
H  H23  1  0.18336330  0.68495570  0.75983169  1  0.133649  0  0.088549  0.108543  0  1.063364  0
H  H24  1  0.78595760  0.69641379  0.27322502  1  0.07969  0  0.090757  0.109862  0  1.00379  0
H  H25  1  0.69712634  0.45346846  0.25765246  1  0.068258  0  0.07433  0.08769  0  1.091809  0
H  H26  1  0.34573551  0.97198634  0.26243135  1  0.100466  0  0.094277  0.114501  0  0.988204  0
H  H27  1  0.73181811  0.95407079  0.59383242  1  0.120973  0  0.103216  0.111378  0  1.031634  0
H  H28  1  0.94811414  0.36064139  0.60648526  1  0.101079  0  0.100661  0.109473  0  1.035223  0
H  H29  1  0.33838233  0.72440639  0.60432363  1  0.128895  0  0.10648  0.118533  0  1.026808  0
H  H30  1  0.94499676  0.85661330  0.27159683  1  0.085953  0  0.089087  0.104107  0  1.022411  0
H  H31  1  0.84762293  0.20126397  0.33280008  1  0.095981  0  0.102281  0.124876  0  0.972867  0
H  H32  1  0.21767643  0.79938553  0.30722603  1  0.091106  0  0.102902  0.125828  0  0.967577  0
H  H33  1  0.95650924  0.72850974  0.26548974  1  0.046382  0  0.097214  0.118619  0  0.97838  0
H  H34  1  0.73116379  0.27504199  0.29576597  1  0.074698  0  0.101507  0.124338  0  0.97556  0
H  H35  1  0.19259844  0.92537004  0.28109234  1  0.069898  0  0.08603  0.109549  0  1.029945  0
H  H36  1  0.96055971  0.75445717  0.18005022  1  0.108787  0  0.092855  0.085455  0  1.021449  0
H  H37  1  0.81466384  0.14325694  0.23854294  1  0.097841  0  0.091618  0.07872  0  1.032047  0
H  H38  1  0.15597337  0.87033398  0.20659789  1  0.127452  0  0.081514  0.063837  0  1.081428  0
H  H39  1  0.77168723  0.00524145  0.26147789  1  0.064622  0  0.095775  0.100166  0  0.994798  0
H  H40  1  0.01292177  0.23237952  0.30845813  1  0.091061  0  0.099069  0.107046  0  0.98392  0
H  H41  1  0.39174619  0.65517551  0.29242176  1  0.112428  0  0.106215  0.111436  0  0.972017  0
H  H42  1  0.49125257  0.49970968  0.52430878  1  0.578522  0  0.291366  0.381015  0  0.926802  0
H  H43  1  0.19813472  0.14592012  0.97438254  1  0.579949  0  0.281737  0.372714  0  0.947763  0
C  C44  1  0.76003820  0.48904077  0.42622201  1  1.649274  0  0.27305  0.701333  0  4.16303  0
C  C45  1  0.45928789  0.79897376  0.42842637  1  1.653206  0  0.280883  0.713025  0  4.160047  0
C  C46  1  0.76620223  0.78125857  0.42212474  1  1.650816  0  0.282905  0.726526  0  4.141515  0
C  C47  1  0.70998521  0.96267159  0.19726037  1  -0.153606  0  -0.101926  -0.070099  0  3.633651  0
C  C48  1  0.99142845  0.25502218  0.22874701  1  -0.190436  0  -0.10274  -0.062675  0  3.623546  0
C  C49  1  0.42310698  0.68860320  0.21673199  1  -0.17579  0  -0.101681  -0.070874  0  3.655619  0
C  C50  1  0.72556785  0.96086690  0.25461283  1  -0.128393  0  -0.100912  -0.064433  0  3.651654  0
C  C51  1  0.96785739  0.29810132  0.28185783  1  -0.143238  0  -0.101314  -0.066828  0  3.645359  0
C  C52  1  0.42814359  0.70170165  0.27348292  1  -0.164986  0  -0.100318  -0.078595  0  3.652254  0
C  C53  1  0.79450226  0.85849455  0.12307587  1  -0.184739  0  -0.018456  0.000629  0  4.033739  0
C  C54  1  0.91782331  0.18621860  0.16175734  1  -0.243009  0  -0.040791  -0.05072  0  4.041268  0
C  C55  1  0.30236766  0.77720797  0.14188707  1  -0.535004  0  -0.031295  -0.031583  0  4.052105  0
C  C56  1  0.79467636  0.83219555  0.32922792  1  -0.420619  0  -0.012997  0.006802  0  3.984959  0
C  C57  1  0.81663906  0.39370286  0.34007943  1  -0.248289  0  -0.023996  -0.014914  0  3.984334  0
C  C58  1  0.37838983  0.83295286  0.33811240  1  -0.555875  0  -0.021402  -0.011972  0  4.00556  0
C  C59  1  0.79310591  0.80939971  0.37349981  1  0.16888  0  -0.044363  -0.210461  0  3.923658  0
C  C60  1  0.79012331  0.43296124  0.38046673  1  -0.015572  0  -0.042466  -0.191183  0  3.923418  0
C  C61  1  0.39998778  0.83411356  0.38192568  1  0.293625  0  -0.047606  -0.212115  0  3.936267  0
C  C62  1  0.21153895  0.86068053  0.91771579  1  1.586498  0  0.263474  0.649472  0  4.067294  0
C  C63  1  0.89439971  0.90866681  0.90914765  1  1.593169  0  0.266375  0.65944  0  4.06178  0
C  C64  1  0.93265291  0.18999086  0.92290322  1  1.559776  0  0.265806  0.654931  0  4.05295  0
C  C65  1  0.20777657  0.82735906  0.05341067  1  1.653426  0  0.283463  0.714217  0  4.139621  0
C  C66  1  0.86588468  0.89225888  0.03795495  1  1.641992  0  0.287068  0.72713  0  4.140649  0
C  C67  1  0.95072831  0.12963384  0.06710090  1  1.64146  0  0.274764  0.709194  0  4.140311  0
C  C68  1  0.88910484  0.70467075  0.63901686  1  0.028648  0  -0.077303  -0.123641  0  3.920567  0
C  C69  1  0.69563417  0.45178829  0.65357662  1  -0.079973  0  -0.079106  -0.128931  0  3.921301  0
C  C70  1  0.43933971  0.88611625  0.64680575  1  -0.000428  0  -0.080416  -0.127612  0  3.925099  0
C  C71  1  0.90124886  0.72373475  0.68887866  1  0.032762  0  -0.00981  0.029324  0  4.019825  0
C  C72  1  0.71943216  0.41408900  0.70345392  1  0.071367  0  -0.010353  0.033022  0  4.012408  0
C  C73  1  0.40482677  0.89444021  0.69648886  1  0.045503  0  -0.009613  0.032325  0  4.015012  0
C  C74  1  0.90072633  0.76341980  0.79281172  1  -0.002458  0  -0.014077  0.037971  0  4.034147  0
C  C75  1  0.77271231  0.35005036  0.80706677  1  0.052922  0  -0.016791  0.033722  0  4.042838  0
C  C76  1  0.35678285  0.88728301  0.80064562  1  0.010766  0  -0.016177  0.034088  0  4.043801  0
C  C77  1  0.74875336  0.48982145  0.56861406  1  1.555801  0  0.271286  0.643897  0  4.073916  0
C  C78  1  0.47356443  0.79589802  0.56570680  1  1.55694  0  0.271913  0.640077  0  4.078162  0
C  C79  1  0.79291966  0.76218661  0.55720885  1  1.546409  0  0.281948  0.654075  0  4.06415  0
C  C80  1  0.95422272  0.65921267  0.77562901  1  0.02861  0  -0.103496  -0.18765  0  4.014402  0
C  C81  1  0.66360031  0.40765610  0.79046714  1  0.031953  0  -0.107462  -0.19209  0  4.018455  0
C  C82  1  0.41085460  0.94713650  0.78209761  1  0.05295  0  -0.105246  -0.188931  0  4.019303  0
C  C83  1  0.95749998  0.64107338  0.72591171  1  -0.113529  0  -0.012528  0.073018  0  3.958275  0
C  C84  1  0.63859995  0.43599004  0.74114221  1  -0.10022  0  -0.012632  0.073898  0  3.951077  0
C  C85  1  0.43066420  0.95267989  0.73232268  1  -0.12625  0  -0.014296  0.074679  0  3.954432  0
C  C86  1  0.89679232  0.78563179  0.84370097  1  -0.004958  0  -0.001968  0.059722  0  3.875391  0
C  C87  1  0.80181643  0.31687533  0.85755217  1  -0.142955  0  -0.007829  0.047736  0  3.886039  0
C  C88  1  0.33274776  0.88131990  0.85164487  1  -0.060622  0  -0.00539  0.047051  0  3.891702  0
C  C89  1  0.85737121  0.88946349  0.85975732  1  -0.003349  0  -0.023648  -0.122228  0  3.943782  0
C  C90  1  0.90896609  0.25180052  0.87316189  1  0.062466  0  -0.023982  -0.121857  0  3.932885  0
C  C91  1  0.27009987  0.83044914  0.86899703  1  0.042555  0  -0.02374  -0.11903  0  3.939162  0
C  C92  1  0.78066889  0.89077342  0.62031638  1  -0.053598  0  -0.075372  -0.119368  0  3.923312  0
C  C93  1  0.88472206  0.37384127  0.63347461  1  0.015775  0  -0.080773  -0.129396  0  3.936057  0
C  C94  1  0.35477476  0.77273849  0.63024965  1  -0.000695  0  -0.076694  -0.124377  0  3.9247  0
C  C95  1  0.79520394  0.91357980  0.66921634  1  0.059284  0  -0.008209  0.031765  0  4.019697  0
C  C96  1  0.91170896  0.33060068  0.68246514  1  -0.024222  0  -0.011924  0.025849  0  4.030422  0
C  C97  1  0.31599449  0.78167184  0.67909988  1  0.00677  0  -0.012345  0.026033  0  4.032728  0
C  C98  1  0.85112565  0.82919488  0.70535229  1  -0.001883  0  0.013852  0.033818  0  3.866795  0
C  C99  1  0.82920363  0.35390248  0.71924640  1  -0.034059  0  0.011348  0.029398  0  3.867795  0
C  C100  1  0.34565063  0.83837301  0.71415831  1  -0.034144  0  0.011264  0.0296  0  3.87721  0
C  C101  1  0.75107061  0.01838272  0.68653388  1  -0.20026  0  -0.014933  0.07052  0  3.965026  0
C  C102  1  0.02013296  0.26663528  0.69928848  1  -0.158601  0  -0.016886  0.071128  0  3.962241  0
C  C103  1  0.25195147  0.73108712  0.69755817  1  -0.123948  0  -0.01669  0.072639  0  3.959103  0
C  C104  1  0.75210513  0.03806697  0.73583435  1  0.072265  0  -0.105681  -0.188624  0  4.0199  0
C  C105  1  0.04590237  0.23566275  0.74829246  1  0.076923  0  -0.106976  -0.187977  0  4.01092  0
C  C106  1  0.23019907  0.72597051  0.74712781  1  0.009918  0  -0.109147  -0.191564  0  4.016641  0
C  C107  1  0.79996568  0.95472728  0.77295293  1  0.000504  0  -0.013232  0.054322  0  4.019332  0
C  C108  1  0.96554603  0.26337069  0.78599863  1  0.06088  0  -0.01513  0.055771  0  4.015065  0
C  C109  1  0.26664280  0.77484752  0.78323957  1  0.007027  0  -0.016402  0.05025  0  4.029026  0
C  C110  1  0.74490180  0.77469218  0.25487714  1  -0.035745  0  -0.168695  -0.22128  0  3.843006  0
C  C111  1  0.78174598  0.41098633  0.24800781  1  -0.051474  0  -0.18214  -0.24042  0  3.86951  0
C  C112  1  0.38759315  0.89129656  0.25039227  1  -0.045549  0  -0.170706  -0.233633  0  3.874877  0
C  C113  1  0.85307820  0.84956468  0.75698289  1  0.038099  0  0.007588  0.02142  0  3.896028  0
C  C114  1  0.85581286  0.32072882  0.77066287  1  -0.000663  0  0.003868  0.017422  0  3.901817  0
C  C115  1  0.32053961  0.83569333  0.76591090  1  0.036474  0  0.004829  0.018384  0  3.906517  0
C  C116  1  0.79921288  0.97278841  0.82472445  1  -0.172494  0  -0.034372  0.00602  0  3.789797  0
C  C117  1  0.99076751  0.23365457  0.83746839  1  -0.17312  0  -0.037617  -0.00157  0  3.790656  0
C  C118  1  0.24866319  0.76782421  0.83525182  1  -0.191032  0  -0.035536  0.008581  0  3.788283  0
C  C119  1  0.82503688  0.78710350  0.60580059  1  0.01948  0  -0.011424  -0.031343  0  3.99537  0
C  C120  1  0.77770067  0.43511197  0.61926467  1  0.022214  0  -0.011376  -0.024047  0  3.98011  0
C  C121  1  0.41868764  0.82184919  0.61480054  1  -0.024479  0  -0.012098  -0.026232  0  3.990355  0
C  C122  1  0.90766014  0.81161729  0.25460678  1  -0.019419  0  -0.163237  -0.241618  0  3.851298  0
C  C123  1  0.81899202  0.24508212  0.29697387  1  -0.035737  0  -0.1603  -0.241409  0  3.829872  0
C  C124  1  0.24228409  0.84076922  0.27800369  1  -0.034275  0  -0.162894  -0.239397  0  3.840429  0
C  C125  1  0.90379061  0.82568555  0.19740036  1  -0.025753  0  -0.069187  0.01955  0  3.669777  0
C  C126  1  0.86799318  0.17426684  0.25309405  1  -0.034105  0  -0.067426  0.024021  0  3.678951  0
C  C127  1  0.22696390  0.80964435  0.22576913  1  -0.059068  0  -0.067687  0.030206  0  3.669028  0
C  C128  1  0.81842161  0.86225652  0.07952042  1  0.014521  0  -0.042668  -0.200842  0  3.915668  0
C  C129  1  0.92917015  0.16087108  0.11844438  1  0.045416  0  -0.038587  -0.172972  0  3.916148  0
C  C130  1  0.26687504  0.78725783  0.09962456  1  0.298329  0  -0.036972  -0.183461  0  3.924585  0
C  C131  1  0.79255971  0.84618622  0.27514176  1  0.124372  0  -0.002503  0.16692  0  3.871118  0
C  C132  1  0.84598981  0.34057873  0.29316591  1  0.140193  0  -0.002662  0.179643  0  3.855721  0
C  C133  1  0.36090453  0.81835960  0.28637743  1  0.153883  0  -0.003352  0.172011  0  3.892063  0
C  C134  1  0.75451608  0.77093295  0.19789321  1  -0.164282  0  -0.10804  -0.032448  0  3.661569  0
C  C135  1  0.79597654  0.34442289  0.20274838  1  -0.176332  0  -0.090803  -0.011475  0  3.622724  0
C  C136  1  0.35651105  0.88145626  0.19665192  1  -0.167159  0  -0.103245  -0.03758  0  3.646607  0
C  C137  1  0.78889928  0.85432836  0.17710725  1  0.10622  0  -0.012299  0.100713  0  3.910066  0
C  C138  1  0.89536036  0.23561804  0.20992096  1  0.119631  0  -0.007166  0.107612  0  3.86234  0
C  C139  1  0.32745505  0.78747792  0.19333735  1  0.166819  0  -0.009212  0.107534  0  3.888315  0
I  I140  1  0.86165112  0.61403731  0.17414265  1  0.029309  0  0.045135  -0.08177  0  1.717498  0
I  I141  1  0.65146043  0.32485849  0.18461626  1  0.012002  0  0.041149  -0.072388  0  1.341219  0
I  I142  1  0.23298636  0.02744311  0.16375030  1  0.065156  0  0.084656  -0.008011  0  1.559101  0
I  I143  1  0.69740311  0.12518580  0.84714072  1  0.199273  0  0.134633  0.046107  0  1.673905  0
I  I144  1  0.15488142  0.16721647  0.85809612  1  0.200866  0  0.139584  0.040145  0  1.759535  0
I  I145  1  0.20344262  0.64953015  0.85994806  1  0.176192  0  0.116835  0.022666  0  1.655561  0
I  I146  1  0.58299646  0.04554986  0.29798968  1  0.068893  0  0.051908  -0.043182  0  1.397388  0
I  I147  1  0.03098365  0.40781872  0.30023542  1  0.06164  0  0.040343  -0.055027  0  1.412987  0
I  I148  1  0.58482700  0.63209068  0.30909493  1  0.098576  0  0.121758  0.028797  0  1.683913  0
I  I149  1  0.54926178  0.00688261  0.16694426  1  0.066175  0  0.070406  -0.026698  0  1.531968  0
I  I150  1  0.03813391  0.33872503  0.17008319  1  0.074888  0  0.081409  0.010373  0  1.616491  0
I  I151  1  0.56707606  0.65401591  0.17259184  1  0.050177  0  0.075401  -0.028227  0  1.668453  0
Br  Br152  1  0.93060842  0.67201078  0.89187450  1  -0.023093  0  0.055753  -0.022986  0  1.502509  0
Br  Br153  1  0.69119527  0.37232224  0.90601518  1  -0.031875  0  0.050966  -0.021371  0  1.482116  0
Br  Br154  1  0.39653320  0.93444527  0.89874888  1  -0.007816  0  0.078019  0.013643  0  1.548087  0
Br  Br155  1  0.03811604  0.50161220  0.70582565  1  -0.045492  0  0.048157  -0.043438  0  1.541774  0
Br  Br156  1  0.49084114  0.50865975  0.72265880  1  -0.050106  0  0.042398  -0.048396  0  1.497713  0
Br  Br157  1  0.49555935  0.04049144  0.71028158  1  -0.055462  0  0.036368  -0.058847  0  1.518418  0
Br  Br158  1  0.68552280  0.13526670  0.64013270  1  -0.048576  0  0.040054  -0.038326  0  1.377595  0
Br  Br159  1  0.13455932  0.22424464  0.65255343  1  -0.046799  0  0.032916  -0.046279  0  1.379847  0
Br  Br160  1  0.19658101  0.66677978  0.65216844  1  -0.049731  0  0.039426  -0.045522  0  1.431489  0
Br  Br161  1  0.94945132  0.93276270  0.17170424  1  -0.121593  0  0.032736  -0.074066  0  1.587448  0
Br  Br162  1  0.99486282  0.04697495  0.27823579  1  -0.152444  0  0.020267  -0.105531  0  1.557377  0
Br  Br163  1  0.19482446  0.68611046  0.22857030  1  -0.14777  0  0.006577  -0.097275  0  1.354016  0
O  O164  1  0.48393311  0.70462627  0.44170319  1  -1.215006  0  -0.198507  -0.534879  0  2.313975  0
O  O165  1  0.67618446  0.84671325  0.43935092  1  -1.245456  0  -0.227905  -0.588649  0  2.25316  0
O  O166  1  0.83362431  0.51049694  0.44515846  1  -1.251564  0  -0.243886  -0.605055  0  2.229393  0
O  O167  1  0.04707614  0.09588693  0.05325706  1  -1.21575  0  -0.20766  -0.549492  0  2.296323  0
O  O168  1  0.15017065  0.78311523  0.03810586  1  -1.251864  0  -0.239084  -0.597498  0  2.217773  0
O  O169  1  0.81963909  0.99021200  0.02499412  1  -1.240685  0  -0.223701  -0.579888  0  2.259095  0
O  O170  1  0.66734310  0.51473773  0.44320953  1  -1.205142  0  -0.20575  -0.544768  0  2.269671  0
O  O171  1  0.48709344  0.86206800  0.45060660  1  -1.257254  0  -0.241011  -0.603424  0  2.237286  0
O  O172  1  0.82880519  0.69285177  0.44293916  1  -1.247124  0  -0.226791  -0.587917  0  2.24546  0
O  O173  1  0.47838518  0.71561647  0.54526291  1  -1.238778  0  -0.213304  -0.560865  0  2.337893  0
O  O174  1  0.70824967  0.83199119  0.53569005  1  -1.263221  0  -0.228165  -0.58791  0  2.307645  0
O  O175  1  0.82322131  0.50252933  0.54428401  1  -1.275092  0  -0.244197  -0.60074  0  2.273595  0
O  O176  1  0.65246566  0.52342941  0.55366931  1  -1.25142  0  -0.219801  -0.577021  0  2.347579  0
O  O177  1  0.51705893  0.85496897  0.54862512  1  -1.277987  0  -0.247735  -0.607385  0  2.268284  0
O  O178  1  0.84774935  0.66977430  0.54151939  1  -1.270604  0  -0.231743  -0.589227  0  2.2895  0
O  O179  1  0.65862815  0.67834409  0.49420971  1  -1.612269  0  -0.390269  -1.268122  0  2.302885  0
O  O180  1  0.02165626  0.15898478  0.94509775  1  -1.231204  0  -0.221878  -0.557147  0  2.36193  0
O  O181  1  0.18369653  0.79612549  0.94191492  1  -1.273369  0  -0.248248  -0.606625  0  2.364591  0
O  O182  1  0.84082242  0.99347681  0.93076749  1  -1.267917  0  -0.228596  -0.578348  0  2.404786  0
O  O183  1  0.18507017  0.95354760  0.92991594  1  -1.236285  0  -0.221581  -0.576402  0  2.447252  0
O  O184  1  0.98666731  0.83899030  0.92448829  1  -1.277528  0  -0.241077  -0.617615  0  2.417749  0
O  O185  1  0.85772464  0.16449925  0.93788699  1  -1.265779  0  -0.249767  -0.628045  0  2.399194  0
O  O186  1  0.02009041  0.97747253  0.98615984  1  -1.619374  0  -0.390893  -1.263864  0  2.314202  0
O  O187  1  0.21319063  0.90688456  0.03287057  1  -1.217312  0  -0.19886  -0.535166  0  2.282797  0
O  O188  1  0.95278591  0.82388039  0.02000104  1  -1.248534  0  -0.223245  -0.585386  0  2.253705  0
O  O189  1  0.87031636  0.13873696  0.04002199  1  -1.2523  0  -0.241275  -0.601121  0  2.223687  0
O  O190  1  0.48483810  0.54604650  0.49560347  1  -1.365668  0  -0.576255  -0.99003  0  1.79948  0
O  O191  1  0.21474233  0.08269924  0.99488388  1  -1.360584  0  -0.570798  -0.983998  0  1.831827  0
