# generated using pymatgen
data_Cu3H32C16S4I3
_symmetry_space_group_name_H-M   'P 1'
_cell_length_a   8.51562259
_cell_length_b   9.87637348
_cell_length_c   15.86778085
_cell_angle_alpha   76.34880930
_cell_angle_beta   74.58047051
_cell_angle_gamma   84.60413921
_symmetry_Int_Tables_number   1
_chemical_formula_structural   Cu3H32C16S4I3
_chemical_formula_sum   'Cu6 H64 C32 S8 I6'
_cell_volume   1249.45832569
_cell_formula_units_Z   2
loop_
 _symmetry_equiv_pos_site_id
 _symmetry_equiv_pos_as_xyz
  1  'x, y, z'
loop_
 _atom_site_type_symbol
 _atom_site_label
 _atom_site_symmetry_multiplicity
 _atom_site_fract_x
 _atom_site_fract_y
 _atom_site_fract_z
 _atom_site_occupancy
 _atom_site_pbe_bader_spin_density
 _atom_site_pbe_cm5_charge
 _atom_site_pbe_ddec_charge
 _atom_site_pbe_ddec_spin_density
 _atom_site_pbe_ddec_sum_bond_order
 _atom_site_pbe_magmom
Cu  Cu0  1  0.97788037  0.87952479  0.25135189  1  0  0.263117  0.107064  0  2.711674  0
Cu  Cu1  1  0.02211926  0.12047276  0.74864840  1  0  0.263122  0.107088  0  2.711629  0
Cu  Cu2  1  0.96318344  0.54978470  0.25691619  1  0  0.257631  0.083869  0  2.804836  0
Cu  Cu3  1  0.03681376  0.45021285  0.74308508  1  0  0.257645  0.083864  0  2.804888  0
Cu  Cu4  1  0.23727525  0.68940025  0.21293762  1  0  0.181357  0.074121  0  2.78274  0
Cu  Cu5  1  0.76272434  0.31059835  0.78706253  1  0  0.181366  0.074112  0  2.782738  0
H  H6  1  0.00278777  0.23922520  0.22003427  1  0  0.095701  0.092692  0  1.01623  0
H  H7  1  0.99721182  0.76077339  0.77996588  1  0  0.095705  0.092686  0  1.016245  0
H  H8  1  0.14864704  0.93314725  0.38698712  1  0  0.084528  0.101164  0  1.05311  0
H  H9  1  0.85136097  0.06685448  0.61300696  1  0  0.084524  0.101157  0  1.053084  0
H  H10  1  0.20668064  0.06606378  0.28924054  1  0  0.08753  0.101095  0  1.032138  0
H  H11  1  0.79332262  0.93393482  0.71075531  1  0  0.087511  0.101071  0  1.032113  0
H  H12  1  0.04669185  0.11756153  0.47887748  1  0  0.082649  0.087057  0  1.030181  0
H  H13  1  0.95331880  0.88243500  0.52111889  1  0  0.082738  0.087252  0  1.030095  0
H  H14  1  0.25689689  0.12500556  0.42684306  1  0  0.097496  0.102731  0  0.990352  0
H  H15  1  0.74311121  0.87499409  0.57315069  1  0  0.097528  0.102771  0  0.990399  0
H  H16  1  0.20415712  0.32136631  0.30266051  1  0  0.086818  0.100243  0  1.02885  0
H  H17  1  0.79584357  0.67863542  0.69733713  1  0  0.086816  0.100241  0  1.028899  0
H  H18  1  0.13022429  0.36278675  0.40988745  1  0  0.085077  0.114537  0  1.029005  0
H  H19  1  0.86978017  0.63721185  0.59011201  1  0  0.085072  0.114484  0  1.029072  0
H  H20  1  0.72649895  0.36120719  0.22885420  1  0  0.083834  0.081201  0  1.038446  0
H  H21  1  0.27349941  0.63879140  0.77114928  1  0  0.083825  0.081183  0  1.038482  0
H  H22  1  0.63861083  0.22878451  0.32115022  1  0  0.089142  0.09297  0  0.996499  0
H  H23  1  0.36139001  0.77121304  0.67885306  1  0  0.089153  0.093004  0  0.996518  0
H  H24  1  0.70663204  0.05559848  0.22316106  1  0  0.072667  0.026616  0  1.024778  0
H  H25  1  0.29336015  0.94440219  0.77684172  1  0  0.072629  0.026563  0  1.024853  0
H  H26  1  0.51710237  0.31877905  0.15038906  1  0  0.074174  0.11264  0  1.036059  0
H  H27  1  0.48289812  0.68122684  0.84961367  1  0  0.074207  0.112682  0  1.036039  0
H  H28  1  0.43760483  0.18920359  0.24703025  1  0  0.076421  0.105871  0  1.039472  0
H  H29  1  0.56239196  0.81080335  0.75297222  1  0  0.07639  0.105851  0  1.039354  0
H  H30  1  0.49461799  0.14691049  0.13998612  1  0  0.07165  0.11087  0  1.043978  0
H  H31  1  0.50537276  0.85309539  0.86001610  1  0  0.071615  0.110823  0  1.044046  0
H  H32  1  0.83332520  0.30876749  0.07304240  1  0  0.074766  0.117531  0  1.022855  0
H  H33  1  0.16667198  0.69123006  0.92696076  1  0  0.074771  0.117547  0  1.022873  0
H  H34  1  0.79070302  0.14743650  0.05513463  1  0  0.073475  0.109231  0  1.045308  0
H  H35  1  0.20929169  0.85256209  0.94486810  1  0  0.073516  0.109279  0  1.04535  0
H  H36  1  0.94722746  0.15445399  0.10859474  1  0  0.066148  0.097579  0  1.081506  0
H  H37  1  0.05276734  0.84554251  0.89140766  1  0  0.066155  0.097572  0  1.081521  0
H  H38  1  0.54842307  0.84718825  0.23156157  1  0  0.102375  0.099468  0  0.988979  0
H  H39  1  0.45157643  0.15281243  0.76843891  1  0  0.102383  0.099463  0  0.988977  0
H  H40  1  0.54586127  0.63503671  0.04655988  1  0  0.092207  0.11873  0  0.995955  0
H  H41  1  0.45413667  0.36497231  0.95343897  1  0  0.09217  0.118686  0  0.99601  0
H  H42  1  0.54711211  0.80639026  0.06326927  1  0  0.07926  0.100187  0  1.034173  0
H  H43  1  0.45288961  0.19361564  0.93673139  1  0  0.07928  0.100216  0  1.034167  0
H  H44  1  0.83064418  0.58697309  0.07173589  1  0  0.081223  0.08535  0  1.016403  0
H  H45  1  0.16935168  0.41302759  0.92826322  1  0  0.081241  0.085373  0  1.016362  0
H  H46  1  0.82075151  0.72627006  0.97988357  1  0  0.086449  0.102931  0  1.006804  0
H  H47  1  0.17924795  0.27373167  0.02011677  1  0  0.08645  0.102929  0  1.006807  0
H  H48  1  0.80926901  0.89979607  0.07425801  1  0  0.094114  0.116318  0  0.991856  0
H  H49  1  0.19073662  0.10020358  0.92574239  1  0  0.094096  0.116319  0  0.991821  0
H  H50  1  0.98863423  0.79085756  0.06894420  1  0  0.092503  0.116349  0  1.032616  0
H  H51  1  0.01136792  0.20913791  0.93105730  1  0  0.092533  0.11637  0  1.032641  0
H  H52  1  0.41479166  0.66311638  0.37110153  1  0  0.079721  0.095611  0  1.033448  0
H  H53  1  0.58520793  0.33688221  0.62889862  1  0  0.079719  0.095621  0  1.033436  0
H  H54  1  0.60639460  0.57359686  0.36285335  1  0  0.085305  0.087156  0  1.02254  0
H  H55  1  0.39360504  0.42640069  0.63714568  1  0  0.085305  0.087163  0  1.022538  0
H  H56  1  0.72055767  0.78709870  0.38569424  1  0  0.064643  0.023545  0  1.065329  0
H  H57  1  0.27944327  0.21289677  0.61430554  1  0  0.064653  0.023559  0  1.065298  0
H  H58  1  0.43885352  0.64171340  0.53323904  1  0  0.077562  0.105492  0  1.049147  0
H  H59  1  0.56114476  0.35828728  0.46676161  1  0  0.07757  0.105504  0  1.049145  0
H  H60  1  0.58934582  0.73605435  0.55122482  1  0  0.08139  0.113379  0  1.024313  0
H  H61  1  0.41065360  0.26394842  0.44877474  1  0  0.081396  0.113401  0  1.024273  0
H  H62  1  0.64720671  0.58289136  0.50889839  1  0  0.079245  0.115019  0  1.025906  0
H  H63  1  0.35279165  0.41710724  0.49110383  1  0  0.079233  0.115004  0  1.025942  0
H  H64  1  0.36317274  0.88069358  0.44680625  1  0  0.081154  0.114266  0  1.028788  0
H  H65  1  0.63682803  0.11930606  0.55319232  1  0  0.081167  0.114261  0  1.028812  0
H  H66  1  0.49114967  0.95823934  0.34117016  1  0  0.08276  0.116779  0  1.028718  0
H  H67  1  0.50885236  0.04175926  0.65882775  1  0  0.08271  0.116736  0  1.028785  0
H  H68  1  0.53984543  0.96890314  0.44094156  1  0  0.079805  0.105903  0  1.056543  0
H  H69  1  0.46015653  0.03109754  0.55905543  1  0  0.079807  0.105862  0  1.056575  0
C  C70  1  0.90020588  0.21887932  0.28013594  1  0  -0.064628  -0.028043  0  3.774632  0
C  C71  1  0.09979375  0.78111824  0.71986499  1  0  -0.064604  -0.027954  0  3.774625  0
C  C72  1  0.12221121  0.04164162  0.35625710  1  0  -0.161832  -0.192025  0  3.904327  0
C  C73  1  0.87779813  0.95835699  0.64374104  1  0  -0.161798  -0.191979  0  3.904264  0
C  C74  1  0.13531924  0.14127688  0.41337945  1  0  -0.172683  -0.136892  0  3.97508  0
C  C75  1  0.86468898  0.85871964  0.58661537  1  0  -0.172808  -0.1372  0  3.975167  0
C  C76  1  0.11590002  0.29291063  0.36816315  1  0  -0.162972  -0.186452  0  3.885218  0
C  C77  1  0.88409953  0.70708900  0.63183622  1  0  -0.162947  -0.18629  0  3.885101  0
C  C78  1  0.73490567  0.24841476  0.25807013  1  0  -0.168602  -0.203894  0  3.888989  0
C  C79  1  0.26509387  0.75158488  0.74193114  1  0  -0.168605  -0.203996  0  3.889103  0
C  C80  1  0.70047386  0.16844238  0.19319980  1  0  -0.099084  0.132303  0  3.870964  0
C  C81  1  0.29952081  0.83155725  0.80680279  1  0  -0.099006  0.132505  0  3.870824  0
C  C82  1  0.52818670  0.20768822  0.18194193  1  0  -0.254956  -0.39672  0  3.927532  0
C  C83  1  0.47180896  0.79231662  0.81806100  1  0  -0.254933  -0.396745  0  3.92742  0
C  C84  1  0.82551178  0.19629855  0.10275564  1  0  -0.259276  -0.395337  0  3.907325  0
C  C85  1  0.17448297  0.80369900  0.89724723  1  0  -0.25935  -0.395451  0  3.907389  0
C  C86  1  0.59552334  0.73975782  0.25069474  1  0  -0.065225  -0.02555  0  3.767262  0
C  C87  1  0.40447861  0.26024287  0.74930414  1  0  -0.065236  -0.025551  0  3.767211  0
C  C88  1  0.59665281  0.69921549  0.08017126  1  0  -0.15943  -0.180245  0  3.881707  0
C  C89  1  0.40334652  0.30078936  0.91982863  1  0  -0.159417  -0.180254  0  3.881812  0
C  C90  1  0.78157822  0.69386668  0.05344304  1  0  -0.17825  -0.140667  0  3.969232  0
C  C91  1  0.21842129  0.30613400  0.94655682  1  0  -0.17828  -0.140668  0  3.969273  0
C  C92  1  0.85519433  0.79177932  0.09190605  1  0  -0.155209  -0.164229  0  3.845171  0
C  C93  1  0.14480891  0.20821928  0.90809421  1  0  -0.15522  -0.164263  0  3.845214  0
C  C94  1  0.54748609  0.67815010  0.35131817  1  0  -0.172076  -0.206503  0  3.881909  0
C  C95  1  0.45251594  0.32184850  0.64868163  1  0  -0.172075  -0.206505  0  3.881857  0
C  C96  1  0.59014194  0.76348221  0.41089679  1  0  -0.101128  0.127421  0  3.868819  0
C  C97  1  0.40985887  0.23651639  0.58910318  1  0  -0.101163  0.127387  0  3.868894  0
C  C98  1  0.56519981  0.67570529  0.50637265  1  0  -0.248129  -0.382529  0  3.893175  0
C  C99  1  0.43479969  0.32429539  0.49362847  1  0  -0.248126  -0.382557  0  3.893188  0
C  C100  1  0.49059172  0.90058413  0.40950587  1  0  -0.251457  -0.396196  0  3.906019  0
C  C101  1  0.50941032  0.09941447  0.59049267  1  0  -0.251408  -0.396072  0  3.906108  0
S  S102  1  0.91891656  0.03805507  0.34056877  1  0  -0.022992  0.062041  0  3.121472  0
S  S103  1  0.08108673  0.96194249  0.65943101  1  0  -0.023034  0.061989  0  3.121513  0
S  S104  1  0.91301814  0.33807961  0.35076801  1  0  -0.03171  0.054793  0  3.155876  0
S  S105  1  0.08698149  0.66191795  0.64923355  1  0  -0.031751  0.054736  0  3.155858  0
S  S106  1  0.82049377  0.74307084  0.21289442  1  0  -0.082841  0.053077  0  3.772204  0
S  S107  1  0.17950708  0.25692671  0.78710696  1  0  -0.082828  0.053087  0  3.772208  0
S  S108  1  0.51139655  0.62795812  0.19858550  1  0  -0.023641  0.066293  0  3.127891  0
S  S109  1  0.48860400  0.37204674  0.80141296  1  0  -0.023637  0.066289  0  3.127862  0
I  I110  1  0.23510704  0.95243836  0.12149848  1  0  -0.178847  -0.318174  0  1.886681  0
I  I111  1  0.76489251  0.04756128  0.87850152  1  0  -0.178843  -0.318158  0  1.886684  0
I  I112  1  0.06767097  0.66155452  0.38157590  1  0  -0.153238  -0.279204  0  2.004695  0
I  I113  1  0.93232867  0.33844303  0.61842377  1  0  -0.153248  -0.279215  0  2.00473  0
I  I114  1  0.19271214  0.51117244  0.11886267  1  0  -0.175688  -0.298837  0  1.845519  0
I  I115  1  0.80728741  0.48882720  0.88113796  1  0  -0.175689  -0.298833  0  1.845519  0
