# generated using pymatgen
data_Cu3H10(CN2)10
_symmetry_space_group_name_H-M   'P 1'
_cell_length_a   8.11658611
_cell_length_b   10.62330432
_cell_length_c   11.60847489
_cell_angle_alpha   90.00206977
_cell_angle_beta   90.13550369
_cell_angle_gamma   90.65148302
_symmetry_Int_Tables_number   1
_chemical_formula_structural   Cu3H10(CN2)10
_chemical_formula_sum   'Cu6 H20 C20 N40'
_cell_volume   1000.87282808
_cell_formula_units_Z   2
loop_
 _symmetry_equiv_pos_site_id
 _symmetry_equiv_pos_as_xyz
  1  'x, y, z'
loop_
 _atom_site_type_symbol
 _atom_site_label
 _atom_site_symmetry_multiplicity
 _atom_site_fract_x
 _atom_site_fract_y
 _atom_site_fract_z
 _atom_site_occupancy
 _atom_site_hle17_ddec_charge
 _atom_site_hle17_ddec_spin_density
 _atom_site_hle17_ddec_sum_bond_order
 _atom_site_hle17_magmom
 _atom_site_hse06_10hf_ddec_charge
 _atom_site_hse06_10hf_ddec_spin_density
 _atom_site_hse06_10hf_ddec_sum_bond_order
 _atom_site_hse06_10hf_magmom
 _atom_site_hse06_ddec_charge
 _atom_site_hse06_ddec_spin_density
 _atom_site_hse06_ddec_sum_bond_order
 _atom_site_hse06_magmom
 _atom_site_pbe_cm5_charge
 _atom_site_pbe_ddec_charge
 _atom_site_pbe_ddec_spin_density
 _atom_site_pbe_ddec_sum_bond_order
 _atom_site_pbe_magmom
Cu  Cu0  1  0.16201855  0.92732204  0.38354248  1  0.74681  0.462301  1.980369  0.315  0.771175  0.695533  2.376112  0.534  0.870098  0.817104  2.299572  0.649  0.763631  0.71652  0.568187  2.424473  0.429
Cu  Cu1  1  0.33866431  0.07267912  0.88506405  1  0.750787  0.502919  1.977247  0.342  0.773107  0.69867  2.373087  0.536  0.870261  0.817532  2.298016  0.649  0.766361  0.721259  0.586361  2.419049  0.443
Cu  Cu2  1  0.83622078  0.07278324  0.61395273  1  0.763184  -0.572262  1.980149  -0.387  0.782162  -0.7119  2.37866  -0.546  0.872503  -0.817073  2.307667  -0.646  0.775677  0.734624  -0.629536  2.421871  -0.475
Cu  Cu3  1  0.66151126  0.92726229  0.11658233  1  0.75338  0.508919  1.976066  0.346  0.774345  0.701837  2.373504  0.539  0.871634  0.819473  2.298244  0.651  0.766661  0.722666  0.59306  2.419749  0.448
Cu  Cu4  1  0.50234824  0.00055305  0.50142880  1  0.79572  -0.476624  1.981413  -0.323  0.828482  -0.70234  2.39298  -0.538  0.925794  -0.813317  2.315016  -0.642  0.759468  0.771438  -0.586235  2.442917  -0.443
Cu  Cu5  1  0.99965748  0.99994448  0.99978437  1  0.785554  -0.420351  1.975411  -0.287  0.814967  -0.679845  2.389641  -0.523  0.919131  -0.809745  2.309191  -0.641  0.748165  0.755286  -0.534644  2.440279  -0.405
H  H6  1  0.95662738  0.77622630  0.53624704  1  0.085649  0.000815  0.972965  0.001  0.091878  0.001052  1.045269  0.002  0.093948  0.000917  1.043534  0.001  0.116154  0.090057  0.001009  1.046792  0.002
H  H7  1  0.54421112  0.22427876  0.03667290  1  0.085042  0.000811  0.974404  0.002  0.090197  0.000712  1.047702  0.002  0.092383  0.000394  1.045646  0.001  0.115829  0.088348  0.000914  1.049504  0.002
H  H8  1  0.04396097  0.22330999  0.46339941  1  0.085237  -0.001165  0.97549  -0.002  0.090842  -0.001208  1.048274  -0.002  0.092864  -0.000995  1.046388  -0.001  0.116203  0.089135  -0.001304  1.049991  -0.002
H  H9  1  0.45626962  0.77593260  0.96367038  1  0.085359  0.000839  0.9743  0.002  0.091261  0.000748  1.04686  0.002  0.093458  0.00042  1.04486  0.001  0.11607  0.089384  0.000953  1.048589  0.002
H  H10  1  0.12715790  0.73630270  0.20278452  1  0.080392  0.001576  0.968927  0.001  0.087929  0.001607  1.038227  0.002  0.089389  0.001248  1.037824  0.001  0.113145  0.086614  0.001694  1.038768  0.002
H  H11  1  0.37289672  0.26297246  0.70272787  1  0.080954  9.3e-05  0.969106  0.001  0.088629  0.000428  1.038729  0.002  0.090056  0.000329  1.038586  0.001  0.113177  0.087356  0.000408  1.039059  0.002
H  H12  1  0.87325091  0.26232901  0.79682902  1  0.082093  -0.000381  0.968675  -0.002  0.089319  -0.000494  1.038095  -0.002  0.090671  -0.000343  1.037735  -0.001  0.11356  0.088235  -0.000608  1.038512  -0.002
H  H13  1  0.62716600  0.73666490  0.29769602  1  0.081422  0.001612  0.967965  0.002  0.088091  0.001613  1.037948  0.002  0.089442  0.00125  1.037713  0.002  0.11311  0.086896  0.001715  1.038406  0.002
H  H14  1  0.79239398  0.57429926  0.52396968  1  0.107038  3.5e-05  0.956905  0.0  0.112727  0.000124  1.023251  0.001  0.115324  6.4e-05  1.023179  0.0  0.107111  0.110983  0.00015  1.023079  0.001
H  H15  1  0.70795737  0.42622781  0.02431868  1  0.106095  0.000459  0.95879  0.0  0.111746  0.000655  1.025487  0.001  0.114594  0.000484  1.025147  0.0  0.106857  0.109843  0.000689  1.025508  0.001
H  H16  1  0.20752881  0.42550479  0.47592948  1  0.106074  -0.000469  0.958167  0.0  0.112044  -0.000443  1.024532  -0.001  0.114768  -0.000317  1.024343  0.0  0.107087  0.110213  -0.000629  1.024431  -0.001
H  H17  1  0.29221857  0.57405903  0.97574868  1  0.106022  0.000475  0.958634  0.0  0.112073  0.00066  1.024787  0.001  0.114963  0.000487  1.024437  0.0  0.106996  0.110059  0.000696  1.024874  0.001
H  H18  1  0.98402126  0.52694110  0.17961645  1  0.10951  0.000495  0.966465  0.0  0.114289  0.000677  1.035683  0.001  0.117231  0.000499  1.034539  0.001  0.107815  0.111989  0.00071  1.036803  0.001
H  H19  1  0.51556365  0.47242063  0.67941428  1  0.110308  0.000337  0.965046  0.0  0.114488  0.000412  1.034708  0.001  0.117138  0.000298  1.033996  0.0  0.107977  0.112523  0.000465  1.035372  0.001
H  H20  1  0.01517022  0.47229101  0.82013910  1  0.110203  -0.000477  0.965405  -0.001  0.114494  -0.000509  1.034987  -0.001  0.117237  -0.000373  1.034133  0.0  0.108112  0.112515  -0.000631  1.03566  -0.001
H  H21  1  0.48462830  0.52709802  0.32059278  1  0.11016  0.000477  0.965593  0.0  0.114549  0.000618  1.035102  0.001  0.117293  0.000454  1.034148  0.001  0.1079  0.112439  0.000639  1.036073  0.001
H  H22  1  0.80910806  0.44580867  0.34240188  1  0.097063  0.00036  0.973341  0.001  0.101438  0.000124  1.044512  0.0  0.103954  5.7e-05  1.041776  0.0  0.105345  0.099427  0.000148  1.046742  0.0
H  H23  1  0.69060260  0.55430439  0.84230160  1  0.097758  0.000398  0.973185  0.001  0.102447  8.6e-05  1.044014  0.0  0.104943  3.2e-05  1.041323  0.0  0.105777  0.10052  0.000134  1.046158  0.0
H  H24  1  0.18997194  0.55397518  0.65764475  1  0.09662  -0.000393  0.972454  -0.001  0.101175  -9.8e-05  1.043729  0.0  0.103912  -2.5e-05  1.040869  0.0  0.105414  0.098989  -0.000167  1.046051  0.0
H  H25  1  0.30929925  0.44573973  0.15753035  1  0.096314  0.000368  0.973666  0.001  0.101366  0.000129  1.044425  0.0  0.104239  5.7e-05  1.041395  0.0  0.105314  0.098956  0.000183  1.046996  0.0
C  C26  1  0.95488702  0.71847277  0.45867883  1  0.117188  -0.006066  3.667356  -0.006  0.090074  -0.00083  3.914144  -0.001  0.099121  -0.002092  3.933738  -0.003  0.040085  0.084239  5.8e-05  3.902294  0.0
C  C27  1  0.54586293  0.28172130  0.95892277  1  0.11714  -0.006877  3.668679  -0.007  0.090267  -0.001223  3.91547  -0.002  0.09913  -0.002619  3.935096  -0.004  0.039909  0.084649  -0.000173  3.903314  -0.001
C  C28  1  0.04562519  0.28099673  0.54101838  1  0.116652  0.007642  3.669537  0.008  0.089301  0.000701  3.91623  0.001  0.098019  0.001977  3.936386  0.003  0.040228  0.083786  -0.00029  3.903438  0.0
C  C29  1  0.45444998  0.71839978  0.04137557  1  0.118253  -0.006738  3.666804  -0.007  0.091116  -0.00109  3.913334  -0.002  0.099951  -0.00251  3.933089  -0.003  0.040917  0.085685  -9e-06  3.900836  -0.001
C  C30  1  0.05370533  0.69488420  0.27173716  1  0.121644  -0.004493  3.682679  -0.004  0.093503  0.00049  3.929871  0.0  0.101938  -0.001044  3.951063  -0.002  0.040663  0.088499  0.001464  3.916367  0.001
C  C31  1  0.44650143  0.30461037  0.77173243  1  0.12151  -0.006804  3.681767  -0.007  0.093297  -0.000754  3.928588  -0.002  0.101643  -0.001999  3.949942  -0.003  0.040956  0.088308  0.000129  3.91485  -0.001
C  C32  1  0.94651367  0.30412042  0.72797444  1  0.121789  0.007057  3.68052  0.007  0.093597  0.000411  3.927661  0.001  0.101739  0.001775  3.94954  0.003  0.041974  0.088778  -0.000571  3.913242  0.0
C  C33  1  0.55356921  0.69514654  0.22861308  1  0.122084  -0.005172  3.680962  -0.005  0.094366  0.000483  3.928094  0.0  0.102668  -0.00107  3.94958  -0.002  0.041867  0.089473  0.001515  3.914232  0.001
C  C34  1  0.86641965  0.60583733  0.45114433  1  -0.115359  0.007564  3.728736  0.008  -0.125308  0.003728  3.972908  0.004  -0.1336  0.003718  3.99535  0.004  -0.081856  -0.119953  0.003274  3.957881  0.004
C  C35  1  0.63402532  0.39444771  0.95131376  1  -0.11692  0.009114  3.730839  0.009  -0.126257  0.004241  3.974395  0.005  -0.13437  0.004128  3.996458  0.005  -0.082405  -0.121022  0.003869  3.959563  0.004
C  C36  1  0.13352127  0.39387352  0.54869110  1  -0.114981  -0.010026  3.729814  -0.01  -0.124705  -0.003944  3.973057  -0.004  -0.133077  -0.003784  3.995791  -0.004  -0.081392  -0.119174  -0.004211  3.957569  -0.005
C  C37  1  0.36621090  0.60567529  0.04879069  1  -0.116737  0.008983  3.730667  0.009  -0.126405  0.004271  3.974208  0.005  -0.134584  0.004142  3.996338  0.005  -0.082406  -0.121145  0.003893  3.959434  0.004
C  C38  1  0.97223575  0.57968608  0.25958193  1  -0.116797  0.00826  3.72045  0.008  -0.124631  0.004554  3.960363  0.005  -0.132643  0.004381  3.982205  0.005  -0.081486  -0.11967  0.004142  3.946046  0.005
C  C39  1  0.52766681  0.41990233  0.75952016  1  -0.115881  0.009317  3.718063  0.009  -0.124621  0.00433  3.960071  0.005  -0.133192  0.004251  3.982864  0.005  -0.080976  -0.119026  0.004187  3.94461  0.005
C  C40  1  0.02732382  0.41960512  0.74017392  1  -0.115704  -0.010568  3.718173  -0.01  -0.123946  -0.004436  3.959123  -0.005  -0.132474  -0.004196  3.982064  -0.005  -0.080333  -0.118364  -0.004653  3.943438  -0.005
C  C41  1  0.47240430  0.57983010  0.24060569  1  -0.116771  0.009255  3.719338  0.009  -0.124742  0.004597  3.959674  0.005  -0.132898  0.004409  3.981917  0.005  -0.081207  -0.119604  0.004338  3.944849  0.005
C  C42  1  0.87577989  0.53489493  0.35027454  1  -0.002964  -0.007682  3.714979  -0.007  -0.019215  -0.003207  3.955623  -0.003  -0.014347  -0.003683  3.973596  -0.004  -0.06302  -0.022402  -0.002578  3.943791  -0.002
C  C43  1  0.62427721  0.46510364  0.85027197  1  -0.002879  -0.008615  3.713552  -0.008  -0.019349  -0.003209  3.9543  -0.003  -0.014645  -0.003659  3.972615  -0.004  -0.062973  -0.022317  -0.002667  3.941976  -0.002
C  C44  1  0.12370730  0.46471451  0.64958980  1  -0.002861  0.009298  3.714051  0.008  -0.018987  0.002871  3.954639  0.003  -0.014618  0.003354  3.973195  0.003  -0.06195  -0.021544  0.002434  3.941919  0.002
C  C45  1  0.37581487  0.53487354  0.14974707  1  -0.002663  -0.0085  3.715168  -0.008  -0.018873  -0.003171  3.955047  -0.003  -0.014137  -0.003644  3.972905  -0.004  -0.062973  -0.021906  -0.00259  3.943343  -0.002
N  N46  1  0.04545388  0.76256390  0.36973749  1  -0.304804  0.06046  3.371342  0.072  -0.244761  0.058836  3.649065  0.076  -0.278688  0.052263  3.673892  0.071  -0.353367  -0.226245  0.054786  3.635622  0.069
N  N47  1  0.45519146  0.23721503  0.86992892  1  -0.305833  0.067085  3.373735  0.08  -0.244121  0.059222  3.649859  0.077  -0.277891  0.052258  3.674702  0.071  -0.352835  -0.225558  0.057696  3.636055  0.072
N  N48  1  0.95533427  0.23659853  0.62991084  1  -0.305645  -0.079342  3.37183  -0.094  -0.244088  -0.062149  3.648228  -0.081  -0.277957  -0.053271  3.67445  -0.072  -0.352023  -0.224885  -0.064803  3.63276  -0.081
N  N49  1  0.54492793  0.76272637  0.13055016  1  -0.305701  0.067331  3.372513  0.08  -0.245381  0.059607  3.650538  0.077  -0.279475  0.052601  3.675821  0.072  -0.353839  -0.226657  0.057876  3.636372  0.073
N  N50  1  0.31683067  0.07786442  0.41094981  1  -0.537148  -0.013368  2.904297  -0.016  -0.575094  -0.006528  3.283005  -0.009  -0.635424  -0.004545  3.301108  -0.006  -0.355031  -0.538717  -0.008047  3.271483  -0.01
N  N51  1  0.18390357  0.92203595  0.91031143  1  -0.543894  -0.004146  2.918258  -0.006  -0.57619  -0.004708  3.293321  -0.007  -0.636214  -0.004025  3.309731  -0.006  -0.358537  -0.541645  -0.002201  3.28426  -0.004
N  N52  1  0.68682551  0.91949535  0.58659723  1  -0.558068  -0.081407  2.948562  -0.095  -0.583464  -0.067912  3.319094  -0.086  -0.637809  -0.054351  3.331215  -0.074  -0.36548  -0.552684  -0.06999  3.313765  -0.085
N  N53  1  0.81581980  0.07773623  0.08998297  1  -0.541627  -0.002146  2.916984  -0.003  -0.574726  -0.004134  3.293066  -0.006  -0.63497  -0.003735  3.30992  -0.006  -0.357548  -0.540017  -0.0018  3.28374  -0.003
N  N54  1  0.35853884  0.85168716  0.46949342  1  -0.54615  -0.014317  2.936457  -0.016  -0.588223  -0.005778  3.325931  -0.006  -0.645057  -0.00338  3.337861  -0.003  -0.36234  -0.555502  -0.006507  3.320006  -0.007
N  N55  1  0.14076750  0.14942689  0.96757609  1  -0.55023  -0.005994  2.947967  -0.007  -0.588002  -0.003346  3.33485  -0.004  -0.644886  -0.002201  3.345737  -0.003  -0.364916  -0.556581  -0.000745  3.330681  -0.001
N  N56  1  0.64034519  0.15072338  0.53277130  1  -0.568861  -0.071597  2.993629  -0.084  -0.598139  -0.064481  3.37737  -0.082  -0.648907  -0.053421  3.383196  -0.073  -0.375473  -0.571071  -0.064615  3.377523  -0.079
N  N57  1  0.85875518  0.85049507  0.03212374  1  -0.548801  -0.006661  2.942878  -0.008  -0.587524  -0.003486  3.330421  -0.004  -0.644695  -0.002279  3.341786  -0.003  -0.363414  -0.556034  -0.001111  3.325961  -0.001
N  N58  1  0.96200414  0.03479817  0.37290922  1  -0.462683  0.070112  2.703984  0.081  -0.505035  0.037675  3.047431  0.048  -0.540655  0.022134  3.058551  0.031  -0.287659  -0.48527  0.04285  3.04241  0.052
N  N59  1  0.53727731  0.96508287  0.87220757  1  -0.45854  0.079988  2.702806  0.094  -0.506249  0.036761  3.050489  0.048  -0.54359  0.021572  3.063429  0.032  -0.288453  -0.484648  0.042866  3.043351  0.053
N  N60  1  0.03654959  0.96651485  0.62794589  1  -0.443948  -0.097812  2.689694  -0.113  -0.503285  -0.038736  3.043182  -0.05  -0.542263  -0.021713  3.057768  -0.031  -0.284405  -0.478635  -0.04883  3.033608  -0.06
N  N61  1  0.46097618  0.03441994  0.12621542  1  -0.45883  0.075494  2.70205  0.089  -0.504588  0.037892  3.046936  0.049  -0.541013  0.021577  3.058618  0.031  -0.286333  -0.483879  0.044721  3.041136  0.055
N  N62  1  0.20566064  0.94727400  0.18749543  1  -0.407677  0.116244  2.567283  0.125  -0.458262  0.056883  2.887849  0.065  -0.486026  0.04605  2.898133  0.055  -0.225055  -0.442701  0.059598  2.882898  0.066
N  N63  1  0.29411685  0.05334356  0.68565159  1  -0.392245  -0.140817  2.548775  -0.15  -0.456471  -0.057936  2.875487  -0.065  -0.486203  -0.045862  2.887351  -0.054  -0.218762  -0.438018  -0.064642  2.868267  -0.071
N  N64  1  0.79314217  0.05314077  0.81318931  1  -0.406372  0.119794  2.558479  0.126  -0.45852  0.056814  2.87886  0.062  -0.484948  0.046836  2.889464  0.054  -0.222404  -0.443942  0.058943  2.873532  0.063
N  N65  1  0.70578367  0.94754024  0.31277279  1  -0.411156  0.10737  2.568876  0.115  -0.459083  0.05631  2.888288  0.064  -0.485739  0.046192  2.898185  0.055  -0.22566  -0.444907  0.056754  2.883609  0.063
N  N66  1  0.31294851  0.17453390  0.35477283  1  0.397727  0.005213  4.108086  0.007  0.447899  0.001053  4.405635  0.002  0.469273  0.000437  4.443698  0.0  0.103628  0.434939  0.001302  4.37763  0.002
N  N67  1  0.18800415  0.82525224  0.85443245  1  0.397589  0.001569  4.118148  0.002  0.448609  0.001115  4.408874  0.002  0.470602  0.000836  4.444874  0.001  0.102465  0.435187  0.001134  4.383913  0.001
N  N68  1  0.68922082  0.82524717  0.64564593  1  0.397434  0.027675  4.140109  0.04  0.448777  0.00532  4.424397  0.014  0.47018  0.010981  4.455587  0.021  0.098937  0.435362  0.000199  4.40415  0.007
N  N69  1  0.81187214  0.17480790  0.14542963  1  0.396748  0.000682  4.116581  0.001  0.447328  0.001067  4.408791  0.001  0.469308  0.000718  4.444853  0.001  0.101964  0.433951  0.001219  4.383633  0.001
N  N70  1  0.38188132  0.74258707  0.49610966  1  0.399827  0.007217  4.113008  0.01  0.45037  0.001469  4.409937  0.003  0.472014  0.001322  4.445848  0.002  0.104821  0.437063  0.001151  4.384425  0.002
N  N71  1  0.11801307  0.25810870  0.99557650  1  0.398554  0.004241  4.120508  0.006  0.449035  0.001872  4.412712  0.003  0.471011  0.001885  4.446885  0.003  0.102862  0.435531  0.001525  4.389502  0.002
N  N72  1  0.61768691  0.25912545  0.50494874  1  0.403583  0.022239  4.142135  0.033  0.453769  0.003913  4.425877  0.011  0.47498  0.00957  4.45489  0.019  0.100409  0.440535  -0.000922  4.407821  0.005
N  N73  1  0.88198588  0.74183558  0.00432445  1  0.39915  0.004246  4.119405  0.006  0.449611  0.001579  4.412144  0.003  0.471538  0.001699  4.44662  0.003  0.102781  0.436242  0.001213  4.388828  0.002
N  N74  1  0.83453396  0.98917867  0.34179629  1  0.388919  -0.025533  4.19029  -0.038  0.435958  -0.002472  4.51013  -0.009  0.456313  -0.003395  4.550669  -0.009  0.077804  0.423706  -0.000523  4.484816  -0.007
N  N75  1  0.66463774  0.01117755  0.84174380  1  0.389698  -0.026986  4.187714  -0.04  0.437528  -0.001655  4.511554  -0.008  0.457627  -0.00283  4.553034  -0.008  0.080231  0.425342  0.000504  4.485157  -0.005
N  N76  1  0.16479876  0.01206794  0.65768978  1  0.386761  0.033396  4.175849  0.049  0.43833  0.002197  4.506464  0.009  0.459661  0.002961  4.548497  0.008  0.08103  0.424819  0.000208  4.478625  0.007
N  N77  1  0.33400811  0.98884283  0.15798891  1  0.387332  -0.027932  4.18849  -0.041  0.436073  -0.003085  4.509533  -0.01  0.457004  -0.00396  4.550142  -0.009  0.078194  0.423112  -0.000994  4.484028  -0.008
N  N78  1  0.30365691  0.26630674  0.30122986  1  -0.264007  -0.016287  2.317219  -0.018  -0.279347  -0.002707  2.531994  -0.004  -0.290135  -9.4e-05  2.545159  -0.001  -0.121294  -0.269752  -0.00668  2.520983  -0.008
N  N79  1  0.19685130  0.73318690  0.80124261  1  -0.271247  -0.0021  2.322509  -0.003  -0.28107  -0.00294  2.533265  -0.004  -0.289911  -0.001706  2.544928  -0.003  -0.124369  -0.274464  -0.001159  2.524455  -0.002
N  N80  1  0.69758577  0.73445211  0.70084469  1  -0.28513  -0.116179  2.325803  -0.124  -0.288483  -0.076407  2.533709  -0.087  -0.292521  -0.071271  2.542224  -0.085  -0.133678  -0.286519  -0.074317  2.528176  -0.082
N  N81  1  0.80315189  0.26714521  0.19824486  1  -0.270334  0.001272  2.321778  0.001  -0.281323  -0.001681  2.533727  -0.003  -0.290341  -0.000865  2.545532  -0.002  -0.124809  -0.274529  8.9e-05  2.524771  -0.001
N  N82  1  0.40263654  0.63790450  0.51980096  1  -0.271318  -0.025223  2.357554  -0.027  -0.282331  -0.007145  2.580841  -0.009  -0.29186  -0.0047  2.592799  -0.006  -0.115125  -0.273999  -0.010301  2.570761  -0.012
N  N83  1  0.09710548  0.36242270  0.02060441  1  -0.277608  -0.011622  2.362621  -0.013  -0.283819  -0.006677  2.583333  -0.009  -0.290943  -0.005675  2.593519  -0.008  -0.117921  -0.278212  -0.004053  2.575198  -0.006
N  N84  1  0.59710405  0.36362429  0.47998609  1  -0.29728  -0.095535  2.366831  -0.102  -0.294143  -0.066142  2.582847  -0.076  -0.295717  -0.063163  2.589343  -0.076  -0.128173  -0.294352  -0.0635  2.578849  -0.071
N  N85  1  0.90317536  0.63748187  0.97952506  1  -0.278677  -0.012739  2.361141  -0.014  -0.28527  -0.00714  2.582285  -0.009  -0.292521  -0.006195  2.592652  -0.008  -0.118761  -0.279931  -0.00482  2.574188  -0.006
