# generated using pymatgen
data_Zn4H16C40Br8N4O13
_symmetry_space_group_name_H-M   'P 1'
_cell_length_a   23.86473725
_cell_length_b   23.86620469
_cell_length_c   23.86505357
_cell_angle_alpha   66.93002799
_cell_angle_beta   72.30245973
_cell_angle_gamma   107.70413303
_symmetry_Int_Tables_number   1
_chemical_formula_structural   Zn4H16C40Br8N4O13
_chemical_formula_sum   'Zn8 H32 C80 Br16 N8 O26'
_cell_volume   10432.80110599
_cell_formula_units_Z   2
loop_
 _symmetry_equiv_pos_site_id
 _symmetry_equiv_pos_as_xyz
  1  'x, y, z'
loop_
 _atom_site_type_symbol
 _atom_site_label
 _atom_site_symmetry_multiplicity
 _atom_site_fract_x
 _atom_site_fract_y
 _atom_site_fract_z
 _atom_site_occupancy
 _atom_site_pbe_bader_charge
 _atom_site_pbe_bader_spin_density
 _atom_site_pbe_cm5_charge
 _atom_site_pbe_ddec_charge
 _atom_site_pbe_ddec_spin_density
 _atom_site_pbe_ddec_sum_bond_order
 _atom_site_pbe_magmom
Zn  Zn0  1  0.05693088  0.95710023  0.48728060  1  1.317671  0  0.674448  0.957637  0  2.386871  0
Zn  Zn1  1  0.05693038  0.09983051  0.45579666  1  1.31491  0  0.674542  0.957755  0  2.386332  0
Zn  Zn2  1  0.94306660  0.98730309  0.45708524  1  1.316951  0  0.674526  0.957517  0  2.386688  0
Zn  Zn3  1  0.94307916  0.95578752  0.59982195  1  1.314745  0  0.674489  0.957655  0  2.386644  0
Zn  Zn4  1  0.94438803  0.54421595  0.01271479  1  1.31634  0  0.67448  0.957578  0  2.386846  0
Zn  Zn5  1  0.05564398  0.51273493  0.04420762  1  1.316144  0  0.674652  0.95787  0  2.386333  0
Zn  Zn6  1  0.94439094  0.40017964  0.04290382  1  1.316135  0  0.674481  0.957618  0  2.386406  0
Zn  Zn7  1  0.05561144  0.54289778  0.90017334  1  1.316303  0  0.674441  0.957513  0  2.387025  0
H  H8  1  0.92294462  0.65093350  0.11339791  1  0.1318  0  0.113351  0.134915  0  0.987952  0
H  H9  1  0.07708699  0.61340261  0.15096448  1  0.131674  0  0.113325  0.134829  0  0.987838  0
H  H10  1  0.92462966  0.88965234  0.34782026  1  0.116788  0  0.112464  0.134198  0  0.988448  0
H  H11  1  0.07517215  0.84769758  0.38982341  1  0.117258  0  0.112564  0.134358  0  0.988252  0
H  H12  1  0.07708373  0.46364965  0.77201564  1  0.119306  0  0.113418  0.134885  0  0.988007  0
H  H13  1  0.92294692  0.27196863  0.96368581  1  0.119344  0  0.113354  0.134995  0  0.98779  0
H  H14  1  0.07520115  0.22749563  0.53501644  1  0.124462  0  0.112489  0.13428  0  0.988338  0
H  H15  1  0.92464723  0.03499142  0.72751283  1  0.12365  0  0.112472  0.13423  0  0.988527  0
H  H16  1  0.73749910  0.46499698  0.11030252  1  0.1201  0  0.112383  0.134227  0  0.988217  0
H  H17  1  0.73749983  0.27250687  0.15217755  1  0.117529  0  0.112365  0.134152  0  0.988436  0
H  H18  1  0.26434635  0.22801675  0.34901779  1  0.115467  0  0.113339  0.135014  0  0.987942  0
H  H19  1  0.26434629  0.03633496  0.38658156  1  0.133013  0  0.113425  0.134807  0  0.988019  0
H  H20  1  0.26252428  0.61022836  0.96498331  1  0.119146  0  0.112501  0.134275  0  0.98831  0
H  H21  1  0.26249457  0.65217277  0.77248295  1  0.116616  0  0.112451  0.134143  0  0.988526  0
H  H22  1  0.73566526  0.84904292  0.72800333  1  0.115267  0  0.113339  0.134918  0  0.987879  0
H  H23  1  0.73565049  0.88659299  0.53631816  1  0.132847  0  0.113354  0.134759  0  0.987947  0
H  H24  1  0.91586490  0.84137629  0.74975758  1  0.478535  0  0.290924  0.300314  0  1.003109  0
H  H25  1  0.90900415  0.80278954  0.83107997  1  0.435863  0  0.29637  0.283133  0  0.968601  0
H  H26  1  0.09112006  0.66559827  0.75023862  1  0.47597  0  0.290877  0.300258  0  1.003102  0
H  H27  1  0.13387743  0.74006962  0.66892898  1  0.440674  0  0.296211  0.282954  0  0.968762  0
H  H28  1  0.90888439  0.65865587  0.92550246  1  0.469808  0  0.290927  0.300367  0  1.00298  0
H  H29  1  0.86614548  0.69722931  0.89377021  1  0.434201  0  0.296285  0.283036  0  0.968638  0
H  H30  1  0.08419100  0.83441153  0.57448795  1  0.477617  0  0.290948  0.300373  0  1.003033  0
H  H31  1  0.09102319  0.75993768  0.60621088  1  0.434416  0  0.296286  0.282965  0  0.968634  0
H  H32  1  0.91584134  0.07451897  0.33437122  1  0.477846  0  0.290918  0.300201  0  1.003474  0
H  H33  1  0.90900771  0.10624655  0.25989622  1  0.435582  0  0.296314  0.283023  0  0.968837  0
H  H34  1  0.09115248  0.42552879  0.15866181  1  0.470484  0  0.290928  0.300333  0  1.003195  0
H  H35  1  0.13389167  0.39380194  0.19724499  1  0.434641  0  0.296222  0.282758  0  0.969011  0
H  H36  1  0.90891195  0.25027623  0.16557538  1  0.477107  0  0.29084  0.300324  0  1.002868  0
H  H37  1  0.86616863  0.16896170  0.24003637  1  0.441275  0  0.296347  0.283024  0  0.968279  0
H  H38  1  0.08417252  0.24976367  0.34137313  1  0.4775  0  0.290872  0.300342  0  1.002957  0
H  H39  1  0.09102129  0.33107809  0.30281338  1  0.435496  0  0.296202  0.282957  0  0.968643  0
C  C40  1  0.18181728  0.09091597  0.40907247  1  1.55388  0  0.23182  0.609304  0  4.157978  0
C  C41  1  0.00000436  0.13951266  0.36049529  1  1.479254  0  0.222384  0.624511  0  4.111872  0
C  C42  1  0.99994863  0.90990133  0.40993689  1  1.575206  0  0.230256  0.609528  0  4.159651  0
C  C43  1  0.81818482  0.90908121  0.59089502  1  1.552944  0  0.231864  0.609787  0  4.158062  0
C  C44  1  0.00004142  0.86053065  0.63948996  1  1.479778  0  0.222329  0.624629  0  4.111777  0
C  C45  1  0.99997037  0.09008382  0.59008678  1  1.58706  0  0.22997  0.609316  0  4.159808  0
C  C46  1  0.00002837  0.59090803  0.09091321  1  1.529018  0  0.231574  0.6091  0  4.158667  0
C  C47  1  0.00004165  0.36053444  0.13948911  1  1.476286  0  0.222425  0.625048  0  4.111327  0
C  C48  1  0.81983564  0.40991256  0.09008237  1  1.55939  0  0.229932  0.608954  0  4.160496  0
C  C49  1  0.00000359  0.40907369  0.90911347  1  1.548651  0  0.231824  0.609652  0  4.157985  0
C  C50  1  0.99999574  0.63949601  0.86049983  1  1.476492  0  0.222251  0.624385  0  4.112164  0
C  C51  1  0.18017501  0.59007295  0.90990974  1  1.559651  0  0.229837  0.609176  0  4.159742  0
C  C52  1  0.00004025  0.80458572  0.69543649  1  0.015777  0  -0.040959  -0.253676  0  3.949731  0
C  C53  1  0.00001041  0.69545268  0.80455394  1  -0.020893  0  -0.041053  -0.253868  0  3.950279  0
C  C54  1  0.95679669  0.77736995  0.76677797  1  0.452019  0  0.079429  0.175712  0  4.048143  0
C  C55  1  0.04414962  0.72356431  0.73321423  1  0.488095  0  0.079576  0.175919  0  4.048407  0
C  C56  1  0.95588489  0.72266956  0.82057051  1  0.403368  0  0.079679  0.175495  0  4.048763  0
C  C57  1  0.04326327  0.77646705  0.67941978  1  0.400296  0  0.079784  0.175589  0  4.048382  0
C  C58  1  0.00001592  0.19546173  0.30454816  1  0.014709  0  -0.040952  -0.253669  0  3.950076  0
C  C59  1  0.00003480  0.30458279  0.19543499  1  -0.020009  0  -0.041016  -0.253842  0  3.950186  0
C  C60  1  0.95678823  0.17945026  0.27642545  1  0.402212  0  0.079325  0.175337  0  4.048757  0
C  C61  1  0.04416166  0.32059499  0.22265956  1  0.401742  0  0.079748  0.175785  0  4.048561  0
C  C62  1  0.95589732  0.23324554  0.22353392  1  0.487497  0  0.079588  0.175729  0  4.048472  0
C  C63  1  0.04325373  0.26679921  0.27735022  1  0.454058  0  0.079755  0.1758  0  4.048306  0
C  C64  1  0.00001363  0.62846974  0.12848169  1  -0.004734  0  -0.011536  -0.003911  0  3.965116  0
C  C65  1  0.95653004  0.65659396  0.13542861  1  0.09613  0  -0.087221  -0.149207  0  3.964206  0
C  C66  1  0.95685151  0.69150543  0.17019700  1  -0.167579  0  -0.004356  0.087691  0  3.912872  0
C  C67  1  0.00000059  0.69971424  0.19973605  1  0.25378  0  -0.004006  0.048688  0  4.058267  0
C  C68  1  0.04316405  0.67019226  0.19153348  1  -0.168462  0  -0.004227  0.087751  0  3.912829  0
C  C69  1  0.04349431  0.63542349  0.15662032  1  0.09573  0  -0.087197  -0.149234  0  3.963473  0
C  C70  1  0.99998337  0.73507604  0.23511982  1  -0.202541  0  -0.040248  -0.068169  0  4.1089  0
C  C71  1  0.99995219  0.76576151  0.26584850  1  -0.060032  0  -0.039358  -0.065348  0  4.107661  0
C  C72  1  0.99992221  0.80111038  0.30124681  1  0.107116  0  -0.003683  0.04771  0  4.058569  0
C  C73  1  0.95746017  0.83153371  0.30854886  1  -0.067248  0  -0.004388  0.088703  0  3.912904  0
C  C74  1  0.95741587  0.86663245  0.34311974  1  0.046536  0  -0.088188  -0.151883  0  3.96811  0
C  C75  1  0.99991492  0.87233400  0.37245779  1  -0.055162  0  -0.012577  -0.004412  0  3.968945  0
C  C76  1  0.04239317  0.84297931  0.36679147  1  0.044301  0  -0.088392  -0.151926  0  3.968213  0
C  C77  1  0.04236054  0.80840022  0.33170328  1  -0.061466  0  -0.004549  0.088852  0  3.912881  0
C  C78  1  0.00000865  0.37151271  0.87154889  1  -0.004209  0  -0.011593  -0.004182  0  3.965225  0
C  C79  1  0.04348812  0.40803675  0.79994148  1  0.112489  0  -0.087272  -0.149104  0  3.96395  0
C  C80  1  0.04315930  0.37294301  0.76535266  1  -0.114871  0  -0.004282  0.087649  0  3.912645  0
C  C81  1  0.99999602  0.30026666  0.80028685  1  0.141718  0  -0.003895  0.04882  0  4.058375  0
C  C82  1  0.95684752  0.26532166  0.87296996  1  -0.114847  0  -0.004333  0.087801  0  3.912848  0
C  C83  1  0.95652857  0.29990187  0.90807166  1  0.11311  0  -0.087148  -0.149301  0  3.96378  0
C  C84  1  0.99998114  0.26489846  0.76491519  1  -0.203017  0  -0.040317  -0.068122  0  4.108987  0
C  C85  1  0.99995356  0.23418031  0.73421845  1  -0.058326  0  -0.03925  -0.065356  0  4.107522  0
C  C86  1  0.99993599  0.19881046  0.69884071  1  0.124459  0  -0.003812  0.047827  0  4.058258  0
C  C87  1  0.04238543  0.23396136  0.62595167  1  -0.064779  0  -0.004492  0.088806  0  3.912777  0
C  C88  1  0.04242026  0.19942572  0.59082006  1  0.002556  0  -0.088391  -0.152173  0  3.968406  0
C  C89  1  0.99993730  0.12759747  0.62761563  1  0.018106  0  -0.012495  -0.003998  0  3.968772  0
C  C90  1  0.95743556  0.09079492  0.69944279  1  0.001093  0  -0.088076  -0.151764  0  3.968251  0
C  C91  1  0.95746986  0.12592434  0.73398154  1  -0.067025  0  -0.00421  0.088745  0  3.912843  0
C  C92  1  0.74479723  0.37239964  0.12759643  1  -0.028135  0  -0.012413  -0.003597  0  3.968638  0
C  C93  1  0.70976295  0.40918946  0.13331262  1  0.119067  0  -0.088261  -0.15245  0  3.968092  0
C  C94  1  0.64009446  0.37406086  0.16840802  1  -0.145498  0  -0.004341  0.089354  0  3.912359  0
C  C95  1  0.60235378  0.30117704  0.19881800  1  0.137958  0  -0.00372  0.047533  0  4.058733  0
C  C96  1  0.64009571  0.26603867  0.19147812  1  -0.065189  0  -0.004364  0.089057  0  3.912977  0
C  C97  1  0.70976515  0.30057321  0.15690834  1  0.043867  0  -0.08819  -0.152216  0  3.968226  0
C  C98  1  0.53161130  0.26580575  0.23419199  1  -0.034844  0  -0.03937  -0.065561  0  4.107567  0
C  C99  1  0.47019384  0.23509270  0.26490050  1  -0.132752  0  -0.04019  -0.067778  0  4.108555  0
C  C100  1  0.39945225  0.19972226  0.30026424  1  0.067179  0  -0.00389  0.048559  0  4.05853  0
C  C101  1  0.36171319  0.23467180  0.30845446  1  -0.199574  0  -0.004288  0.087934  0  3.912572  0
C  C102  1  0.29202948  0.20008627  0.34336794  1  0.148371  0  -0.087222  -0.149542  0  3.963772  0
C  C103  1  0.25694626  0.12846942  0.37150620  1  -0.025831  0  -0.011612  -0.004106  0  3.965198  0
C  C104  1  0.29202862  0.09194719  0.36455802  1  0.10598  0  -0.087181  -0.148856  0  3.963932  0
C  C105  1  0.36171018  0.12704066  0.32979639  1  -0.128843  0  -0.004371  0.087671  0  3.912774  0
C  C106  1  0.25521648  0.62756341  0.87238013  1  -0.029184  0  -0.012362  -0.003851  0  3.968556  0
C  C107  1  0.29025507  0.63324552  0.90917913  1  0.119981  0  -0.088473  -0.152184  0  3.968358  0
C  C108  1  0.35992148  0.66833293  0.87404735  1  -0.145857  0  -0.004469  0.088638  0  3.913037  0
C  C109  1  0.39765265  0.69876883  0.80115915  1  0.138231  0  -0.003733  0.04813  0  4.05815  0
C  C110  1  0.35989995  0.69145128  0.76601805  1  -0.066525  0  -0.00428  0.088606  0  3.912819  0
C  C111  1  0.29023372  0.65688554  0.80055430  1  0.044397  0  -0.088075  -0.15171  0  3.968456  0
C  C112  1  0.46839875  0.73415676  0.76578170  1  -0.033483  0  -0.039346  -0.065663  0  4.107837  0
C  C113  1  0.52981100  0.76487865  0.73507967  1  -0.132786  0  -0.040147  -0.06774  0  4.108962  0
C  C114  1  0.60055251  0.80026147  0.69970982  1  0.066874  0  -0.003976  0.048507  0  4.058548  0
C  C115  1  0.63829374  0.80846966  0.73465883  1  -0.199376  0  -0.004386  0.087827  0  3.912577  0
C  C116  1  0.70797673  0.84338495  0.70007208  1  0.149181  0  -0.087145  -0.149134  0  3.963792  0
C  C117  1  0.74305744  0.87151740  0.62846068  1  -0.025933  0  -0.011609  -0.004383  0  3.965461  0
C  C118  1  0.70796887  0.86456610  0.59193216  1  0.105939  0  -0.087266  -0.14897  0  3.96351  0
C  C119  1  0.63828466  0.82979423  0.62702809  1  -0.128052  0  -0.004382  0.08762  0  3.913015  0
Br  Br120  1  0.10251747  0.67798982  0.22904743  1  -0.03651  0  0.025024  -0.060167  0  1.414987  0
Br  Br121  1  0.89749018  0.72901198  0.17798186  1  -0.036765  0  0.024986  -0.060229  0  1.41488  0
Br  Br122  1  0.10113114  0.77016597  0.32483438  1  -0.031884  0  0.025002  -0.060437  0  1.4155  0
Br  Br123  1  0.89867002  0.82460276  0.27033239  1  -0.030815  0  0.024925  -0.060394  0  1.415358  0
Br  Br124  1  0.89749042  0.16845796  0.92453080  1  -0.039225  0  0.024975  -0.060294  0  1.414983  0
Br  Br125  1  0.10254704  0.42451336  0.66849403  1  -0.038813  0  0.024931  -0.06027  0  1.414631  0
Br  Br126  1  0.89865973  0.07406217  0.83097231  1  -0.039061  0  0.024884  -0.060447  0  1.415344  0
Br  Br127  1  0.10116835  0.33096025  0.57407837  1  -0.039504  0  0.024908  -0.060502  0  1.415455  0
Br  Br128  1  0.59496589  0.16904931  0.22963992  1  -0.028913  0  0.024807  -0.060569  0  1.415437  0
Br  Br129  1  0.59496135  0.42592200  0.17535358  1  -0.036514  0  0.024901  -0.060526  0  1.415337  0
Br  Br130  1  0.40701223  0.07547362  0.32201090  1  -0.032364  0  0.024952  -0.060289  0  1.414813  0
Br  Br131  1  0.40701165  0.33154241  0.27090636  1  -0.034306  0  0.024971  -0.060275  0  1.414875  0
Br  Br132  1  0.40502101  0.72963720  0.66902174  1  -0.028499  0  0.024883  -0.060426  0  1.415248  0
Br  Br133  1  0.40505359  0.67523060  0.92592625  1  -0.035618  0  0.024829  -0.060545  0  1.415526  0
Br  Br134  1  0.59298203  0.82200626  0.57545999  1  -0.032841  0  0.025025  -0.060183  0  1.414997  0
Br  Br135  1  0.59300055  0.77095710  0.83152102  1  -0.034354  0  0.025074  -0.060212  0  1.415029  0
N  N136  1  0.91198575  0.79979087  0.78895991  1  -1.242426  0  -0.612035  -0.617486  0  3.335437  0
N  N137  1  0.08875047  0.70093173  0.71103221  1  -1.234125  0  -0.611927  -0.617345  0  3.335288  0
N  N138  1  0.91126591  0.70024019  0.88779952  1  -1.241106  0  -0.612029  -0.617466  0  3.335253  0
N  N139  1  0.08806970  0.79908490  0.61218882  1  -1.228992  0  -0.612158  -0.617454  0  3.335045  0
N  N140  1  0.91197533  0.11222640  0.29903875  1  -1.231464  0  -0.612006  -0.617279  0  3.336019  0
N  N141  1  0.08877121  0.38782502  0.20024794  1  -1.24249  0  -0.611946  -0.61704  0  3.335066  0
N  N142  1  0.91128982  0.21107230  0.20089959  1  -1.2356  0  -0.612046  -0.617467  0  3.334741  0
N  N143  1  0.08805717  0.28897293  0.29979172  1  -1.241405  0  -0.61188  -0.617325  0  3.334504  0
O  O144  1  0.00000297  0.00000299  0.49999354  1  -1.232073  0  -0.57408  -1.025361  0  2.564655  0
O  O145  1  0.15292997  0.02642536  0.43039851  1  -1.169016  0  -0.312936  -0.541668  0  2.330232  0
O  O146  1  0.04446641  0.15547012  0.37968048  1  -1.175789  0  -0.316907  -0.553531  0  2.377586  0
O  O147  1  0.96319645  0.93915614  0.40945629  1  -1.173988  0  -0.3137  -0.543711  0  2.335409  0
O  O148  1  0.15293537  0.12650181  0.41663904  1  -1.168275  0  -0.312735  -0.541622  0  2.331334  0
O  O149  1  0.03675954  0.90946011  0.43915614  1  -1.172077  0  -0.313677  -0.543861  0  2.334707  0
O  O150  1  0.95553241  0.07588143  0.38898328  1  -1.182871  0  -0.316746  -0.553354  0  2.377452  0
O  O151  1  0.84706205  0.93043166  0.52641392  1  -1.169388  0  -0.312802  -0.541685  0  2.331154  0
O  O152  1  0.95557984  0.87970512  0.65545605  1  -1.176644  0  -0.316851  -0.553495  0  2.377705  0
O  O153  1  0.84707435  0.91661285  0.62650406  1  -1.167456  0  -0.312775  -0.541829  0  2.330549  0
O  O154  1  0.04450766  0.88902406  0.57584972  1  -1.183311  0  -0.316866  -0.553575  0  2.377377  0
O  O155  1  0.03678109  0.12732139  0.52407905  1  -1.177793  0  -0.313559  -0.543704  0  2.335172  0
O  O156  1  0.96319125  0.02406839  0.62731510  1  -1.178055  0  -0.313654  -0.543941  0  2.335032  0
O  O157  1  0.00001079  0.50000929  0.00000135  1  -1.232349  0  -0.57407  -1.025358  0  2.564711  0
O  O158  1  0.95687546  0.58335822  0.06956970  1  -1.165595  0  -0.312723  -0.541701  0  2.330622  0
O  O159  1  0.03519717  0.42417005  0.12031321  1  -1.178869  0  -0.316972  -0.553875  0  2.377125  0
O  O160  1  0.84861260  0.37268650  0.09052284  1  -1.175293  0  -0.313574  -0.54364  0  2.335676  0
O  O161  1  0.04317764  0.56958250  0.08336643  1  -1.165051  0  -0.312689  -0.541415  0  2.331338  0
O  O162  1  0.84861565  0.47593281  0.06086301  1  -1.172668  0  -0.313591  -0.543637  0  2.334839  0
O  O163  1  0.96488811  0.34456508  0.11099818  1  -1.179069  0  -0.316794  -0.553664  0  2.377715  0
O  O164  1  0.95686351  0.37348538  0.97358788  1  -1.175479  0  -0.31281  -0.541756  0  2.331249  0
O  O165  1  0.03512605  0.61098963  0.84453348  1  -1.17962  0  -0.316718  -0.553257  0  2.377481  0
O  O166  1  0.04315277  0.47356449  0.87350833  1  -1.174451  0  -0.312782  -0.541717  0  2.330321  0
O  O167  1  0.96484923  0.62032035  0.92413852  1  -1.17848  0  -0.316803  -0.553328  0  2.377486  0
O  O168  1  0.15141195  0.56086783  0.97591253  1  -1.172591  0  -0.313477  -0.543594  0  2.335523  0
O  O169  1  0.15138171  0.59053802  0.87267273  1  -1.175106  0  -0.313691  -0.543937  0  2.334626  0
