# generated using pymatgen
data_ZnH9C16N7O
_symmetry_space_group_name_H-M   'P 1'
_cell_length_a   8.48507315
_cell_length_b   12.60959690
_cell_length_c   15.61711226
_cell_angle_alpha   90.00020775
_cell_angle_beta   89.99984369
_cell_angle_gamma   90.00009443
_symmetry_Int_Tables_number   1
_chemical_formula_structural   ZnH9C16N7O
_chemical_formula_sum   'Zn4 H36 C64 N28 O4'
_cell_volume   1670.92719042
_cell_formula_units_Z   4
loop_
 _symmetry_equiv_pos_site_id
 _symmetry_equiv_pos_as_xyz
  1  'x, y, z'
loop_
 _atom_site_type_symbol
 _atom_site_label
 _atom_site_symmetry_multiplicity
 _atom_site_fract_x
 _atom_site_fract_y
 _atom_site_fract_z
 _atom_site_occupancy
 _atom_site_hle17_bader_spin_density
 _atom_site_hle17_ddec_charge
 _atom_site_hle17_ddec_spin_density
 _atom_site_hle17_ddec_sum_bond_order
 _atom_site_hle17_magmom
 _atom_site_hse06_10hf_bader_spin_density
 _atom_site_hse06_10hf_ddec_charge
 _atom_site_hse06_10hf_ddec_spin_density
 _atom_site_hse06_10hf_ddec_sum_bond_order
 _atom_site_hse06_10hf_magmom
 _atom_site_hse06_bader_spin_density
 _atom_site_hse06_ddec_charge
 _atom_site_hse06_ddec_spin_density
 _atom_site_hse06_ddec_sum_bond_order
 _atom_site_hse06_magmom
 _atom_site_pbe_bader_spin_density
 _atom_site_pbe_cm5_charge
 _atom_site_pbe_ddec_charge
 _atom_site_pbe_ddec_spin_density
 _atom_site_pbe_ddec_sum_bond_order
 _atom_site_pbe_magmom
Zn  Zn0  1  0.18772698  0.40275467  0.80121260  1  0  1.101712  0  1.9866  0  0  0.932069  0  2.474419  0  0  0.974275  0  2.41897  0  0  0.748265  0.90311  0  2.512165  0
Zn  Zn1  1  0.31227424  0.59724754  0.30121254  1  0  1.101702  0  1.986619  0  0  0.932035  0  2.474451  0  0  0.974241  0  2.419005  0  0  0.748246  0.903077  0  2.512197  0
Zn  Zn2  1  0.81227167  0.90275332  0.69878740  1  0  1.101692  0  1.98661  0  0  0.932009  0  2.474463  0  0  0.974216  0  2.419013  0  0  0.748225  0.903049  0  2.512209  0
Zn  Zn3  1  0.68772616  0.09724819  0.19878734  1  0  1.101706  0  1.986558  0  0  0.93206  0  2.47435  0  0  0.974265  0  2.418905  0  0  0.74826  0.903099  0  2.512094  0
H  H4  1  0.97378838  0.20916361  0.77710932  1  0  0.089366  0  0.931498  0  0  0.097278  0  0.994645  0  0  0.099668  0  0.992996  0  0  0.121916  0.095495  0  0.995981  0
H  H5  1  0.52621848  0.79083666  0.27710898  1  0  0.089401  0  0.931413  0  0  0.097294  0  0.994601  0  0  0.099683  0  0.992952  0  0  0.121917  0.095513  0  0.995935  0
H  H6  1  0.02621568  0.70916150  0.72288947  1  0  0.089391  0  0.931429  0  0  0.09728  0  0.994617  0  0  0.09967  0  0.992967  0  0  0.121929  0.095497  0  0.995953  0
H  H7  1  0.47378475  0.29084035  0.22289083  1  0  0.089375  0  0.931447  0  0  0.097272  0  0.994643  0  0  0.099661  0  0.992994  0  0  0.121915  0.095489  0  0.995979  0
H  H8  1  0.70320008  0.15186513  0.81952893  1  0  0.102989  0  0.961706  0  0  0.113196  0  1.020765  0  0  0.115384  0  1.021258  0  0  0.109507  0.11162  0  1.020571  0
H  H9  1  0.79680774  0.84813295  0.31953027  1  0  0.102976  0  0.961785  0  0  0.113175  0  1.020847  0  0  0.115363  0  1.021341  0  0  0.109512  0.111599  0  1.020651  0
H  H10  1  0.29680738  0.65186630  0.68046777  1  0  0.10299  0  0.961766  0  0  0.113198  0  1.020821  0  0  0.115386  0  1.021315  0  0  0.109538  0.111622  0  1.020625  0
H  H11  1  0.20319327  0.34813456  0.18047162  1  0  0.103025  0  0.961693  0  0  0.113247  0  1.020727  0  0  0.115434  0  1.021221  0  0  0.109551  0.111671  0  1.020532  0
H  H12  1  0.53944538  0.27485332  0.91158210  1  0  0.104756  0  0.931823  0  0  0.117272  0  0.98549  0  0  0.119683  0  0.984563  0  0  0.11259  0.115513  0  0.986201  0
H  H13  1  0.96056199  0.72514438  0.41158412  1  0  0.104778  0  0.931859  0  0  0.11728  0  0.985535  0  0  0.119674  0  0.984637  0  0  0.112558  0.115522  0  0.986246  0
H  H14  1  0.46056356  0.77485743  0.58841495  1  0  0.104775  0  0.931839  0  0  0.117253  0  0.985537  0  0  0.119661  0  0.984618  0  0  0.112551  0.115494  0  0.986248  0
H  H15  1  0.03943637  0.22514461  0.08841806  1  0  0.104781  0  0.931866  0  0  0.117294  0  0.985533  0  0  0.119704  0  0.98461  0  0  0.112562  0.115534  0  0.986242  0
H  H16  1  0.65585461  0.44791374  0.95612316  1  0  0.107908  0  0.991548  0  0  0.110286  0  1.064238  0  0  0.113593  0  1.063711  0  0  0.107272  0.107945  0  1.064672  0
H  H17  1  0.84414664  0.55208575  0.45612356  1  0  0.107993  0  0.991474  0  0  0.1104  0  1.06414  0  0  0.113669  0  1.06365  0  0  0.1073  0.108059  0  1.064574  0
H  H18  1  0.34414415  0.94791593  0.54387569  1  0  0.107976  0  0.99146  0  0  0.110366  0  1.064154  0  0  0.113671  0  1.063627  0  0  0.107302  0.108027  0  1.064582  0
H  H19  1  0.15585247  0.05208591  0.04387683  1  0  0.107972  0  0.991414  0  0  0.110349  0  1.064121  0  0  0.113651  0  1.063598  0  0  0.107282  0.108008  0  1.064556  0
H  H20  1  0.93432765  0.73718471  0.90228627  1  0  0.099778  0  0.955559  0  0  0.106639  0  1.023109  0  0  0.109217  0  1.022192  0  0  0.103488  0.104798  0  1.023801  0
H  H21  1  0.56567269  0.26281533  0.40228625  1  0  0.09976  0  0.955611  0  0  0.106615  0  1.023164  0  0  0.109193  0  1.022248  0  0  0.10347  0.104774  0  1.023856  0
H  H22  1  0.06566470  0.23718184  0.59771451  1  0  0.099774  0  0.955523  0  0  0.106632  0  1.023077  0  0  0.109209  0  1.022161  0  0  0.103481  0.10479  0  1.02377  0
H  H23  1  0.43433283  0.76281866  0.09771348  1  0  0.099751  0  0.955612  0  0  0.106617  0  1.023153  0  0  0.109195  0  1.022236  0  0  0.103488  0.104777  0  1.023845  0
H  H24  1  0.84945390  0.85769328  0.02007604  1  0  0.08893  0  0.967144  0  0  0.099196  0  1.026817  0  0  0.101389  0  1.02666  0  0  0.099278  0.097624  0  1.027001  0
H  H25  1  0.65054482  0.14230584  0.52007411  1  0  0.088935  0  0.967143  0  0  0.099208  0  1.026807  0  0  0.101402  0  1.026649  0  0  0.099274  0.097638  0  1.02699  0
H  H26  1  0.15055186  0.35768904  0.47992653  1  0  0.088919  0  0.967173  0  0  0.099224  0  1.026795  0  0  0.101417  0  1.026639  0  0  0.09931  0.097652  0  1.026973  0
H  H27  1  0.34944847  0.64231000  0.97992640  1  0  0.088895  0  0.96721  0  0  0.099212  0  1.026823  0  0  0.101405  0  1.026667  0  0  0.09931  0.09764  0  1.027001  0
H  H28  1  0.76490027  0.78403298  0.15887694  1  0  0.085454  0  0.974513  0  0  0.092837  0  1.044402  0  0  0.095192  0  1.043484  0  0  0.09809  0.091139  0  1.045108  0
H  H29  1  0.73509893  0.21596755  0.65887638  1  0  0.085437  0  0.974535  0  0  0.092833  0  1.044419  0  0  0.095189  0  1.0435  0  0  0.098088  0.091138  0  1.045121  0
H  H30  1  0.23510766  0.28402742  0.34112541  1  0  0.085348  0  0.974426  0  0  0.092748  0  1.044316  0  0  0.095105  0  1.043394  0  0  0.098072  0.091053  0  1.045016  0
H  H31  1  0.26489100  0.71597020  0.84112563  1  0  0.085353  0  0.974557  0  0  0.092785  0  1.044411  0  0  0.095142  0  1.043491  0  0  0.098072  0.09109  0  1.045113  0
H  H32  1  0.76714391  0.58796333  0.18331907  1  0  0.091779  0  0.960599  0  0  0.099099  0  1.024879  0  0  0.101429  0  1.025589  0  0  0.097442  0.097463  0  1.024442  0
H  H33  1  0.73285871  0.41203732  0.68331909  1  0  0.091775  0  0.960633  0  0  0.099114  0  1.024893  0  0  0.101444  0  1.025602  0  0  0.097429  0.097479  0  1.024455  0
H  H34  1  0.23285647  0.08795766  0.31668078  1  0  0.091819  0  0.960556  0  0  0.099106  0  1.024862  0  0  0.101434  0  1.025575  0  0  0.097431  0.09747  0  1.024427  0
H  H35  1  0.26714349  0.91203986  0.81668093  1  0  0.091836  0  0.960575  0  0  0.099125  0  1.024869  0  0  0.101453  0  1.025583  0  0  0.097437  0.09749  0  1.024433  0
H  H36  1  0.84604379  0.46735418  0.06581056  1  0  0.090901  0  0.949505  0  0  0.103443  0  1.005859  0  0  0.105913  0  1.005067  0  0  0.102302  0.101668  0  1.006479  0
H  H37  1  0.65395235  0.53264356  0.56581104  1  0  0.090904  0  0.949543  0  0  0.103453  0  1.005889  0  0  0.105922  0  1.005097  0  0  0.102298  0.101656  0  1.006538  0
H  H38  1  0.15394691  0.96735316  0.43418849  1  0  0.090868  0  0.949546  0  0  0.103446  0  1.005847  0  0  0.105915  0  1.005054  0  0  0.102263  0.101644  0  1.0065  0
H  H39  1  0.34605129  0.03264568  0.93418978  1  0  0.090873  0  0.949516  0  0  0.103431  0  1.005849  0  0  0.105899  0  1.005057  0  0  0.102278  0.101648  0  1.006477  0
C  C40  1  0.89949906  0.25975132  0.81691066  1  0  0.14774  0  3.667217  0  0  0.114738  0  3.921499  0  0  0.121093  0  3.938488  0  0  0.062004  0.110605  0  3.909939  0
C  C41  1  0.60050525  0.74024755  0.31691070  1  0  0.147727  0  3.667297  0  0  0.114717  0  3.921559  0  0  0.121074  0  3.938551  0  0  0.061999  0.110587  0  3.909997  0
C  C42  1  0.10050277  0.75975228  0.68308827  1  0  0.147698  0  3.667255  0  0  0.114696  0  3.921521  0  0  0.121053  0  3.93851  0  0  0.061977  0.110566  0  3.909958  0
C  C43  1  0.39949433  0.24025098  0.18308896  1  0  0.147613  0  3.667216  0  0  0.114587  0  3.921514  0  0  0.120944  0  3.938505  0  0  0.061913  0.110456  0  3.909952  0
C  C44  1  0.74797640  0.22828161  0.84108741  1  0  -0.100644  0  3.704687  0  0  -0.114474  0  3.956383  0  0  -0.120583  0  3.977945  0  0  -0.071555  -0.110573  0  3.941912  0
C  C45  1  0.75202425  0.77171737  0.34108860  1  0  -0.100588  0  3.704731  0  0  -0.11442  0  3.956435  0  0  -0.120529  0  3.977994  0  0  -0.071548  -0.110517  0  3.941962  0
C  C46  1  0.25202417  0.72828184  0.65891079  1  0  -0.100514  0  3.704594  0  0  -0.114368  0  3.956295  0  0  -0.120478  0  3.977857  0  0  -0.071512  -0.110466  0  3.941822  0
C  C47  1  0.24797540  0.27172052  0.15891180  1  0  -0.100509  0  3.704456  0  0  -0.114349  0  3.956159  0  0  -0.120459  0  3.977721  0  0  -0.071505  -0.110448  0  3.941687  0
C  C48  1  0.65884454  0.29576202  0.89224044  1  0  0.010632  0  3.681338  0  0  -0.007871  0  3.930266  0  0  -0.005513  0  3.948854  0  0  -0.057692  -0.009193  0  3.91759  0
C  C49  1  0.84116175  0.70423560  0.39224258  1  0  0.010531  0  3.681275  0  0  -0.007957  0  3.930217  0  0  -0.005588  0  3.948804  0  0  -0.05766  -0.009281  0  3.917543  0
C  C50  1  0.34116092  0.79576529  0.60775668  1  0  0.010533  0  3.681335  0  0  -0.007913  0  3.930265  0  0  -0.005554  0  3.948854  0  0  -0.057652  -0.009237  0  3.91759  0
C  C51  1  0.15883774  0.20423763  0.10775954  1  0  0.010467  0  3.68146  0  0  -0.008037  0  3.930403  0  0  -0.005678  0  3.948987  0  0  -0.057702  -0.009357  0  3.917724  0
C  C52  1  0.72374327  0.39264229  0.91747759  1  0  -0.110522  0  3.688037  0  0  -0.133992  0  3.941467  0  0  -0.13882  0  3.961878  0  0  -0.069712  -0.130891  0  3.927826  0
C  C53  1  0.77625936  0.60735702  0.41748018  1  0  -0.110605  0  3.688034  0  0  -0.134097  0  3.941425  0  0  -0.13889  0  3.961851  0  0  -0.069796  -0.130993  0  3.927781  0
C  C54  1  0.27625889  0.89264221  0.58252045  1  0  -0.110587  0  3.688071  0  0  -0.134097  0  3.941497  0  0  -0.13892  0  3.961906  0  0  -0.069781  -0.130991  0  3.927852  0
C  C55  1  0.22373989  0.10735902  0.08252229  1  0  -0.110548  0  3.688108  0  0  -0.134011  0  3.941504  0  0  -0.138832  0  3.961916  0  0  -0.069745  -0.130909  0  3.92786  0
C  C56  1  0.87542385  0.41887472  0.89037712  1  0  0.124757  0  3.735511  0  0  0.122038  0  3.976858  0  0  0.123473  0  3.997038  0  0  0.113197  0.12103  0  3.963363  0
C  C57  1  0.62458127  0.58112606  0.39037794  1  0  0.12474  0  3.735471  0  0  0.122048  0  3.976835  0  0  0.123485  0  3.997006  0  0  0.113266  0.121044  0  3.963333  0
C  C58  1  0.12457719  0.91887300  0.60962036  1  0  0.124689  0  3.735533  0  0  0.121998  0  3.976871  0  0  0.123429  0  3.997052  0  0  0.11319  0.120989  0  3.963376  0
C  C59  1  0.37541910  0.08112835  0.10962254  1  0  0.12481  0  3.735462  0  0  0.122094  0  3.976815  0  0  0.12353  0  3.996992  0  0  0.113289  0.121087  0  3.963316  0
C  C60  1  0.94808684  0.52592104  0.90536911  1  0  0.369885  0  3.70708  0  0  0.346079  0  3.969673  0  0  0.369541  0  3.970894  0  0  0.169625  0.330122  0  3.968585  0
C  C61  1  0.55191349  0.47407902  0.40536972  1  0  0.370029  0  3.706796  0  0  0.346076  0  3.969589  0  0  0.36954  0  3.97081  0  0  0.169604  0.330118  0  3.968502  0
C  C62  1  0.05190735  0.02591654  0.59462978  1  0  0.370103  0  3.706979  0  0  0.346204  0  3.969678  0  0  0.369669  0  3.970897  0  0  0.169655  0.330246  0  3.968593  0
C  C63  1  0.44809020  0.97408394  0.09463062  1  0  0.369851  0  3.707041  0  0  0.345953  0  3.969788  0  0  0.369416  0  3.971007  0  0  0.169543  0.329996  0  3.968703  0
C  C64  1  0.89322570  0.59455381  0.97581249  1  0  -0.044653  0  3.791889  0  0  -0.024683  0  4.022357  0  0  -0.033511  0  4.048679  0  0  -0.020563  -0.01878  0  4.004444  0
C  C65  1  0.60677309  0.40544656  0.47581218  1  0  -0.044643  0  3.791881  0  0  -0.024661  0  4.022396  0  0  -0.033488  0  4.048716  0  0  -0.020588  -0.018757  0  4.004477  0
C  C66  1  0.10676630  0.09454906  0.52418852  1  0  -0.044619  0  3.791846  0  0  -0.02467  0  4.022386  0  0  -0.0335  0  4.048708  0  0  -0.020574  -0.018765  0  4.004468  0
C  C67  1  0.39323042  0.90545031  0.02418796  1  0  -0.044554  0  3.791758  0  0  -0.024581  0  4.02227  0  0  -0.033411  0  4.048591  0  0  -0.020566  -0.018679  0  4.004359  0
C  C68  1  0.89708559  0.70509578  0.96379955  1  0  -0.057106  0  3.704986  0  0  -0.080219  0  3.948529  0  0  -0.07968  0  3.969917  0  0  -0.075653  -0.0804  0  3.933953  0
C  C69  1  0.60290973  0.29490216  0.46379956  1  0  -0.057164  0  3.704981  0  0  -0.080262  0  3.948508  0  0  -0.079723  0  3.969898  0  0  -0.075645  -0.080445  0  3.933934  0
C  C70  1  0.10291022  0.20509346  0.53620115  1  0  -0.057095  0  3.704775  0  0  -0.080192  0  3.948321  0  0  -0.079653  0  3.969709  0  0  -0.075603  -0.080377  0  3.933748  0
C  C71  1  0.39709115  0.79490517  0.03620090  1  0  -0.057091  0  3.704828  0  0  -0.080201  0  3.948373  0  0  -0.07966  0  3.96976  0  0  -0.075595  -0.080386  0  3.933801  0
C  C72  1  0.85022100  0.77221238  0.02963658  1  0  -0.06555  0  3.749012  0  0  -0.074833  0  3.992635  0  0  -0.078751  0  4.015158  0  0  -0.08648  -0.072229  0  3.977282  0
C  C73  1  0.64978239  0.22778837  0.52963554  1  0  -0.065481  0  3.748967  0  0  -0.07477  0  3.992581  0  0  -0.078689  0  4.015107  0  0  -0.086435  -0.072165  0  3.97723  0
C  C74  1  0.14978337  0.27220889  0.47036510  1  0  -0.065523  0  3.748863  0  0  -0.074842  0  3.992487  0  0  -0.078761  0  4.01501  0  0  -0.086512  -0.07223  0  3.977132  0
C  C75  1  0.35021818  0.72779011  0.97036458  1  0  -0.065491  0  3.748887  0  0  -0.07482  0  3.992521  0  0  -0.078738  0  4.015044  0  0  -0.086525  -0.072209  0  3.977165  0
C  C76  1  0.80307678  0.73028652  0.10844946  1  0  -0.039896  0  3.733698  0  0  -0.05843  0  3.983201  0  0  -0.058816  0  4.004809  0  0  -0.07928  -0.057893  0  3.968338  0
C  C77  1  0.69692621  0.26971299  0.60844783  1  0  -0.039828  0  3.733622  0  0  -0.05839  0  3.983145  0  0  -0.058774  0  4.004754  0  0  -0.079281  -0.057852  0  3.968282  0
C  C78  1  0.19692866  0.23028353  0.39155401  1  0  -0.039759  0  3.733454  0  0  -0.058334  0  3.983005  0  0  -0.058715  0  4.004608  0  0  -0.079308  -0.057796  0  3.968143  0
C  C79  1  0.30306740  0.76971432  0.89155369  1  0  -0.039785  0  3.733482  0  0  -0.058377  0  3.98301  0  0  -0.058761  0  4.004616  0  0  -0.079283  -0.057841  0  3.968148  0
C  C80  1  0.80274545  0.62078107  0.12172832  1  0  -0.070194  0  3.760976  0  0  -0.080844  0  4.010254  0  0  -0.085143  0  4.03377  0  0  -0.090873  -0.077998  0  3.994206  0
C  C81  1  0.69724923  0.37922088  0.62173022  1  0  -0.07039  0  3.760837  0  0  -0.081055  0  4.010132  0  0  -0.085358  0  4.033648  0  0  -0.090965  -0.078208  0  3.994075  0
C  C82  1  0.19725148  0.12077643  0.37827163  1  0  -0.070395  0  3.760696  0  0  -0.081007  0  4.009986  0  0  -0.08531  0  4.033499  0  0  -0.09091  -0.078161  0  3.993933  0
C  C83  1  0.30274700  0.87922216  0.87827099  1  0  -0.070425  0  3.760732  0  0  -0.081043  0  4.010032  0  0  -0.085344  0  4.033546  0  0  -0.090963  -0.078198  0  3.993984  0
C  C84  1  0.84594021  0.55282873  0.05537662  1  0  -0.079952  0  3.732271  0  0  -0.101316  0  3.974394  0  0  -0.101683  0  3.996504  0  0  -0.082427  -0.100836  0  3.959247  0
C  C85  1  0.65405598  0.44717054  0.55537493  1  0  -0.079819  0  3.732178  0  0  -0.101175  0  3.974274  0  0  -0.101538  0  3.99638  0  0  -0.082324  -0.100675  0  3.959134  0
C  C86  1  0.15405773  0.05282434  0.44462634  1  0  -0.079819  0  3.732025  0  0  -0.10118  0  3.974082  0  0  -0.101543  0  3.996188  0  0  -0.082297  -0.100675  0  3.958944  0
C  C87  1  0.34594277  0.94717295  0.94462583  1  0  -0.079834  0  3.732067  0  0  -0.10119  0  3.974138  0  0  -0.101553  0  3.996244  0  0  -0.082311  -0.100699  0  3.958991  0
C  C88  1  0.33597863  0.42023948  0.99201539  1  0  0.494876  0  3.992352  0  0  0.457804  0  4.279769  0  0  0.483021  0  4.29164  0  0  0.300335  0.440607  0  4.271424  0
C  C89  1  0.16402045  0.57976120  0.49201486  1  0  0.494782  0  3.992453  0  0  0.457705  0  4.279876  0  0  0.482923  0  4.291746  0  0  0.300278  0.440511  0  4.271531  0
C  C90  1  0.66402241  0.92023870  0.50798593  1  0  0.494872  0  3.992587  0  0  0.457836  0  4.279971  0  0  0.483051  0  4.291839  0  0  0.300407  0.440657  0  4.271635  0
C  C91  1  0.83597755  0.07975799  0.00798753  1  0  0.494895  0  3.992301  0  0  0.457833  0  4.279702  0  0  0.483053  0  4.29157  0  0  0.300396  0.440641  0  4.27136  0
C  C92  1  0.40944053  0.50838787  0.11547954  1  0  0.513136  0  3.987616  0  0  0.474935  0  4.27283  0  0  0.500729  0  4.283688  0  0  0.31274  0.457343  0  4.265177  0
C  C93  1  0.09056045  0.49161588  0.61548256  1  0  0.513252  0  3.987677  0  0  0.47506  0  4.272876  0  0  0.500855  0  4.283731  0  0  0.312791  0.457469  0  4.265227  0
C  C94  1  0.59055612  0.00838290  0.38451368  1  0  0.513191  0  3.987743  0  0  0.47503  0  4.272946  0  0  0.500823  0  4.283803  0  0  0.312801  0.457454  0  4.265299  0
C  C95  1  0.90944077  0.99161151  0.88451898  1  0  0.513126  0  3.987806  0  0  0.474926  0  4.273021  0  0  0.500721  0  4.28388  0  0  0.312726  0.457337  0  4.265369  0
C  C96  1  0.50235029  0.54158874  0.78478251  1  0  0.516774  0  3.991248  0  0  0.477443  0  4.275982  0  0  0.503727  0  4.287118  0  0  0.321132  0.459503  0  4.268142  0
C  C97  1  0.99765654  0.45841077  0.28478049  1  0  0.516683  0  3.991194  0  0  0.477357  0  4.275915  0  0  0.503644  0  4.287055  0  0  0.32111  0.459418  0  4.268072  0
C  C98  1  0.49765101  0.04158846  0.71521963  1  0  0.516638  0  3.991215  0  0  0.477299  0  4.275953  0  0  0.503579  0  4.287096  0  0  0.32105  0.459359  0  4.268111  0
C  C99  1  0.00233650  0.95841494  0.21521789  1  0  0.51675  0  3.991385  0  0  0.477416  0  4.276108  0  0  0.503699  0  4.287246  0  0  0.321156  0.459477  0  4.268266  0
C  C100  1  0.67909620  0.67581511  0.75681390  1  0  0.52603  0  3.983075  0  0  0.489929  0  4.260236  0  0  0.516436  0  4.270829  0  0  0.322675  0.471861  0  4.25275  0
C  C101  1  0.82090723  0.32418348  0.25681495  1  0  0.526028  0  3.98317  0  0  0.489913  0  4.26035  0  0  0.516421  0  4.270944  0  0  0.322665  0.471846  0  4.252862  0
C  C102  1  0.32090661  0.17581635  0.74318735  1  0  0.525923  0  3.983021  0  0  0.4898  0  4.26021  0  0  0.516304  0  4.270811  0  0  0.322643  0.471732  0  4.252719  0
C  C103  1  0.17908901  0.82418084  0.24318240  1  0  0.526175  0  3.983136  0  0  0.490046  0  4.260333  0  0  0.516553  0  4.270925  0  0  0.322726  0.471977  0  4.252849  0
N  N104  1  0.96068774  0.35282655  0.84057262  1  0  -0.327992  0  3.297452  0  0  -0.253691  0  3.553675  0  0  -0.269987  0  3.569911  0  0  -0.310067  -0.242607  0  3.542541  0
N  N105  1  0.53931526  0.64717481  0.34057375  1  0  -0.327976  0  3.297437  0  0  -0.253633  0  3.5536  0  0  -0.269929  0  3.569836  0  0  -0.310046  -0.242551  0  3.542466  0
N  N106  1  0.03931313  0.85282337  0.65942531  1  0  -0.327992  0  3.29748  0  0  -0.253648  0  3.553632  0  0  -0.269943  0  3.569867  0  0  -0.310049  -0.242563  0  3.542496  0
N  N107  1  0.46068644  0.14717820  0.15942563  1  0  -0.327946  0  3.297379  0  0  -0.253601  0  3.553556  0  0  -0.269898  0  3.569792  0  0  -0.310034  -0.242517  0  3.542419  0
N  N108  1  0.25656868  0.38424688  0.93718772  1  0  -0.602987  0  2.801538  0  0  -0.564886  0  3.078689  0  0  -0.585931  0  3.083781  0  0  -0.379889  -0.550516  0  3.075145  0
N  N109  1  0.24343421  0.61575197  0.43718846  1  0  -0.602977  0  2.801555  0  0  -0.564866  0  3.078689  0  0  -0.585908  0  3.08378  0  0  -0.379882  -0.5505  0  3.075155  0
N  N110  1  0.74342756  0.88424961  0.56281030  1  0  -0.602999  0  2.801879  0  0  -0.564902  0  3.079  0  0  -0.585945  0  3.08409  0  0  -0.379913  -0.550525  0  3.075437  0
N  N111  1  0.75656506  0.11575446  0.06281020  1  0  -0.603013  0  2.801643  0  0  -0.564917  0  3.078782  0  0  -0.585958  0  3.08387  0  0  -0.37991  -0.550543  0  3.075228  0
N  N112  1  0.43784934  0.45332888  0.04751617  1  0  -0.464655  0  3.315889  0  0  -0.408224  0  3.574497  0  0  -0.432808  0  3.580003  0  0  -0.307015  -0.391086  0  3.570094  0
N  N113  1  0.06215079  0.54667139  0.54751555  1  0  -0.464603  0  3.315854  0  0  -0.408173  0  3.574472  0  0  -0.432757  0  3.579969  0  0  -0.306987  -0.391038  0  3.570071  0
N  N114  1  0.56215193  0.95332363  0.45248028  1  0  -0.464622  0  3.315691  0  0  -0.408243  0  3.574333  0  0  -0.432827  0  3.579835  0  0  -0.307103  -0.391144  0  3.569957  0
N  N115  1  0.93784816  0.04667346  0.95248276  1  0  -0.464644  0  3.315745  0  0  -0.408212  0  3.574352  0  0  -0.432808  0  3.579858  0  0  -0.307047  -0.391083  0  3.569954  0
N  N116  1  0.39892667  0.55908194  0.17854890  1  0  -0.597988  0  2.852766  0  0  -0.553723  0  3.142165  0  0  -0.574909  0  3.144085  0  0  -0.376377  -0.539327  0  3.140805  0
N  N117  1  0.10107045  0.44092289  0.67855047  1  0  -0.598079  0  2.852918  0  0  -0.553824  0  3.142318  0  0  -0.575008  0  3.144233  0  0  -0.376398  -0.539425  0  3.140959  0
N  N118  1  0.60106774  0.05907907  0.32145023  1  0  -0.59808  0  2.852998  0  0  -0.553827  0  3.142385  0  0  -0.575012  0  3.144302  0  0  -0.376396  -0.539427  0  3.141019  0
N  N119  1  0.89892947  0.94091823  0.82145283  1  0  -0.598007  0  2.85295  0  0  -0.553745  0  3.142347  0  0  -0.574927  0  3.144265  0  0  -0.37638  -0.539346  0  3.140982  0
N  N120  1  0.38162999  0.49588301  0.78661514  1  0  -0.592451  0  2.909553  0  0  -0.538894  0  3.203177  0  0  -0.561945  0  3.204912  0  0  -0.374942  -0.523224  0  3.201939  0
N  N121  1  0.11837837  0.50411754  0.28661766  1  0  -0.592434  0  2.909684  0  0  -0.538873  0  3.203285  0  0  -0.561926  0  3.205025  0  0  -0.37499  -0.523203  0  3.202046  0
N  N122  1  0.61837123  0.99588152  0.71338513  1  0  -0.592341  0  2.909672  0  0  -0.538766  0  3.203277  0  0  -0.561821  0  3.205018  0  0  -0.374875  -0.523097  0  3.202039  0
N  N123  1  0.88162416  0.00411609  0.21338451  1  0  -0.592453  0  2.910076  0  0  -0.538885  0  3.203665  0  0  -0.561936  0  3.205401  0  0  -0.374995  -0.523218  0  3.202428  0
N  N124  1  0.64086063  0.58350769  0.78553677  1  0  -0.454611  0  3.311498  0  0  -0.402002  0  3.571703  0  0  -0.427032  0  3.577696  0  0  -0.301843  -0.38462  0  3.567012  0
N  N125  1  0.85914619  0.41649342  0.28553612  1  0  -0.45455  0  3.31124  0  0  -0.401934  0  3.571437  0  0  -0.426967  0  3.577428  0  0  -0.301811  -0.384555  0  3.566744  0
N  N126  1  0.35914077  0.08350487  0.71446933  1  0  -0.454511  0  3.311233  0  0  -0.401886  0  3.571424  0  0  -0.426901  0  3.577414  0  0  -0.301806  -0.384503  0  3.566729  0
N  N127  1  0.14084675  0.91648822  0.21446150  1  0  -0.454617  0  3.31116  0  0  -0.40199  0  3.57134  0  0  -0.42702  0  3.577334  0  0  -0.301851  -0.384609  0  3.566646  0
N  N128  1  0.72849134  0.75732205  0.73213464  1  0  -0.597668  0  2.91098  0  0  -0.547656  0  3.206275  0  0  -0.569967  0  3.205874  0  0  -0.376667  -0.532526  0  3.206454  0
N  N129  1  0.77151104  0.24268198  0.23213233  1  0  -0.597625  0  2.911144  0  0  -0.547614  0  3.206429  0  0  -0.569923  0  3.206029  0  0  -0.376626  -0.53248  0  3.206603  0
N  N130  1  0.27150931  0.25732334  0.76786557  1  0  -0.597608  0  2.910951  0  0  -0.547592  0  3.206243  0  0  -0.569904  0  3.205847  0  0  -0.376663  -0.532462  0  3.206417  0
N  N131  1  0.22848972  0.74268030  0.26786606  1  0  -0.597768  0  2.91104  0  0  -0.547756  0  3.20635  0  0  -0.570068  0  3.205948  0  0  -0.376686  -0.532623  0  3.206529  0
O  O132  1  0.05297392  0.55624574  0.85539899  1  0  -0.460521  0  2.003213  0  0  -0.408523  0  2.232663  0  0  -0.428669  0  2.227718  0  0  -0.240819  -0.394742  0  2.235804  0
O  O133  1  0.44702467  0.44375671  0.35539573  1  0  -0.460657  0  2.003054  0  0  -0.408582  0  2.232543  0  0  -0.428728  0  2.227599  0  0  -0.240821  -0.394798  0  2.235684  0
O  O134  1  0.94701798  0.05624088  0.64460319  1  0  -0.460742  0  2.003068  0  0  -0.408672  0  2.232523  0  0  -0.428818  0  2.227573  0  0  -0.240874  -0.394889  0  2.235667  0
O  O135  1  0.55297776  0.94376197  0.14460261  1  0  -0.460582  0  2.003108  0  0  -0.408534  0  2.232564  0  0  -0.428679  0  2.227615  0  0  -0.240816  -0.394752  0  2.235708  0
