# generated using pymatgen
data_Zn4H12C36O37
_symmetry_space_group_name_H-M   'P 1'
_cell_length_a   18.12207601
_cell_length_b   18.12212054
_cell_length_c   18.12214142
_cell_angle_alpha   90.00005131
_cell_angle_beta   120.00049775
_cell_angle_gamma   119.99981170
_symmetry_Int_Tables_number   1
_chemical_formula_structural   Zn4H12C36O37
_chemical_formula_sum   'Zn8 H24 C72 O74'
_cell_volume   4208.32482537
_cell_formula_units_Z   2
loop_
 _symmetry_equiv_pos_site_id
 _symmetry_equiv_pos_as_xyz
  1  'x, y, z'
loop_
 _atom_site_type_symbol
 _atom_site_label
 _atom_site_symmetry_multiplicity
 _atom_site_fract_x
 _atom_site_fract_y
 _atom_site_fract_z
 _atom_site_occupancy
 _atom_site_pbe_bader_charge
 _atom_site_pbe_bader_spin_density
 _atom_site_pbe_cm5_charge
 _atom_site_pbe_ddec_charge
 _atom_site_pbe_ddec_spin_density
 _atom_site_pbe_ddec_sum_bond_order
 _atom_site_pbe_magmom
Zn  Zn0  1  0.58790020  0.63185537  0.04395264  1  1.317114  0  0.693745  0.980385  0  2.371835  0
Zn  Zn1  1  0.41210451  0.45605333  0.86814889  1  1.317104  0  0.693661  0.980239  0  2.371868  0
Zn  Zn2  1  0.41209700  0.45605614  0.04395666  1  1.324011  0  0.693836  0.980619  0  2.371744  0
Zn  Zn3  1  0.58790763  0.45604571  0.04395116  1  1.323943  0  0.693856  0.980734  0  2.371716  0
Zn  Zn4  1  0.41211718  0.86816205  0.45606097  1  1.31887  0  0.693685  0.980266  0  2.371788  0
Zn  Zn5  1  0.58790455  0.04395131  0.45604663  1  1.321017  0  0.693879  0.980619  0  2.371842  0
Zn  Zn6  1  0.58789649  0.04394872  0.63184688  1  1.319038  0  0.693762  0.980451  0  2.371742  0
Zn  Zn7  1  0.41209906  0.04396014  0.45605470  1  1.321077  0  0.693886  0.980654  0  2.37181  0
H  H8  1  0.86791718  0.50874567  0.25805389  1  0.649035  0  0.343258  0.398615  0  0.848233  0
H  H9  1  0.13211980  0.99128001  0.39013027  1  0.648455  0  0.343144  0.398557  0  0.848333  0
H  H10  1  0.13208868  0.64082495  0.24195517  1  0.654783  0  0.343281  0.39863  0  0.84831  0
H  H11  1  0.86789639  0.85917622  0.10984678  1  0.651044  0  0.34319  0.398609  0  0.848287  0
H  H12  1  0.13210602  0.24195484  0.99127984  1  0.649753  0  0.343208  0.398628  0  0.84829  0
H  H13  1  0.86789490  0.10985999  0.50872894  1  0.650497  0  0.343286  0.398656  0  0.848278  0
H  H14  1  0.86791213  0.25803206  0.85917646  1  0.653985  0  0.343142  0.398529  0  0.848097  0
H  H15  1  0.13209864  0.39013516  0.64083818  1  0.650232  0  0.343291  0.398674  0  0.848162  0
H  H16  1  0.25068576  0.50873253  0.10985315  1  0.654626  0  0.343281  0.398648  0  0.848398  0
H  H17  1  0.60112970  0.99127046  0.24196414  1  0.643871  0  0.343166  0.394716  0  0.853382  0
H  H18  1  0.39886840  0.64082758  0.39013366  1  0.661129  0  0.343202  0.394823  0  0.85323  0
H  H19  1  0.74931173  0.85917319  0.25804840  1  0.656614  0  0.343282  0.394813  0  0.853236  0
H  H20  1  0.74929943  0.39013994  0.99126680  1  0.654842  0  0.343339  0.398712  0  0.848317  0
H  H21  1  0.39886121  0.25803342  0.50874028  1  0.64341  0  0.343085  0.394688  0  0.853176  0
H  H22  1  0.60112889  0.10986391  0.85917938  1  0.66067  0  0.343216  0.394782  0  0.853413  0
H  H23  1  0.25067097  0.24195508  0.64083233  1  0.657168  0  0.343294  0.394799  0  0.853295  0
H  H24  1  0.39887413  0.50873205  0.64082748  1  0.655076  0  0.343279  0.394808  0  0.85341  0
H  H25  1  0.74930858  0.99127237  0.85917463  1  0.646526  0  0.343175  0.398586  0  0.848019  0
H  H26  1  0.25070127  0.64083553  0.50873006  1  0.646387  0  0.343164  0.398611  0  0.848009  0
H  H27  1  0.60113116  0.85917230  0.99127405  1  0.655094  0  0.34333  0.394819  0  0.85341  0
H  H28  1  0.60113230  0.24196154  0.10986419  1  0.654007  0  0.343305  0.394855  0  0.853314  0
H  H29  1  0.25069166  0.10985787  0.24195808  1  0.637631  0  0.343164  0.394707  0  0.853353  0
H  H30  1  0.74930959  0.25804778  0.39014077  1  0.637503  0  0.343242  0.39486  0  0.853193  0
H  H31  1  0.39887386  0.39014461  0.25804130  1  0.65492  0  0.34329  0.394807  0  0.853411  0
C  C32  1  0.49999446  0.63834560  0.86165601  1  1.543596  0  0.235685  0.611361  0  4.163681  0
C  C33  1  0.22331403  0.36165462  0.86166542  1  1.632199  0  0.235656  0.61141  0  4.164202  0
C  C34  1  0.50000415  0.63835378  0.13834678  1  1.558149  0  0.235853  0.611435  0  4.163508  0
C  C35  1  0.50000866  0.36166955  0.13835530  1  1.538368  0  0.235748  0.611364  0  4.163594  0
C  C36  1  0.77668745  0.63835754  0.13833845  1  1.632493  0  0.235579  0.6112  0  4.164572  0
C  C37  1  0.49997794  0.36164035  0.86164850  1  1.558306  0  0.235783  0.611378  0  4.163533  0
C  C38  1  0.50000182  0.86166170  0.36165947  1  1.546352  0  0.235912  0.612093  0  4.164348  0
C  C39  1  0.77668210  0.13833648  0.63833840  1  1.610416  0  0.235726  0.611338  0  4.164403  0
C  C40  1  0.50000287  0.86165704  0.63834143  1  1.563258  0  0.235827  0.611682  0  4.164356  0
C  C41  1  0.49999662  0.13834337  0.63833957  1  1.547477  0  0.235937  0.611797  0  4.164508  0
C  C42  1  0.22332614  0.86166082  0.36165175  1  1.610249  0  0.235675  0.611455  0  4.164273  0
C  C43  1  0.50000334  0.13834701  0.36166536  1  1.546017  0  0.235827  0.611863  0  4.164437  0
C  C44  1  0.89233930  0.69616656  0.19616584  1  -0.061914  0  0.001655  -0.054693  0  3.930147  0
C  C45  1  0.10766753  0.80382746  0.30381436  1  -0.038627  0  0.001327  -0.055133  0  3.929453  0
C  C46  1  0.94549863  0.65493452  0.21912901  1  -0.021811  0  0.006005  -0.065704  0  3.915452  0
C  C47  1  0.05451281  0.84509252  0.27362697  1  0.054917  0  0.006181  -0.065358  0  3.914036  0
C  C48  1  0.05450567  0.70942268  0.28086189  1  0.073074  0  0.006085  -0.065346  0  3.914863  0
C  C49  1  0.94549081  0.79057178  0.22635069  1  -0.004362  0  0.005916  -0.065762  0  3.914422  0
C  C50  1  0.10766287  0.30382805  0.80383010  1  -0.061276  0  0.001674  -0.055226  0  3.92946  0
C  C51  1  0.89233691  0.19615454  0.69617112  1  -0.039454  0  0.001461  -0.055141  0  3.929664  0
C  C52  1  0.05451221  0.28086133  0.84508600  1  0.05011  0  0.00595  -0.065207  0  3.913821  0
C  C53  1  0.94549070  0.22635577  0.65491901  1  0.054238  0  0.006029  -0.06568  0  3.914506  0
C  C54  1  0.94549689  0.21911929  0.79058211  1  0.002115  0  0.006118  -0.065043  0  3.91383  0
C  C55  1  0.05450325  0.27362417  0.70942591  1  -0.004943  0  0.006076  -0.064965  0  3.914169  0
C  C56  1  0.50000189  0.69618274  0.19617774  1  -0.026227  0  0.00145  -0.055239  0  3.930148  0
C  C57  1  0.49999796  0.80383675  0.30383759  1  0.017191  0  0.001354  -0.055328  0  3.930329  0
C  C58  1  0.43578705  0.65491986  0.22636518  1  0.066223  0  0.006053  -0.065421  0  3.914922  0
C  C59  1  0.57144325  0.84508581  0.28087534  1  0.079026  0  0.006165  -0.065383  0  3.914739  0
C  C60  1  0.42855589  0.70943101  0.27363547  1  -0.0218  0  0.006121  -0.065514  0  3.914845  0
C  C61  1  0.56421549  0.79058602  0.21913193  1  0.022988  0  0.006081  -0.065579  0  3.915166  0
C  C62  1  0.49997688  0.30380063  0.80382249  1  -0.030319  0  0.001245  -0.055453  0  3.929895  0
C  C63  1  0.49998725  0.19615104  0.69616422  1  0.017404  0  0.001458  -0.055203  0  3.930359  0
C  C64  1  0.56418880  0.27361635  0.84507650  1  0.065464  0  0.00625  -0.064682  0  3.91423  0
C  C65  1  0.42853692  0.21911517  0.65491472  1  0.078373  0  0.006217  -0.065413  0  3.914982  0
C  C66  1  0.57142675  0.22635218  0.79057095  1  -0.022353  0  0.006028  -0.065666  0  3.914686  0
C  C67  1  0.43575865  0.28085114  0.70941868  1  0.028956  0  0.006103  -0.065521  0  3.914906  0
C  C68  1  0.49999852  0.69618603  0.80382776  1  0.036968  0  0.001501  -0.05518  0  3.930089  0
C  C69  1  0.50001464  0.80384598  0.69617374  1  -0.028686  0  0.001344  -0.05561  0  3.92981  0
C  C70  1  0.42854680  0.65490797  0.70941710  1  -0.015369  0  0.006125  -0.065684  0  3.914377  0
C  C71  1  0.56420508  0.84507590  0.79057472  1  0.019069  0  0.006091  -0.064848  0  3.914483  0
C  C72  1  0.43580023  0.70943248  0.65492219  1  0.081222  0  0.006163  -0.06473  0  3.913736  0
C  C73  1  0.57145009  0.79058230  0.84508685  1  0.046386  0  0.006151  -0.065619  0  3.915322  0
C  C74  1  0.50001360  0.30383610  0.19618971  1  0.017113  0  0.001472  -0.055081  0  3.930148  0
C  C75  1  0.50000866  0.19617247  0.30384767  1  0.017358  0  0.001418  -0.055091  0  3.930137  0
C  C76  1  0.57145485  0.28087644  0.22637416  1  0.057862  0  0.006132  -0.065456  0  3.915116  0
C  C77  1  0.43579421  0.22636767  0.28087556  1  0.048656  0  0.006126  -0.065724  0  3.915092  0
C  C78  1  0.56421237  0.21913423  0.27364415  1  -0.001554  0  0.006049  -0.065643  0  3.914922  0
C  C79  1  0.42855696  0.27364038  0.21913361  1  0.005634  0  0.00601  -0.065664  0  3.915284  0
C  C80  1  0.88947042  0.55652540  0.16833698  1  1.59844  0  0.23593  0.586385  0  4.148483  0
C  C81  1  0.11052651  0.94347040  0.27883380  1  1.586546  0  0.235823  0.586204  0  4.149591  0
C  C82  1  0.11051592  0.66704731  0.33165524  1  1.588888  0  0.235934  0.58645  0  4.148848  0
C  C83  1  0.88949462  0.83296714  0.22114507  1  1.58656  0  0.235871  0.586251  0  4.149013  0
C  C84  1  0.11051342  0.33165473  0.94347363  1  1.597346  0  0.235884  0.586207  0  4.148774  0
C  C85  1  0.88948595  0.22114354  0.55653243  1  1.586967  0  0.235862  0.586281  0  4.14936  0
C  C86  1  0.88947695  0.16831409  0.83294993  1  1.588059  0  0.235753  0.586015  0  4.149291  0
C  C87  1  0.11052324  0.27885282  0.66705309  1  1.587544  0  0.235751  0.585986  0  4.149031  0
C  C88  1  0.38818427  0.55652663  0.22113861  1  1.601888  0  0.235934  0.586211  0  4.14956  0
C  C89  1  0.66462250  0.94347385  0.33167619  1  1.582481  0  0.235756  0.58616  0  4.148229  0
C  C90  1  0.33537642  0.66704922  0.27884452  1  1.588488  0  0.235827  0.586287  0  4.147816  0
C  C91  1  0.61181679  0.83296048  0.16834112  1  1.590971  0  0.235853  0.586305  0  4.148798  0
C  C92  1  0.61180475  0.27885390  0.94347733  1  1.599947  0  0.235883  0.585947  0  4.149559  0
C  C93  1  0.33536277  0.16831080  0.55652829  1  1.58388  0  0.235762  0.586143  0  4.148589  0
C  C94  1  0.66460605  0.22114306  0.83295381  1  1.588639  0  0.235994  0.586452  0  4.147962  0
C  C95  1  0.38816116  0.33164395  0.66703378  1  1.589971  0  0.235925  0.586343  0  4.148733  0
C  C96  1  0.33538164  0.55652249  0.66704559  1  1.59149  0  0.235827  0.586341  0  4.148441  0
C  C97  1  0.61180231  0.94347021  0.83295416  1  1.584691  0  0.235887  0.585939  0  4.149136  0
C  C98  1  0.38821858  0.66705116  0.55653515  1  1.584993  0  0.235791  0.585694  0  4.149597  0
C  C99  1  0.66461345  0.83295842  0.94348222  1  1.59111  0  0.235944  0.586469  0  4.148077  0
C  C100  1  0.66462140  0.33166682  0.22114817  1  1.589887  0  0.235901  0.586395  0  4.148165  0
C  C101  1  0.38819912  0.22115114  0.33167007  1  1.602879  0  0.235902  0.586469  0  4.148027  0
C  C102  1  0.61180382  0.16833754  0.27885382  1  1.602979  0  0.235879  0.586329  0  4.147988  0
C  C103  1  0.33538536  0.27885994  0.16834278  1  1.592895  0  0.235948  0.586456  0  4.148292  0
O  O104  1  0.50000320  0.49999813  0.00000652  1  -1.223836  0  -0.580486  -1.045944  0  2.567182  0
O  O105  1  0.54072672  0.67600647  0.94376555  1  -1.156826  0  -0.297664  -0.529318  0  2.375665  0
O  O106  1  0.26776267  0.40303159  0.82400845  1  -1.161449  0  -0.297734  -0.529316  0  2.375604  0
O  O107  1  0.42096262  0.55624439  0.09696667  1  -1.16707  0  -0.297821  -0.52936  0  2.375434  0
O  O108  1  0.45926152  0.55623661  0.82399723  1  -1.15797  0  -0.297698  -0.529328  0  2.375759  0
O  O109  1  0.57904254  0.67601288  0.13527743  1  -1.158351  0  -0.297755  -0.529331  0  2.37574  0
O  O110  1  0.26776269  0.36472720  0.94377075  1  -1.163337  0  -0.2977  -0.529173  0  2.375745  0
O  O111  1  0.45926584  0.40303883  0.13527540  1  -1.153436  0  -0.297652  -0.529272  0  2.37576  0
O  O112  1  0.73223945  0.55625111  0.13525988  1  -1.161857  0  -0.297725  -0.529266  0  2.375724  0
O  O113  1  0.54075179  0.36474667  0.09698592  1  -1.155556  0  -0.29776  -0.529475  0  2.375753  0
O  O114  1  0.73223833  0.67601527  0.09696544  1  -1.163311  0  -0.297567  -0.528968  0  2.376191  0
O  O115  1  0.42094035  0.36471715  0.82398471  1  -1.158356  0  -0.297598  -0.529177  0  2.375683  0
O  O116  1  0.57901518  0.40301845  0.94375504  1  -1.167474  0  -0.297786  -0.529368  0  2.375693  0
O  O117  1  0.50000360  0.00001053  0.49999719  1  -1.223898  0  -0.580662  -1.046026  0  2.567396  0
O  O118  1  0.45926868  0.82399816  0.40303159  1  -1.159037  0  -0.297778  -0.529697  0  2.375686  0
O  O119  1  0.73224281  0.09696657  0.55623328  1  -1.163376  0  -0.297673  -0.529126  0  2.375874  0
O  O120  1  0.57903755  0.94376027  0.67600332  1  -1.168371  0  -0.297686  -0.529281  0  2.375657  0
O  O121  1  0.54072950  0.94375878  0.36472810  1  -1.155358  0  -0.297564  -0.529362  0  2.376228  0
O  O122  1  0.42097265  0.82400100  0.55623950  1  -1.168349  0  -0.29773  -0.529276  0  2.375819  0
O  O123  1  0.73223137  0.13526277  0.67599492  1  -1.156783  0  -0.297786  -0.529307  0  2.375727  0
O  O124  1  0.54072653  0.09697119  0.67599502  1  -1.160429  0  -0.297703  -0.529439  0  2.375841  0
O  O125  1  0.26776327  0.94376907  0.40302279  1  -1.163164  0  -0.297732  -0.529367  0  2.37575  0
O  O126  1  0.45926693  0.13528080  0.55623854  1  -1.155525  0  -0.29781  -0.529511  0  2.375967  0
O  O127  1  0.26777341  0.82400475  0.36472980  1  -1.156983  0  -0.297522  -0.529023  0  2.375904  0
O  O128  1  0.57903810  0.13527548  0.40304032  1  -1.160436  0  -0.297636  -0.529513  0  2.375737  0
O  O129  1  0.42097563  0.09697612  0.36473287  1  -1.160489  0  -0.297661  -0.529444  0  2.376148  0
O  O130  1  0.86976163  0.49334717  0.20734147  1  -1.127435  0  -0.310514  -0.448715  0  2.280782  0
O  O131  1  0.87088713  0.53834118  0.09339022  1  -1.106309  0  -0.278556  -0.459476  0  2.039132  0
O  O132  1  0.13025613  0.00666486  0.33755591  1  -1.116782  0  -0.31059  -0.449038  0  2.281062  0
O  O133  1  0.12909181  0.96164182  0.22246644  1  -1.108853  0  -0.278363  -0.459055  0  2.03879  0
O  O134  1  0.13023057  0.62358141  0.29266127  1  -1.123055  0  -0.310475  -0.448743  0  2.281023  0
O  O135  1  0.12909639  0.66745574  0.40659891  1  -1.108852  0  -0.278585  -0.459488  0  2.039266  0
O  O136  1  0.86976574  0.87643672  0.16242052  1  -1.118666  0  -0.310535  -0.448931  0  2.280715  0
O  O137  1  0.87090701  0.83255922  0.27750296  1  -1.106165  0  -0.278476  -0.459261  0  2.03864  0
O  O138  1  0.13023728  0.29265965  0.00666598  1  -1.127214  0  -0.310524  -0.448877  0  2.280705  0
O  O139  1  0.12909441  0.40659777  0.96164677  1  -1.106722  0  -0.278453  -0.459331  0  2.039455  0
O  O140  1  0.86976314  0.16243037  0.49334662  1  -1.119428  0  -0.310519  -0.448883  0  2.281114  0
O  O141  1  0.87091341  0.27751049  0.53836147  1  -1.107817  0  -0.278496  -0.459281  0  2.038672  0
O  O142  1  0.86975546  0.20731333  0.87641677  1  -1.121667  0  -0.310494  -0.448832  0  2.280774  0
O  O143  1  0.87089445  0.09337287  0.83254712  1  -1.108813  0  -0.278323  -0.459176  0  2.039599  0
O  O144  1  0.13023954  0.33756862  0.62358708  1  -1.118439  0  -0.310568  -0.448897  0  2.28107  0
O  O145  1  0.12910356  0.22248761  0.66744912  1  -1.106479  0  -0.278376  -0.459242  0  2.038391  0
O  O146  1  0.28600762  0.49335064  0.16242228  1  -1.133485  0  -0.310523  -0.448842  0  2.281258  0
O  O147  1  0.44495202  0.53835190  0.27750219  1  -1.108551  0  -0.278482  -0.45934  0  2.038707  0
O  O148  1  0.66909560  0.00666702  0.29267469  1  -1.108395  0  -0.310445  -0.444446  0  2.285819  0
O  O149  1  0.73916718  0.96165383  0.40661426  1  -1.10975  0  -0.278404  -0.459415  0  2.039783  0
O  O150  1  0.33090297  0.62357210  0.33756245  1  -1.126705  0  -0.310494  -0.444552  0  2.285562  0
O  O151  1  0.26083043  0.66744239  0.22248034  1  -1.110415  0  -0.278449  -0.459294  0  2.039479  0
O  O152  1  0.71399309  0.87641818  0.20733884  1  -1.123199  0  -0.310497  -0.444469  0  2.286182  0
O  O153  1  0.55504656  0.83255152  0.09339515  1  -1.112848  0  -0.278456  -0.459463  0  2.038978  0
O  O154  1  0.71397814  0.33757572  0.00665184  1  -1.133725  0  -0.310633  -0.448916  0  2.281578  0
O  O155  1  0.55504215  0.22248747  0.96165819  1  -1.1072  0  -0.278429  -0.459393  0  2.038591  0
O  O156  1  0.33088789  0.20731701  0.49333066  1  -1.108225  0  -0.310517  -0.444557  0  2.2854  0
O  O157  1  0.26082018  0.09337114  0.53834001  1  -1.110212  0  -0.278295  -0.459265  0  2.040119  0
O  O158  1  0.66908421  0.16243300  0.87642636  1  -1.126344  0  -0.310491  -0.444468  0  2.285857  0
O  O159  1  0.73914486  0.27750924  0.83255132  1  -1.109584  0  -0.278601  -0.459483  0  2.039663  0
O  O160  1  0.28598690  0.29265149  0.62357349  1  -1.123732  0  -0.310547  -0.444487  0  2.286241  0
O  O161  1  0.44493578  0.40658739  0.66744119  1  -1.11221  0  -0.278488  -0.459497  0  2.038925  0
O  O162  1  0.33092056  0.49334414  0.62358584  1  -1.125806  0  -0.310466  -0.444337  0  2.286104  0
O  O163  1  0.26084151  0.53834545  0.66744857  1  -1.107683  0  -0.278489  -0.459464  0  2.039702  0
O  O164  1  0.71399459  0.00666439  0.87643102  1  -1.113935  0  -0.310519  -0.448927  0  2.28065  0
O  O165  1  0.55504357  0.96165509  0.83255978  1  -1.104035  0  -0.278458  -0.459317  0  2.038572  0
O  O166  1  0.28601637  0.62358047  0.49333087  1  -1.113536  0  -0.310615  -0.449051  0  2.280457  0
O  O167  1  0.44497222  0.66744589  0.53835084  1  -1.104808  0  -0.278289  -0.459033  0  2.03901  0
O  O168  1  0.66907480  0.87641165  0.00665341  1  -1.125123  0  -0.310491  -0.444317  0  2.286484  0
O  O169  1  0.73915294  0.83255011  0.96165507  1  -1.10772  0  -0.278575  -0.459553  0  2.039249  0
O  O170  1  0.66908418  0.29266786  0.16243364  1  -1.121123  0  -0.310601  -0.444542  0  2.2861  0
O  O171  1  0.73916759  0.40661062  0.27751642  1  -1.112109  0  -0.278458  -0.459519  0  2.03948  0
O  O172  1  0.28600010  0.16243075  0.29266207  1  -1.11863  0  -0.310554  -0.444658  0  2.285568  0
O  O173  1  0.44494925  0.27751289  0.40660993  1  -1.108595  0  -0.27845  -0.459418  0  2.038803  0
O  O174  1  0.71399827  0.20733528  0.33757573  1  -1.118558  0  -0.31057  -0.444716  0  2.285569  0
O  O175  1  0.55504232  0.09339391  0.22249326  1  -1.108794  0  -0.278479  -0.459424  0  2.038817  0
O  O176  1  0.33092122  0.33757494  0.20733604  1  -1.123829  0  -0.310463  -0.444357  0  2.286201  0
O  O177  1  0.26084773  0.22249656  0.09339494  1  -1.112909  0  -0.278573  -0.459597  0  2.039651  0
