# generated using pymatgen
data_Zn2H13C20I(NO4)2
_symmetry_space_group_name_H-M   'P 1'
_cell_length_a   9.75786289
_cell_length_b   11.33769615
_cell_length_c   10.99662436
_cell_angle_alpha   88.95229589
_cell_angle_beta   113.23855073
_cell_angle_gamma   101.63557450
_symmetry_Int_Tables_number   1
_chemical_formula_structural   Zn2H13C20I(NO4)2
_chemical_formula_sum   'Zn2 H13 C20 I1 N2 O8'
_cell_volume   1092.36025831
_cell_formula_units_Z   1
loop_
 _symmetry_equiv_pos_site_id
 _symmetry_equiv_pos_as_xyz
  1  'x, y, z'
loop_
 _atom_site_type_symbol
 _atom_site_label
 _atom_site_symmetry_multiplicity
 _atom_site_fract_x
 _atom_site_fract_y
 _atom_site_fract_z
 _atom_site_occupancy
 _atom_site_pbe_bader_charge
 _atom_site_pbe_bader_spin_density
 _atom_site_pbe_cm5_charge
 _atom_site_pbe_ddec_charge
 _atom_site_pbe_ddec_spin_density
 _atom_site_pbe_ddec_sum_bond_order
 _atom_site_pbe_magmom
Zn  Zn0  1  0.65454562  0.50372669  0.53999245  1  1.298554  0  0.66817  0.857139  0  2.381273  0
Zn  Zn1  1  0.33511258  0.49062081  0.42654523  1  1.299337  0  0.672296  0.869754  0  2.404318  0
H  H2  1  0.31684564  0.35774718  0.80959933  1  0.079326  0  0.102005  0.104575  0  1.002512  0
H  H3  1  0.68770049  0.70786748  0.27463115  1  0.082917  0  0.099513  0.110666  0  1.021891  0
H  H4  1  0.29502134  0.37111839  0.02812200  1  0.068554  0  0.10724  0.114263  0  0.983119  0
H  H5  1  0.61728363  0.09983678  0.53144134  1  0.111201  0  0.111215  0.119816  0  0.976814  0
H  H6  1  0.68977504  0.91717945  0.56950098  1  0.111493  0  0.113811  0.140064  0  0.976015  0
H  H7  1  0.27932648  0.09436283  0.35788834  1  0.127317  0  0.091547  0.108347  0  1.050512  0
H  H8  1  0.84966135  0.55004748  0.38735639  1  0.165125  0  0.13531  0.104515  0  0.994878  0
H  H9  1  0.14958177  0.46878050  0.58505932  1  0.153797  0  0.134898  0.105287  0  0.997842  0
H  H10  1  0.94940010  0.46580448  0.65558589  1  0.442287  0  0.324152  0.292873  0  0.896785  0
H  H11  1  0.04557068  0.53794860  0.31064709  1  0.445073  0  0.318751  0.292854  0  0.905111  0
H  H12  1  0.72593080  0.68809827  0.83685665  1  0.096538  0  0.102517  0.119049  0  1.023465  0
H  H13  1  0.89377034  0.85121597  0.00666855  1  0.046126  0  0.098104  0.096304  0  0.997954  0
H  H14  1  0.87513951  0.86105180  0.22654835  1  0.047964  0  0.092599  0.092426  0  1.014212  0
C  C15  1  0.43931489  0.26421940  0.44605035  1  1.537688  0  0.205968  0.640809  0  4.161725  0
C  C16  1  0.46450424  0.92753977  0.45300307  1  -0.271207  0  -0.033763  0.098479  0  3.909213  0
C  C17  1  0.07258613  0.49719398  0.49104268  1  0.67084  0  0.115003  0.166599  0  3.861224  0
C  C18  1  0.50812177  0.49170717  0.72488653  1  1.559587  0  0.219065  0.607095  0  4.154782  0
C  C19  1  0.92466769  0.51816897  0.47972735  1  0.682729  0  0.119082  0.176187  0  3.851492  0
C  C20  1  0.56112446  0.73190713  0.51420134  1  1.561639  0  0.202039  0.6382  0  4.189534  0
C  C21  1  0.47481071  0.51781929  0.23996522  1  1.564922  0  0.218239  0.606828  0  4.167892  0
C  C22  1  0.71767390  0.69182525  0.93239483  1  -0.012526  0  -0.094077  -0.128926  0  3.965009  0
C  C23  1  0.81179338  0.78253989  0.02791354  1  -0.088649  0  -0.099646  -0.088718  0  4.052038  0
C  C24  1  0.80169285  0.78792874  0.15237283  1  -0.007341  0  -0.104486  -0.094633  0  4.064193  0
C  C25  1  0.69690012  0.70231373  0.17929620  1  -0.070899  0  -0.099908  -0.144913  0  3.99871  0
C  C26  1  0.60847683  0.60149927  0.95642435  1  0.008678  0  -0.000338  0.063558  0  3.936566  0
C  C27  1  0.59761315  0.60761538  0.08305071  1  -0.018019  0  -0.004994  0.050997  0  3.958518  0
C  C28  1  0.50519711  0.50766170  0.85889661  1  -0.047525  0  -0.014277  -0.076317  0  3.933876  0
C  C29  1  0.39411114  0.42811474  0.88559538  1  -0.001803  0  -0.091774  -0.10588  0  4.035787  0
C  C30  1  0.38229269  0.43509733  0.00840470  1  -0.064779  0  -0.09203  -0.111446  0  4.019101  0
C  C31  1  0.48360541  0.52148157  0.10679333  1  0.01036  0  -0.007918  -0.054097  0  3.933945  0
C  C32  1  0.39891117  0.13131005  0.41989273  1  -0.010959  0  -0.097758  -0.210605  0  3.891333  0
C  C33  1  0.49844542  0.05837156  0.46919599  1  -0.047185  0  -0.083714  -0.073561  0  4.011808  0
C  C34  1  0.57443283  0.86439985  0.51415367  1  0.016243  0  -0.093514  -0.259095  0  3.855785  0
I  I35  1  0.23764303  0.84342476  0.32721953  1  0.118923  0  0.08639  -0.023436  0  1.529724  0
N  N36  1  0.11865054  0.50912830  0.39640114  1  -1.16418  0  -0.42577  -0.376662  0  3.234762  0
N  N37  1  0.87554184  0.49682417  0.57192671  1  -1.176755  0  -0.424059  -0.369043  0  3.207205  0
O  O38  1  0.57640921  0.31663252  0.51666696  1  -1.175593  0  -0.326812  -0.563011  0  2.263229  0
O  O39  1  0.32605536  0.31563557  0.39219982  1  -1.146097  0  -0.32786  -0.548191  0  2.277929  0
O  O40  1  0.63736615  0.51458614  0.71601121  1  -1.154593  0  -0.315953  -0.540634  0  2.328007  0
O  O41  1  0.38001688  0.45507468  0.62841256  1  -1.182871  0  -0.318241  -0.570904  0  2.329758  0
O  O42  1  0.68238888  0.69358849  0.53580128  1  -1.158127  0  -0.324272  -0.551003  0  2.214453  0
O  O43  1  0.43111434  0.66628326  0.49526423  1  -1.174367  0  -0.323651  -0.569364  0  2.408336  0
O  O44  1  0.59567720  0.50433755  0.33708346  1  -1.178793  0  -0.314561  -0.573472  0  2.372845  0
O  O45  1  0.34928399  0.52447674  0.24598352  1  -1.154949  0  -0.318538  -0.54277  0  2.266349  0
