# generated using pymatgen
data_Cd3H26C40S6(N4O)4
_symmetry_space_group_name_H-M   'P 1'
_cell_length_a   11.38405088
_cell_length_b   11.68672568
_cell_length_c   15.14840805
_cell_angle_alpha   94.59519606
_cell_angle_beta   108.05403384
_cell_angle_gamma   117.30748895
_symmetry_Int_Tables_number   1
_chemical_formula_structural   Cd3H26C40S6(N4O)4
_chemical_formula_sum   'Cd3 H26 C40 S6 N16 O4'
_cell_volume   1642.61128470
_cell_formula_units_Z   1
loop_
 _symmetry_equiv_pos_site_id
 _symmetry_equiv_pos_as_xyz
  1  'x, y, z'
loop_
 _atom_site_type_symbol
 _atom_site_label
 _atom_site_symmetry_multiplicity
 _atom_site_fract_x
 _atom_site_fract_y
 _atom_site_fract_z
 _atom_site_occupancy
 _atom_site_pbe_bader_charge
 _atom_site_pbe_bader_spin_density
 _atom_site_pbe_cm5_charge
 _atom_site_pbe_ddec_charge
 _atom_site_pbe_ddec_spin_density
 _atom_site_pbe_ddec_sum_bond_order
 _atom_site_pbe_magmom
Cd  Cd0  1  0.22411900  0.28300336  0.37835362  1  1.175268  0  0.731167  0.744844  0  2.480198  0
Cd  Cd1  1  0.77587527  0.71699531  0.62164349  1  1.175228  0  0.731136  0.74485  0  2.480152  0
Cd  Cd2  1  0.00000348  0.00000297  0.00000029  1  1.172955  0  0.71792  0.732888  0  2.49074  0
H  H3  1  0.67866908  0.63120096  0.14192812  1  0.444269  0  0.323646  0.275748  0  0.940407  0
H  H4  1  0.51047552  0.28178275  0.38894940  1  0.096907  0  0.113192  0.080466  0  1.034587  0
H  H5  1  0.74061733  0.36674605  0.46914078  1  0.477465  0  0.285697  0.240299  0  1.042432  0
H  H6  1  0.28972385  0.42805336  0.20857976  1  0.157377  0  0.12159  0.098006  0  1.017313  0
H  H7  1  0.18770117  0.23760630  0.57938360  1  0.109492  0  0.114206  0.093034  0  0.996397  0
H  H8  1  0.96315467  0.32049008  0.34650136  1  0.194747  0  0.1156  0.114553  0  1.052125  0
H  H9  1  0.81890385  0.76416960  0.07261399  1  0.109663  0  0.116807  0.098325  0  1.004828  0
H  H10  1  0.70025107  0.50291242  0.20963776  1  0.09584  0  0.115884  0.107883  0  1.011132  0
H  H11  1  0.03710101  0.24671637  0.66971546  1  0.067688  0  0.105846  0.113197  0  0.995198  0
H  H12  1  0.38004006  0.67475944  0.98921743  1  0.165774  0  0.11938  0.142465  0  0.999873  0
H  H13  1  0.85110846  0.30572108  0.59534384  1  0.107766  0  0.107292  0.121311  0  1.008205  0
H  H14  1  0.67644756  0.94770049  0.87915165  1  0.096339  0  0.115868  0.092265  0  0.992475  0
H  H15  1  0.42802401  0.82727621  0.88147982  1  0.102307  0  0.115916  0.126796  0  0.975095  0
H  H16  1  0.32133133  0.36879372  0.85807280  1  0.444293  0  0.323647  0.275721  0  0.940363  0
H  H17  1  0.48951806  0.71821296  0.61104937  1  0.097097  0  0.113202  0.080464  0  1.034525  0
H  H18  1  0.25937382  0.63324363  0.53085579  1  0.477543  0  0.285728  0.240335  0  1.042398  0
H  H19  1  0.71027604  0.57195037  0.79142286  1  0.157556  0  0.12157  0.097962  0  1.017266  0
H  H20  1  0.81229312  0.76238737  0.42061390  1  0.109405  0  0.11421  0.093046  0  0.996378  0
H  H21  1  0.03683906  0.67950259  0.65349596  1  0.194742  0  0.115634  0.114571  0  1.052087  0
H  H22  1  0.18110674  0.23583008  0.92739151  1  0.109289  0  0.116818  0.098372  0  1.004825  0
H  H23  1  0.29974809  0.49708832  0.79036520  1  0.095927  0  0.115902  0.107924  0  1.011181  0
H  H24  1  0.96290029  0.75328829  0.33028490  1  0.06773  0  0.105847  0.113211  0  0.995186  0
H  H25  1  0.61996448  0.32523611  0.01077986  1  0.165672  0  0.119451  0.142582  0  0.999929  0
H  H26  1  0.14889281  0.69428355  0.40465519  1  0.107767  0  0.107276  0.121263  0  1.008243  0
H  H27  1  0.32356368  0.05230529  0.12085829  1  0.096285  0  0.115854  0.092267  0  0.99234  0
H  H28  1  0.57198426  0.17272438  0.11852057  1  0.102187  0  0.115909  0.126744  0  0.975096  0
C  C29  1  0.51182504  0.34164286  0.33719354  1  0.514539  0  0.059021  0.078147  0  3.910602  0
C  C30  1  0.47118451  0.62093341  0.44187697  1  0.546352  0  0.137334  0.26259  0  4.313869  0
C  C31  1  0.62485772  0.39758367  0.30639658  1  0.002242  0  -0.007512  -0.065863  0  3.980768  0
C  C32  1  0.01311189  0.23029702  0.15501319  1  0.543897  0  0.146612  0.284834  0  4.293572  0
C  C33  1  0.75138779  0.37819174  0.33645389  1  1.418108  0  0.241208  0.472416  0  4.127707  0
C  C34  1  0.59602884  0.70792284  0.03986915  1  0.358277  0  0.102102  0.20661  0  4.027593  0
C  C35  1  0.12442544  0.00275389  0.23962093  1  0.563259  0  0.139771  0.268913  0  4.306828  0
C  C36  1  0.38564639  0.42025146  0.23531652  1  0.502828  0  0.072857  0.108503  0  3.866781  0
C  C37  1  0.10187834  0.25889989  0.54937576  1  0.462523  0  0.034876  0.062047  0  3.976394  0
C  C38  1  0.46663898  0.54683389  0.12186379  1  1.410859  0  0.241943  0.474467  0  4.13592  0
C  C39  1  0.89341648  0.32041836  0.46543946  1  0.321044  0  0.103598  0.212691  0  3.995385  0
C  C40  1  0.97749793  0.30755206  0.41863973  1  0.522699  0  0.0358  -0.015597  0  3.884031  0
C  C41  1  0.49291111  0.47856405  0.19910944  1  -0.026279  0  -0.007915  -0.075022  0  3.969655  0
C  C42  1  0.72926252  0.77608860  0.03182367  1  0.559607  0  0.044545  -0.00858  0  3.925868  0
C  C43  1  0.61366921  0.46619051  0.23572687  1  0.014576  0  -0.053205  -0.078508  0  3.944345  0
C  C44  1  0.02055338  0.26691067  0.59932177  1  0.054806  0  -0.085341  -0.109022  0  4.028279  0
C  C45  1  0.48473788  0.72651222  0.98505925  1  -0.009939  0  -0.072265  -0.136657  0  3.902403  0
C  C46  1  0.91594937  0.29854450  0.55755112  1  -0.028057  0  -0.070554  -0.122162  0  3.907136  0
C  C47  1  0.64898409  0.87797771  0.92313342  1  0.549928  0  0.038369  0.066883  0  3.97073  0
C  C48  1  0.51305462  0.81246414  0.92580135  1  -0.09267  0  -0.0799  -0.105561  0  3.997764  0
C  C49  1  0.48817113  0.65835586  0.66280664  1  0.514387  0  0.059042  0.078186  0  3.910477  0
C  C50  1  0.52879672  0.37906837  0.55811933  1  0.546504  0  0.137322  0.262592  0  4.313936  0
C  C51  1  0.37513902  0.60241605  0.69360445  1  0.001837  0  -0.007467  -0.06569  0  3.980462  0
C  C52  1  0.98688608  0.76970164  0.84498542  1  0.544231  0  0.146594  0.284731  0  4.293694  0
C  C53  1  0.24861277  0.62181492  0.66354641  1  1.417627  0  0.241252  0.47231  0  4.127772  0
C  C54  1  0.40397129  0.29206975  0.96012764  1  0.358053  0  0.102071  0.206541  0  4.027736  0
C  C55  1  0.87558240  0.99724763  0.76037678  1  0.563369  0  0.139862  0.269049  0  4.306775  0
C  C56  1  0.61435090  0.57974927  0.76468469  1  0.502702  0  0.072815  0.108559  0  3.866603  0
C  C57  1  0.89811986  0.74110081  0.45062500  1  0.462297  0  0.034836  0.061941  0  3.97656  0
C  C58  1  0.53336517  0.45317085  0.87814118  1  1.411149  0  0.241913  0.474341  0  4.136204  0
C  C59  1  0.10657758  0.67957827  0.53455616  1  0.321206  0  0.103653  0.212818  0  3.995405  0
C  C60  1  0.02250372  0.69245158  0.58135999  1  0.523116  0  0.035722  -0.01581  0  3.883967  0
C  C61  1  0.50708713  0.52143670  0.80089330  1  -0.026655  0  -0.007864  -0.074953  0  3.969714  0
C  C62  1  0.27074752  0.22391508  0.96818192  1  0.560265  0  0.044475  -0.008673  0  3.926007  0
C  C63  1  0.38632736  0.53380723  0.76427467  1  0.014947  0  -0.05319  -0.078565  0  3.944334  0
C  C64  1  0.97944095  0.73308805  0.40067799  1  0.055173  0  -0.085366  -0.109126  0  4.028356  0
C  C65  1  0.51526854  0.27348838  0.01494072  1  -0.009778  0  -0.072304  -0.136772  0  3.902622  0
C  C66  1  0.08404931  0.70145713  0.44244649  1  -0.028403  0  -0.070465  -0.12195  0  3.907041  0
C  C67  1  0.35102731  0.12202186  0.07686763  1  0.549929  0  0.038351  0.066878  0  3.970624  0
C  C68  1  0.48696214  0.18754342  0.07420201  1  -0.092385  0  -0.079876  -0.10546  0  3.997707  0
S  S69  1  0.29851543  0.56205688  0.39597324  1  0.065838  0  -0.134907  -0.304386  0  2.43023  0
S  S70  1  0.20290843  0.04255559  0.35693279  1  0.052761  0  -0.166149  -0.3061  0  2.394599  0
S  S71  1  0.96553636  0.21252733  0.03962109  1  0.071446  0  -0.158422  -0.289007  0  2.371345  0
S  S72  1  0.70146530  0.43794076  0.60401677  1  0.065928  0  -0.134876  -0.304354  0  2.430371  0
S  S73  1  0.79709881  0.95744489  0.64306275  1  0.052608  0  -0.166208  -0.306201  0  2.394401  0
S  S74  1  0.03447252  0.78747932  0.96038242  1  0.071074  0  -0.158438  -0.28901  0  2.371232  0
N  N75  1  0.07886225  0.27827701  0.46097188  1  -1.251369  0  -0.330402  -0.212331  0  3.5789  0
N  N76  1  0.39564212  0.35400369  0.30271246  1  -1.240318  0  -0.316102  -0.218114  0  3.493335  0
N  N77  1  0.59628148  0.66100317  0.47314007  1  -1.299304  0  -0.401721  -0.473799  0  3.11874  0
N  N78  1  0.58569228  0.62761079  0.10400003  1  -1.261639  0  -0.395644  -0.368736  0  3.591527  0
N  N79  1  0.78746392  0.35204086  0.42445130  1  -1.276511  0  -0.392369  -0.363262  0  3.598329  0
N  N80  1  0.75488699  0.85938813  0.97589282  1  -1.257242  0  -0.325633  -0.213076  0  3.570642  0
N  N81  1  0.04702771  0.24443393  0.23923368  1  -1.266203  0  -0.409967  -0.480218  0  3.170743  0
N  N82  1  0.06717726  0.97262867  0.15478795  1  -1.281535  0  -0.392993  -0.461377  0  3.15224  0
N  N83  1  0.92112709  0.72171272  0.53902560  1  -1.251365  0  -0.330396  -0.212192  0  3.5789  0
N  N84  1  0.60435534  0.64599902  0.69728824  1  -1.240213  0  -0.316159  -0.218256  0  3.493226  0
N  N85  1  0.40369642  0.33899580  0.52686257  1  -1.299636  0  -0.401746  -0.473833  0  3.118652  0
N  N86  1  0.41430937  0.37238785  0.89599941  1  -1.261752  0  -0.395675  -0.368624  0  3.591373  0
N  N87  1  0.21252555  0.64795080  0.57554367  1  -1.276944  0  -0.392476  -0.363391  0  3.59851  0
N  N88  1  0.24512497  0.14061563  0.02411651  1  -1.257585  0  -0.325553  -0.213048  0  3.570433  0
N  N89  1  0.95297458  0.75557078  0.76076955  1  -1.266167  0  -0.409931  -0.48011  0  3.170872  0
N  N90  1  0.93283483  0.02737066  0.84520334  1  -1.281485  0  -0.393005  -0.461404  0  3.152346  0
O  O91  1  0.34662794  0.53086654  0.07877669  1  -1.110147  0  -0.277127  -0.451617  0  2.097362  0
O  O92  1  0.81437662  0.38428469  0.28190822  1  -1.121661  0  -0.280952  -0.454747  0  2.09593  0
O  O93  1  0.65337280  0.46913711  0.92122282  1  -1.110219  0  -0.277085  -0.451568  0  2.097582  0
O  O94  1  0.18562340  0.61572099  0.71809256  1  -1.121109  0  -0.28098  -0.454707  0  2.095946  0
