# generated using pymatgen
data_ZnH6(C3N2)2
_symmetry_space_group_name_H-M   'P 1'
_cell_length_a   16.95380627
_cell_length_b   19.25129718
_cell_length_c   19.25151697
_cell_angle_alpha   89.99959376
_cell_angle_beta   90.00017099
_cell_angle_gamma   90.00006156
_symmetry_Int_Tables_number   1
_chemical_formula_structural   ZnH6(C3N2)2
_chemical_formula_sum   'Zn16 H96 C96 N64'
_cell_volume   6283.36329917
_cell_formula_units_Z   16
loop_
 _symmetry_equiv_pos_site_id
 _symmetry_equiv_pos_as_xyz
  1  'x, y, z'
loop_
 _atom_site_type_symbol
 _atom_site_label
 _atom_site_symmetry_multiplicity
 _atom_site_fract_x
 _atom_site_fract_y
 _atom_site_fract_z
 _atom_site_occupancy
 _atom_site_pbe_bader_charge
 _atom_site_pbe_bader_spin_density
 _atom_site_pbe_cm5_charge
 _atom_site_pbe_ddec_charge
 _atom_site_pbe_ddec_spin_density
 _atom_site_pbe_ddec_sum_bond_order
 _atom_site_pbe_magmom
Zn  Zn0  1  0.82162545  0.88521955  0.33395604  1  1.185637  0  0.714704  0.620054  0  2.579663  0
Zn  Zn1  1  0.82162849  0.11478146  0.66604221  1  1.185693  0  0.714674  0.620023  0  2.579753  0
Zn  Zn2  1  0.32162469  0.16604110  0.38522091  1  1.185701  0  0.714714  0.620105  0  2.57957  0
Zn  Zn3  1  0.32162608  0.83395788  0.61477967  1  1.185694  0  0.714707  0.620064  0  2.579637  0
Zn  Zn4  1  0.67837452  0.61478243  0.83395741  1  1.185646  0  0.714688  0.62004  0  2.579701  0
Zn  Zn5  1  0.67837266  0.38522001  0.16604255  1  1.185731  0  0.714674  0.619934  0  2.579765  0
Zn  Zn6  1  0.17837285  0.33395574  0.88521968  1  1.185652  0  0.714707  0.620047  0  2.579681  0
Zn  Zn7  1  0.17837175  0.66604311  0.11477844  1  1.185681  0  0.714729  0.620129  0  2.57967  0
Zn  Zn8  1  0.17837294  0.11478220  0.66604448  1  1.185832  0  0.714649  0.619953  0  2.579829  0
Zn  Zn9  1  0.17837403  0.88521769  0.33395727  1  1.185642  0  0.71467  0.620026  0  2.579676  0
Zn  Zn10  1  0.67837311  0.83395909  0.61478118  1  1.185729  0  0.714733  0.620077  0  2.579647  0
Zn  Zn11  1  0.67837349  0.16604387  0.38521982  1  1.185716  0  0.714656  0.619988  0  2.579642  0
Zn  Zn12  1  0.32162505  0.38522036  0.16604260  1  1.1856  0  0.714724  0.620038  0  2.579685  0
Zn  Zn13  1  0.32162278  0.61477966  0.83395538  1  1.185617  0  0.714698  0.620063  0  2.579529  0
Zn  Zn14  1  0.82162318  0.66604341  0.11477877  1  1.185577  0  0.714692  0.620025  0  2.579631  0
Zn  Zn15  1  0.82162369  0.33395760  0.88522001  1  1.185601  0  0.714676  0.620023  0  2.579685  0
H  H16  1  0.91790655  0.76805215  0.41303555  1  0.066981  0  0.111519  0.105682  0  1.01164  0
H  H17  1  0.68608460  0.88715692  0.21516885  1  0.082988  0  0.112088  0.105889  0  1.006977  0
H  H18  1  0.86446881  0.01474716  0.23267730  1  0.089176  0  0.111679  0.103608  0  1.007069  0
H  H19  1  0.70128488  0.75893079  0.35551827  1  0.084301  0  0.10966  0.102943  0  1.022005  0
H  H20  1  0.71664625  0.00157022  0.40793087  1  0.107351  0  0.122151  0.075928  0  1.018309  0
H  H21  1  0.91791005  0.23195000  0.58696764  1  0.066239  0  0.111504  0.105661  0  1.011618  0
H  H22  1  0.68608627  0.11283981  0.78483268  1  0.082934  0  0.112095  0.105892  0  1.006961  0
H  H23  1  0.86447149  0.98525701  0.76732159  1  0.089173  0  0.111674  0.103633  0  1.007045  0
H  H24  1  0.70128387  0.24106804  0.64448279  1  0.08497  0  0.10965  0.102958  0  1.021986  0
H  H25  1  0.71664776  0.99843278  0.59206763  1  0.107596  0  0.122111  0.075851  0  1.018377  0
H  H26  1  0.41790725  0.08696949  0.26805081  1  0.066322  0  0.111511  0.105663  0  1.011635  0
H  H27  1  0.18608411  0.28483459  0.38715730  1  0.082986  0  0.112101  0.105871  0  1.006952  0
H  H28  1  0.36447022  0.26732683  0.51474338  1  0.089071  0  0.111682  0.103608  0  1.00704  0
H  H29  1  0.20128394  0.14448295  0.25893104  1  0.084227  0  0.109681  0.103035  0  1.022051  0
H  H30  1  0.21664488  0.09207316  0.50157394  1  0.107139  0  0.122169  0.075944  0  1.018312  0
H  H31  1  0.41790736  0.91303062  0.73194587  1  0.066517  0  0.111538  0.105686  0  1.011632  0
H  H32  1  0.18608240  0.71516687  0.61284136  1  0.082978  0  0.112106  0.105909  0  1.006921  0
H  H33  1  0.36447222  0.73267376  0.48525575  1  0.089045  0  0.111682  0.103632  0  1.007019  0
H  H34  1  0.20128932  0.85551904  0.74106974  1  0.084965  0  0.109657  0.102913  0  1.022073  0
H  H35  1  0.21664714  0.90792780  0.49842792  1  0.107123  0  0.122174  0.075972  0  1.018265  0
H  H36  1  0.58209074  0.73194512  0.91303375  1  0.066555  0  0.111507  0.105664  0  1.011693  0
H  H37  1  0.81391733  0.61284227  0.71516488  1  0.082991  0  0.112081  0.10588  0  1.006964  0
H  H38  1  0.63552844  0.48525539  0.73267644  1  0.089121  0  0.111671  0.103623  0  1.007043  0
H  H39  1  0.79871634  0.74107001  0.85551906  1  0.084262  0  0.10963  0.102923  0  1.022071  0
H  H40  1  0.78334805  0.49843162  0.90793031  1  0.107547  0  0.12211  0.075905  0  1.018295  0
H  H41  1  0.58208848  0.26805411  0.08696803  1  0.066559  0  0.111531  0.10572  0  1.011643  0
H  H42  1  0.81391588  0.38716030  0.28483076  1  0.082887  0  0.112093  0.105858  0  1.006989  0
H  H43  1  0.63553121  0.51474025  0.26732600  1  0.08953  0  0.111677  0.103676  0  1.006973  0
H  H44  1  0.79871485  0.25893151  0.14448381  1  0.084941  0  0.109666  0.102937  0  1.021975  0
H  H45  1  0.78335376  0.50156936  0.09207356  1  0.107089  0  0.122111  0.075934  0  1.018286  0
H  H46  1  0.08209049  0.41303078  0.76805552  1  0.066568  0  0.11152  0.105684  0  1.011741  0
H  H47  1  0.31391757  0.21516588  0.88715727  1  0.083  0  0.112113  0.105923  0  1.006998  0
H  H48  1  0.13553138  0.23267472  0.01474313  1  0.089129  0  0.111685  0.103625  0  1.007055  0
H  H49  1  0.29871554  0.35551687  0.75893101  1  0.084912  0  0.10969  0.103023  0  1.022069  0
H  H50  1  0.28335137  0.40793056  0.00156919  1  0.106974  0  0.122169  0.075942  0  1.018281  0
H  H51  1  0.08209146  0.58696694  0.23194235  1  0.066662  0  0.11152  0.105685  0  1.011651  0
H  H52  1  0.31391543  0.78483310  0.11284121  1  0.082961  0  0.112097  0.105901  0  1.006922  0
H  H53  1  0.13553276  0.76732772  0.98525488  1  0.089092  0  0.111685  0.103605  0  1.007049  0
H  H54  1  0.29871130  0.64448261  0.24106846  1  0.084963  0  0.109667  0.102944  0  1.022048  0
H  H55  1  0.28335022  0.59207358  0.99843388  1  0.106964  0  0.122073  0.07587  0  1.018371  0
H  H56  1  0.08209361  0.23195012  0.58696602  1  0.066602  0  0.111506  0.105652  0  1.011601  0
H  H57  1  0.31391497  0.11284171  0.78483271  1  0.082964  0  0.112081  0.105879  0  1.007038  0
H  H58  1  0.13553134  0.98525822  0.76732375  1  0.089156  0  0.111688  0.10366  0  1.00704  0
H  H59  1  0.29871705  0.24106992  0.64448226  1  0.084223  0  0.109689  0.103029  0  1.022027  0
H  H60  1  0.28335273  0.99843153  0.59207070  1  0.107006  0  0.122148  0.075924  0  1.018324  0
H  H61  1  0.08209188  0.76805020  0.41303445  1  0.066615  0  0.111517  0.105665  0  1.0117  0
H  H62  1  0.31391507  0.88715882  0.21516577  1  0.082962  0  0.112112  0.105949  0  1.00694  0
H  H63  1  0.13552631  0.01474318  0.23267530  1  0.089058  0  0.111689  0.10361  0  1.007005  0
H  H64  1  0.29871687  0.75893060  0.35551774  1  0.08424  0  0.109656  0.102972  0  1.021995  0
H  H65  1  0.28334709  0.00156949  0.40793030  1  0.107304  0  0.122143  0.075924  0  1.018341  0
H  H66  1  0.58209291  0.91302966  0.73194712  1  0.066315  0  0.111562  0.105715  0  1.011595  0
H  H67  1  0.81391486  0.71516561  0.61284011  1  0.082966  0  0.112096  0.105909  0  1.006989  0
H  H68  1  0.63552876  0.73267544  0.48525610  1  0.089096  0  0.111699  0.103662  0  1.007015  0
H  H69  1  0.79871563  0.85551880  0.74106793  1  0.084976  0  0.109637  0.102975  0  1.02206  0
H  H70  1  0.78335351  0.90792911  0.49842970  1  0.10702  0  0.122134  0.075907  0  1.018319  0
H  H71  1  0.58209221  0.08696905  0.26805258  1  0.066509  0  0.111517  0.10564  0  1.011687  0
H  H72  1  0.81392189  0.28483540  0.38715553  1  0.082962  0  0.112101  0.10586  0  1.006969  0
H  H73  1  0.63553147  0.26732436  0.51474374  1  0.089124  0  0.111694  0.103614  0  1.007068  0
H  H74  1  0.79871379  0.14448479  0.25893130  1  0.084223  0  0.109705  0.103015  0  1.022058  0
H  H75  1  0.78335420  0.09207031  0.50157105  1  0.107067  0  0.122158  0.075947  0  1.018273  0
H  H76  1  0.41790706  0.26805611  0.08696989  1  0.066533  0  0.111537  0.105721  0  1.011663  0
H  H77  1  0.18608282  0.38715844  0.28483253  1  0.082998  0  0.112086  0.105868  0  1.006966  0
H  H78  1  0.36446818  0.51474324  0.26732460  1  0.089147  0  0.111688  0.103661  0  1.007058  0
H  H79  1  0.20128558  0.25893123  0.14448095  1  0.084991  0  0.109629  0.102903  0  1.022049  0
H  H80  1  0.21664562  0.50156961  0.09207073  1  0.107042  0  0.122154  0.075955  0  1.018286  0
H  H81  1  0.41790814  0.73194296  0.91303302  1  0.066553  0  0.111524  0.105649  0  1.011745  0
H  H82  1  0.18608310  0.61284041  0.71516561  1  0.082958  0  0.11209  0.105851  0  1.007021  0
H  H83  1  0.36447131  0.48525527  0.73267453  1  0.089063  0  0.111664  0.103608  0  1.00706  0
H  H84  1  0.20129062  0.74107076  0.85551931  1  0.084217  0  0.109716  0.103036  0  1.022109  0
H  H85  1  0.21664994  0.49842719  0.90792801  1  0.107403  0  0.122154  0.075958  0  1.01834  0
H  H86  1  0.91790731  0.58696681  0.23194033  1  0.066895  0  0.111537  0.105746  0  1.011696  0
H  H87  1  0.68608436  0.78483379  0.11284429  1  0.083053  0  0.112093  0.105873  0  1.006984  0
H  H88  1  0.86446996  0.76732391  0.98525636  1  0.089123  0  0.111678  0.103609  0  1.007078  0
H  H89  1  0.70128757  0.64447969  0.24107107  1  0.084995  0  0.109632  0.10287  0  1.022136  0
H  H90  1  0.71664879  0.59207015  0.99843133  1  0.107034  0  0.12216  0.075919  0  1.018326  0
H  H91  1  0.91790752  0.41303066  0.76805714  1  0.06679  0  0.11154  0.105706  0  1.011702  0
H  H92  1  0.68608237  0.21516398  0.88715620  1  0.083013  0  0.112111  0.105893  0  1.007033  0
H  H93  1  0.86446976  0.23267611  0.01474668  1  0.089143  0  0.111671  0.103598  0  1.007059  0
H  H94  1  0.70128473  0.35551706  0.75893155  1  0.084281  0  0.109626  0.10291  0  1.02197  0
H  H95  1  0.71664876  0.40793129  0.00157028  1  0.107463  0  0.122159  0.075901  0  1.018308  0
H  H96  1  0.00000110  0.94584478  0.30812405  1  0.096763  0  0.122546  0.077627  0  1.010722  0
H  H97  1  0.00000120  0.05415494  0.69187619  1  0.09677  0  0.122531  0.077591  0  1.010776  0
H  H98  1  0.49999951  0.19187871  0.44584484  1  0.096772  0  0.122511  0.077587  0  1.010568  0
H  H99  1  0.49999888  0.80811992  0.55415568  1  0.096761  0  0.122489  0.077577  0  1.0106  0
H  H100  1  0.49999975  0.55415795  0.80811943  1  0.096726  0  0.122539  0.077594  0  1.01081  0
H  H101  1  0.49999982  0.44584484  0.19188058  1  0.096657  0  0.122544  0.077639  0  1.01078  0
H  H102  1  0.99999965  0.30811973  0.94584673  1  0.096698  0  0.122544  0.077592  0  1.010687  0
H  H103  1  0.99999955  0.69188197  0.05414629  1  0.097096  0  0.122466  0.077495  0  1.010605  0
H  H104  1  0.88576892  0.75936190  0.24063510  1  0.138205  0  0.121399  0.081473  0  1.01594  0
H  H105  1  0.88576771  0.24063762  0.75936489  1  0.138204  0  0.12138  0.081503  0  1.015813  0
H  H106  1  0.38577061  0.25936153  0.25935993  1  0.138162  0  0.121328  0.081446  0  1.015783  0
H  H107  1  0.38576522  0.74063908  0.74063822  1  0.138121  0  0.12136  0.081435  0  1.015862  0
H  H108  1  0.61422837  0.74063659  0.74063488  1  0.138152  0  0.121359  0.081493  0  1.015828  0
H  H109  1  0.61423376  0.25936371  0.25936542  1  0.138277  0  0.121356  0.0814  0  1.015944  0
H  H110  1  0.11423065  0.24063673  0.75936543  1  0.138229  0  0.12138  0.081491  0  1.015853  0
H  H111  1  0.11422773  0.75936310  0.24063512  1  0.138129  0  0.121349  0.08146  0  1.015828  0
C  C112  1  0.95938158  0.80476042  0.39085904  1  0.277533  0  -0.026251  -0.068238  0  4.053408  0
C  C113  1  0.72745520  0.84527357  0.20536515  1  0.420578  0  -0.026053  -0.068777  0  4.054056  0
C  C114  1  0.82470201  0.03134017  0.27358981  1  0.336128  0  -0.02508  -0.067225  0  4.051043  0
C  C115  1  0.70829698  0.78621865  0.40447225  1  0.355984  0  -0.024746  -0.06576  0  4.049378  0
C  C116  1  0.74887140  0.02317464  0.36425012  1  0.950588  0  0.110009  0.123101  0  4.02565  0
C  C117  1  0.95938217  0.19524072  0.60914218  1  0.278274  0  -0.026201  -0.068173  0  4.053337  0
C  C118  1  0.72745283  0.15472580  0.79463545  1  0.420506  0  -0.026099  -0.068801  0  4.054083  0
C  C119  1  0.82470571  0.96866293  0.72640638  1  0.336952  0  -0.025137  -0.067392  0  4.050922  0
C  C120  1  0.70829636  0.21378174  0.59552831  1  0.35592  0  -0.024737  -0.065861  0  4.049385  0
C  C121  1  0.74887362  0.97682422  0.63574483  1  0.950003  0  0.110057  0.123114  0  4.025486  0
C  C122  1  0.45938061  0.10914399  0.30476321  1  0.46074  0  -0.02626  -0.068241  0  4.053743  0
C  C123  1  0.22745765  0.29463617  0.34527490  1  0.420612  0  -0.026122  -0.068758  0  4.054079  0
C  C124  1  0.32470216  0.22641314  0.53133646  1  0.336564  0  -0.025076  -0.067271  0  4.050738  0
C  C125  1  0.20829418  0.09553031  0.28621738  1  0.356546  0  -0.024749  -0.065883  0  4.049569  0
C  C126  1  0.24886956  0.13575327  0.52317836  1  0.950761  0  0.109864  0.122917  0  4.025768  0
C  C127  1  0.45937939  0.89085357  0.69523617  1  0.278141  0  -0.026281  -0.06826  0  4.053606  0
C  C128  1  0.22745252  0.70536428  0.65472646  1  0.315598  0  -0.026072  -0.068768  0  4.054042  0
C  C129  1  0.32470298  0.77358740  0.46866257  1  0.336542  0  -0.025077  -0.067343  0  4.050827  0
C  C130  1  0.20830129  0.90447272  0.71378342  1  0.356548  0  -0.024747  -0.065719  0  4.049391  0
C  C131  1  0.24886934  0.86424461  0.47682307  1  0.950724  0  0.109848  0.122893  0  4.025851  0
C  C132  1  0.54061917  0.69523492  0.89085480  1  0.278188  0  -0.026195  -0.068192  0  4.053532  0
C  C133  1  0.77254610  0.65472569  0.70536441  1  0.397338  0  -0.026096  -0.068785  0  4.053974  0
C  C134  1  0.67529361  0.46866106  0.77359125  1  0.336811  0  -0.025147  -0.06736  0  4.051045  0
C  C135  1  0.79170618  0.71378232  0.90447165  1  0.356851  0  -0.024722  -0.065798  0  4.049642  0
C  C136  1  0.75112335  0.47682490  0.86424963  1  0.950463  0  0.110019  0.123122  0  4.02568  0
C  C137  1  0.54061702  0.30476375  0.10914999  1  0.277845  0  -0.026221  -0.068254  0  4.053496  0
C  C138  1  0.77254935  0.34527424  0.29463320  1  0.420507  0  -0.02606  -0.068676  0  4.0539  0
C  C139  1  0.67530216  0.53133410  0.22641389  1  0.336211  0  -0.025039  -0.067389  0  4.050806  0
C  C140  1  0.79170692  0.28622023  0.09552964  1  0.356267  0  -0.024676  -0.065707  0  4.049564  0
C  C141  1  0.75112981  0.52317501  0.13575467  1  0.950711  0  0.109901  0.122994  0  4.025785  0
C  C142  1  0.04061903  0.39085031  0.80476538  1  0.277902  0  -0.02629  -0.068301  0  4.053314  0
C  C143  1  0.27254802  0.20536511  0.84527276  1  0.397318  0  -0.026119  -0.068841  0  4.054019  0
C  C144  1  0.17529655  0.27359037  0.03133653  1  0.336805  0  -0.025163  -0.067378  0  4.050975  0
C  C145  1  0.29170539  0.40446932  0.78621699  1  0.356953  0  -0.024811  -0.065888  0  4.049497  0
C  C146  1  0.25112853  0.36424770  0.02317488  1  0.950982  0  0.109968  0.123018  0  4.02572  0
C  C147  1  0.04061931  0.60914477  0.19522822  1  0.2779  0  -0.026249  -0.06824  0  4.053378  0
C  C148  1  0.27254603  0.79463486  0.15472613  1  0.420568  0  -0.026125  -0.06878  0  4.053835  0
C  C149  1  0.17529900  0.72641471  0.96866366  1  0.336066  0  -0.025007  -0.067149  0  4.05053  0
C  C150  1  0.29169923  0.59552808  0.21378143  1  0.356603  0  -0.024753  -0.065769  0  4.049403  0
C  C151  1  0.25112913  0.63575381  0.97682448  1  0.95082  0  0.109996  0.123117  0  4.025838  0
C  C152  1  0.04061858  0.19524029  0.60914305  1  0.460413  0  -0.026211  -0.068162  0  4.053379  0
C  C153  1  0.27254731  0.15472663  0.79463537  1  0.315637  0  -0.026138  -0.06881  0  4.054097  0
C  C154  1  0.17530110  0.96866522  0.72641176  1  0.336436  0  -0.025069  -0.067354  0  4.050779  0
C  C155  1  0.29170495  0.21378362  0.59552984  1  0.356976  0  -0.024771  -0.065864  0  4.049388  0
C  C156  1  0.25113171  0.97682607  0.63575196  1  0.950826  0  0.110011  0.123138  0  4.025535  0
C  C157  1  0.04061976  0.80476103  0.39086146  1  0.460331  0  -0.026244  -0.068172  0  4.053455  0
C  C158  1  0.27254615  0.84527387  0.20536352  1  0.292473  0  -0.026165  -0.068952  0  4.053989  0
C  C159  1  0.17529327  0.03133830  0.27358895  1  0.336588  0  -0.025058  -0.067194  0  4.050755  0
C  C160  1  0.29170557  0.78621585  0.40447118  1  0.357169  0  -0.024758  -0.065793  0  4.049409  0
C  C161  1  0.25112477  0.02317753  0.36424947  1  0.950725  0  0.109952  0.123019  0  4.025999  0
C  C162  1  0.54062073  0.89085257  0.69523679  1  0.460822  0  -0.026263  -0.0683  0  4.053664  0
C  C163  1  0.77254841  0.70536402  0.65472458  1  0.315605  0  -0.026135  -0.068843  0  4.053908  0
C  C164  1  0.67529741  0.77358965  0.46866355  1  0.336918  0  -0.025163  -0.067454  0  4.050744  0
C  C165  1  0.79170539  0.90446988  0.71377899  1  0.356339  0  -0.024636  -0.065773  0  4.049477  0
C  C166  1  0.75112764  0.86424900  0.47682529  1  0.950927  0  0.110033  0.123098  0  4.025597  0
C  C167  1  0.54061900  0.10914455  0.30476384  1  0.278165  0  -0.026246  -0.068193  0  4.053832  0
C  C168  1  0.77255176  0.29463539  0.34527095  1  0.292437  0  -0.026186  -0.068848  0  4.053975  0
C  C169  1  0.67529954  0.22641123  0.53133640  1  0.336931  0  -0.025052  -0.067182  0  4.050977  0
C  C170  1  0.79170299  0.09553110  0.28621763  1  0.356872  0  -0.024807  -0.065914  0  4.049652  0
C  C171  1  0.75113200  0.13575195  0.52317694  1  0.950898  0  0.10998  0.123037  0  4.025643  0
C  C172  1  0.45937863  0.30476319  0.10915092  1  0.460249  0  -0.026292  -0.068409  0  4.053486  0
C  C173  1  0.22745406  0.34527346  0.29463560  1  0.29246  0  -0.026132  -0.068856  0  4.053957  0
C  C174  1  0.32469829  0.53133601  0.22641135  1  0.336498  0  -0.025096  -0.067409  0  4.050946  0
C  C175  1  0.20829397  0.28621891  0.09552732  1  0.356599  0  -0.024658  -0.06569  0  4.049439  0
C  C176  1  0.24886915  0.52317529  0.13575141  1  0.95088  0  0.109996  0.123063  0  4.02565  0
C  C177  1  0.45937960  0.69523437  0.89085365  1  0.460671  0  -0.026217  -0.068174  0  4.053569  0
C  C178  1  0.22745022  0.65472751  0.70536577  1  0.39732  0  -0.026166  -0.068824  0  4.054037  0
C  C179  1  0.32470449  0.46866193  0.77358767  1  0.336581  0  -0.025028  -0.067218  0  4.050812  0
C  C180  1  0.20830032  0.71378516  0.90447088  1  0.357359  0  -0.024854  -0.065955  0  4.049487  0
C  C181  1  0.24887507  0.47682207  0.86424793  1  0.950578  0  0.109912  0.122945  0  4.025972  0
C  C182  1  0.95937995  0.60914625  0.19522943  1  0.460118  0  -0.026331  -0.068456  0  4.053308  0
C  C183  1  0.72745214  0.79463404  0.15472881  1  0.292424  0  -0.026103  -0.068761  0  4.053935  0
C  C184  1  0.82470479  0.72641034  0.96866192  1  0.336523  0  -0.025086  -0.067274  0  4.051011  0
C  C185  1  0.70830067  0.59552620  0.21378509  1  0.356885  0  -0.024789  -0.065706  0  4.049475  0
C  C186  1  0.74887104  0.63575145  0.97682357  1  0.950979  0  0.109998  0.123094  0  4.025705  0
C  C187  1  0.95937731  0.39085022  0.80476503  1  0.460054  0  -0.026296  -0.068347  0  4.053353  0
C  C188  1  0.72745118  0.20536377  0.84527232  1  0.29238  0  -0.026123  -0.068756  0  4.054207  0
C  C189  1  0.82470411  0.27359067  0.03134050  1  0.336869  0  -0.025106  -0.067261  0  4.051038  0
C  C190  1  0.70829208  0.40447211  0.78621962  1  0.356571  0  -0.024652  -0.065684  0  4.049542  0
C  C191  1  0.74887339  0.36425053  0.02317553  1  0.950492  0  0.109963  0.12308  0  4.025762  0
C  C192  1  0.00000052  0.89697681  0.33630694  1  0.922422  0  0.111283  0.130245  0  4.020551  0
C  C193  1  0.00000059  0.10302447  0.66369487  1  0.922427  0  0.111347  0.130297  0  4.020652  0
C  C194  1  0.49999941  0.16369429  0.39697451  1  0.922718  0  0.111286  0.130262  0  4.020518  0
C  C195  1  0.49999957  0.83630434  0.60302498  1  0.922543  0  0.111272  0.130106  0  4.02054  0
C  C196  1  0.49999983  0.60302053  0.83630457  1  0.922248  0  0.111228  0.13014  0  4.020605  0
C  C197  1  0.49999915  0.39697914  0.16370064  1  0.922201  0  0.111193  0.129972  0  4.020471  0
C  C198  1  0.99999958  0.33629983  0.89698087  1  0.922201  0  0.111287  0.130251  0  4.020486  0
C  C199  1  0.99999903  0.66369668  0.10301422  1  0.921817  0  0.111398  0.130393  0  4.020295  0
C  C200  1  0.83114518  0.78024678  0.21975296  1  0.913167  0  0.109372  0.123061  0  4.019984  0
C  C201  1  0.83114579  0.21974957  0.78025156  1  0.91329  0  0.109333  0.122951  0  4.019956  0
C  C202  1  0.33114634  0.28024833  0.28024853  1  0.913253  0  0.109386  0.122946  0  4.019836  0
C  C203  1  0.33114440  0.71975066  0.71975000  1  0.9134  0  0.109458  0.123135  0  4.01983  0
C  C204  1  0.66885146  0.71974874  0.71974733  1  0.913483  0  0.109375  0.122945  0  4.019806  0
C  C205  1  0.66885812  0.28024693  0.28024689  1  0.913252  0  0.10945  0.123156  0  4.019829  0
C  C206  1  0.16885321  0.21975134  0.78025016  1  0.913177  0  0.109443  0.123123  0  4.019852  0
C  C207  1  0.16885142  0.78025062  0.21974741  1  0.913298  0  0.109388  0.123007  0  4.019901  0
N  N208  1  0.93402088  0.86349580  0.35615348  1  -1.240339  0  -0.380565  -0.296828  0  3.638768  0
N  N209  1  0.79344399  0.83575150  0.24635893  1  -1.261683  0  -0.38252  -0.296017  0  3.643319  0
N  N210  1  0.79737961  0.98569748  0.32345674  1  -1.261439  0  -0.380796  -0.291783  0  3.64298  0
N  N211  1  0.75633520  0.84385529  0.41011062  1  -1.2572  0  -0.378098  -0.288737  0  3.627742  0
N  N212  1  0.93402152  0.13650636  0.64385027  1  -1.240358  0  -0.380603  -0.296796  0  3.638842  0
N  N213  1  0.79344326  0.16424586  0.75364237  1  -1.261636  0  -0.382478  -0.295999  0  3.643241  0
N  N214  1  0.79738021  0.01430403  0.67653885  1  -1.261448  0  -0.380814  -0.29175  0  3.642752  0
N  N215  1  0.75633391  0.15614411  0.58989006  1  -1.257317  0  -0.378066  -0.288684  0  3.627987  0
N  N216  1  0.43402300  0.14384117  0.36349505  1  -1.240654  0  -0.380515  -0.296767  0  3.639118  0
N  N217  1  0.29344397  0.25364160  0.33575381  1  -1.261717  0  -0.382448  -0.295939  0  3.6434  0
N  N218  1  0.29737604  0.17654496  0.48569760  1  -1.261375  0  -0.380798  -0.291704  0  3.64284  0
N  N219  1  0.25633128  0.08989051  0.34385552  1  -1.257559  0  -0.378048  -0.288738  0  3.628046  0
N  N220  1  0.43402272  0.85615584  0.63650478  1  -1.24062  0  -0.380526  -0.29668  0  3.639114  0
N  N221  1  0.29344129  0.74635892  0.66424669  1  -1.261666  0  -0.382524  -0.296071  0  3.643228  0
N  N222  1  0.29737825  0.82345452  0.51430292  1  -1.261379  0  -0.380822  -0.291691  0  3.6429  0
N  N223  1  0.25633938  0.91011205  0.65614592  1  -1.257293  0  -0.378085  -0.28882  0  3.627827  0
N  N224  1  0.56597739  0.63650395  0.85615284  1  -1.240459  0  -0.380548  -0.296721  0  3.638984  0
N  N225  1  0.70655628  0.66424643  0.74635846  1  -1.261655  0  -0.382529  -0.296001  0  3.643139  0
N  N226  1  0.70261797  0.51430457  0.82345733  1  -1.261572  0  -0.380797  -0.291807  0  3.643032  0
N  N227  1  0.74366739  0.65614564  0.91011031  1  -1.257796  0  -0.378036  -0.288693  0  3.62793  0
N  N228  1  0.56597661  0.36349578  0.14385046  1  -1.240016  0  -0.380474  -0.296508  0  3.638678  0
N  N229  1  0.70655760  0.33575343  0.25364053  1  -1.261681  0  -0.382529  -0.296071  0  3.643147  0
N  N230  1  0.70262629  0.48569373  0.17654685  1  -1.261734  0  -0.380769  -0.291661  0  3.642916  0
N  N231  1  0.74366876  0.34385790  0.08988930  1  -1.257581  0  -0.37807  -0.288686  0  3.627817  0
N  N232  1  0.06597624  0.35615011  0.86349857  1  -1.240162  0  -0.380483  -0.296621  0  3.638676  0
N  N233  1  0.20655695  0.24635768  0.83575276  1  -1.261661  0  -0.382529  -0.296079  0  3.643317  0
N  N234  1  0.20262303  0.32345532  0.98569547  1  -1.261515  0  -0.380771  -0.291676  0  3.643094  0
N  N235  1  0.24366672  0.41010871  0.84385341  1  -1.257837  0  -0.377948  -0.288586  0  3.627793  0
N  N236  1  0.06597637  0.64384915  0.13649874  1  -1.240223  0  -0.380539  -0.296737  0  3.638871  0
N  N237  1  0.20655494  0.75364120  0.16424648  1  -1.261712  0  -0.382455  -0.296045  0  3.643283  0
N  N238  1  0.20262573  0.67654666  0.01430427  1  -1.261378  0  -0.3808  -0.291791  0  3.642909  0
N  N239  1  0.24366095  0.58988968  0.15614385  1  -1.257427  0  -0.378128  -0.288795  0  3.627908  0
N  N240  1  0.06598105  0.13650647  0.64385016  1  -1.240427  0  -0.380579  -0.29678  0  3.63874  0
N  N241  1  0.20655617  0.16424766  0.75364264  1  -1.261629  0  -0.382463  -0.296039  0  3.643271  0
N  N242  1  0.20262468  0.01430530  0.67654379  1  -1.261556  0  -0.380787  -0.291684  0  3.642796  0
N  N243  1  0.24366496  0.15614750  0.58989146  1  -1.257916  0  -0.377966  -0.288643  0  3.627988  0
N  N244  1  0.06597923  0.86349487  0.35615389  1  -1.240359  0  -0.380532  -0.296765  0  3.638785  0
N  N245  1  0.20655572  0.83575330  0.24635660  1  -1.261615  0  -0.382432  -0.295903  0  3.643111  0
N  N246  1  0.20261700  0.98569772  0.32345804  1  -1.261465  0  -0.380818  -0.291776  0  3.643025  0
N  N247  1  0.24366566  0.84385193  0.41010943  1  -1.257956  0  -0.377937  -0.288647  0  3.62793  0
N  N248  1  0.56597598  0.85615538  0.63650599  1  -1.240599  0  -0.380518  -0.296596  0  3.639118  0
N  N249  1  0.70655560  0.74635652  0.66424308  1  -1.261808  0  -0.382417  -0.295997  0  3.643152  0
N  N250  1  0.70262117  0.82345834  0.51430553  1  -1.261553  0  -0.380735  -0.291643  0  3.642884  0
N  N251  1  0.74366652  0.91011020  0.65614241  1  -1.257443  0  -0.378099  -0.28863  0  3.627731  0
N  N252  1  0.56597626  0.14384123  0.36349575  1  -1.240653  0  -0.380503  -0.296711  0  3.639198  0
N  N253  1  0.70656123  0.25364023  0.33575072  1  -1.261587  0  -0.382435  -0.295991  0  3.643097  0
N  N254  1  0.70262250  0.17654360  0.48569657  1  -1.261447  0  -0.380845  -0.291804  0  3.6429  0
N  N255  1  0.74366668  0.08989022  0.34385616  1  -1.257414  0  -0.378081  -0.28871  0  3.627781  0
N  N256  1  0.43402159  0.36349676  0.14384977  1  -1.240091  0  -0.380536  -0.296567  0  3.638719  0
N  N257  1  0.29344388  0.33575480  0.25364207  1  -1.261674  0  -0.382465  -0.295966  0  3.643207  0
N  N258  1  0.29737570  0.48569458  0.17654320  1  -1.261534  0  -0.380783  -0.291679  0  3.642929  0
N  N259  1  0.25633454  0.34385455  0.08988866  1  -1.257782  0  -0.378095  -0.288751  0  3.627747  0
N  N260  1  0.43402060  0.63650181  0.85615267  1  -1.240475  0  -0.380565  -0.296718  0  3.63882  0
N  N261  1  0.29344256  0.66424572  0.74635792  1  -1.261675  0  -0.382502  -0.29603  0  3.643174  0
N  N262  1  0.29737976  0.51430230  0.82345576  1  -1.261464  0  -0.380835  -0.291831  0  3.643136  0
N  N263  1  0.25633789  0.65615008  0.91011278  1  -1.257633  0  -0.378022  -0.288743  0  3.62793  0
N  N264  1  0.93402097  0.64384800  0.13649780  1  -1.240264  0  -0.380512  -0.296634  0  3.638503  0
N  N265  1  0.79344321  0.75364096  0.16424829  1  -1.261647  0  -0.382523  -0.296101  0  3.643314  0
N  N266  1  0.79737831  0.67654487  0.01430246  1  -1.261461  0  -0.380836  -0.291761  0  3.642973  0
N  N267  1  0.75634051  0.58988785  0.15615024  1  -1.257485  0  -0.37793  -0.288664  0  3.627858  0
N  N268  1  0.93402202  0.35615052  0.86349867  1  -1.240086  0  -0.380534  -0.296686  0  3.638743  0
N  N269  1  0.79344050  0.24635795  0.83575405  1  -1.261659  0  -0.382466  -0.296067  0  3.643362  0
N  N270  1  0.79738033  0.32345820  0.98569781  1  -1.261438  0  -0.380818  -0.291848  0  3.64297  0
N  N271  1  0.75633154  0.41011051  0.84385512  1  -1.257723  0  -0.378016  -0.288663  0  3.62769  0
