# generated using pymatgen
data_NiH26C32(N2O)4
_symmetry_space_group_name_H-M   'P 1'
_cell_length_a   8.91097246
_cell_length_b   9.53370224
_cell_length_c   9.46165388
_cell_angle_alpha   106.88912961
_cell_angle_beta   92.29187497
_cell_angle_gamma   113.61212562
_symmetry_Int_Tables_number   1
_chemical_formula_structural   NiH26C32(N2O)4
_chemical_formula_sum   'Ni1 H26 C32 N8 O4'
_cell_volume   693.45004136
_cell_formula_units_Z   1
loop_
 _symmetry_equiv_pos_site_id
 _symmetry_equiv_pos_as_xyz
  1  'x, y, z'
loop_
 _atom_site_type_symbol
 _atom_site_label
 _atom_site_symmetry_multiplicity
 _atom_site_fract_x
 _atom_site_fract_y
 _atom_site_fract_z
 _atom_site_occupancy
 _atom_site_pbe_cm5_charge
 _atom_site_pbe_ddec_charge
 _atom_site_pbe_ddec_spin_density
 _atom_site_pbe_ddec_sum_bond_order
 _atom_site_pbe_magmom
Ni  Ni0  1  0.50000012  0.49999747  0.50000068  1  0.673581  0.594165  1.754649  2.742215  1.498
H  H1  1  0.98947000  0.47799002  0.23862246  1  0.120776  0.096265  0.000633  1.011091  0.001
H  H2  1  0.01053944  0.52202083  0.76139115  1  0.120786  0.096287  0.000633  1.011179  0.001
H  H3  1  0.17958644  0.23976259  0.55502594  1  0.122127  0.101113  0.000862  1.024979  0.002
H  H4  1  0.82041116  0.76022872  0.44497642  1  0.122149  0.101182  0.000862  1.024862  0.002
H  H5  1  0.79570177  0.18516883  0.58986731  1  0.101757  0.158924  5.2e-05  1.015157  0.0
H  H6  1  0.20429730  0.81482853  0.41013685  1  0.101736  0.158867  5.2e-05  1.015199  0.0
H  H7  1  0.88607824  0.04777147  0.52953536  1  0.091882  0.129416  5.7e-05  1.020984  0.0
H  H8  1  0.11392449  0.95223195  0.47046747  1  0.091909  0.129476  5.7e-05  1.020889  0.0
H  H9  1  0.72649024  0.04350344  0.40432339  1  0.098535  0.146085  0.000171  1.007728  0.0
H  H10  1  0.27351372  0.95650005  0.59568372  1  0.098508  0.146071  0.000171  1.007751  0.0
H  H11  1  0.61949439  0.47371264  0.20265366  1  0.11642  0.086093  0.000582  1.052827  0.001
H  H12  1  0.38050425  0.52628944  0.79734130  1  0.116373  0.086032  0.000582  1.052895  0.001
H  H13  1  0.61314457  0.26428885  0.97586316  1  0.110066  0.129218  0.000387  1.0319  0.0
H  H14  1  0.38684895  0.73571191  0.02412814  1  0.110061  0.129198  0.000387  1.032013  0.0
H  H15  1  0.40596366  0.91410652  0.20705229  1  0.107076  0.122776  0.000414  1.047872  0.001
H  H16  1  0.59403997  0.08589436  0.79293609  1  0.107104  0.122823  0.000414  1.047757  0.001
H  H17  1  0.41656388  0.14218712  0.42221432  1  0.116561  0.091009  0.000611  1.010948  0.001
H  H18  1  0.58343003  0.85780401  0.57777523  1  0.116524  0.091061  0.000611  1.010851  0.001
H  H19  1  0.32507166  0.25497493  0.78325310  1  0.106217  0.080289  0.000277  1.036865  0.0
H  H20  1  0.67493167  0.74502730  0.21674940  1  0.106209  0.080258  0.000277  1.036908  0.0
H  H21  1  0.23496496  0.02551681  0.88003920  1  0.100169  0.103852  -8.6e-05  1.050148  0.0
H  H22  1  0.76503166  0.97448289  0.11996137  1  0.100183  0.103886  -8.6e-05  1.050136  0.0
H  H23  1  0.84144204  0.15335421  0.03454678  1  0.100383  0.102543  -4.5e-05  1.058232  0.0
H  H24  1  0.15855244  0.84664305  0.96545409  1  0.10038  0.102564  -4.5e-05  1.058168  0.0
H  H25  1  0.93826424  0.36650233  0.91963089  1  0.108245  0.078555  0.000107  1.038688  0.0
H  H26  1  0.06173464  0.63349740  0.08036974  1  0.10825  0.078561  0.000107  1.038671  0.0
C  C27  1  0.20081194  0.47027942  0.35069112  1  0.110163  0.045625  -0.005938  3.930457  -0.004
C  C28  1  0.79918590  0.52971788  0.64930877  1  0.110198  0.045721  -0.005937  3.930318  -0.004
C  C29  1  0.03104038  0.42258323  0.30831317  1  0.058594  0.051694  0.002379  3.950224  0.003
C  C30  1  0.96895535  0.57741656  0.69169798  1  0.0585  0.051538  0.002378  3.950268  0.003
C  C31  1  0.96450292  0.24345803  0.43937432  1  0.130814  0.276911  0.003138  3.968229  0.005
C  C32  1  0.03550015  0.75653819  0.56062959  1  0.130765  0.276798  0.003138  3.968327  0.005
C  C33  1  0.13488009  0.29037838  0.48253457  1  0.055811  -0.008557  -0.006654  3.861805  -0.004
C  C34  1  0.86512236  0.70961657  0.51746474  1  0.055814  -0.008604  -0.006653  3.861773  -0.004
C  C35  1  0.33806363  0.59692369  0.30563815  1  0.205141  0.535008  -0.000887  4.244599  -0.001
C  C36  1  0.66193482  0.40307242  0.69436141  1  0.205149  0.53503  -0.000888  4.244617  -0.001
C  C37  1  0.83614715  0.12201657  0.49291030  1  -0.23958  -0.46135  0.000688  3.933891  0.001
C  C38  1  0.16385628  0.87798570  0.50709645  1  -0.23956  -0.46132  0.000688  3.933788  0.001
C  C39  1  0.57000558  0.34776622  0.19820192  1  0.04833  0.099512  -0.004083  3.924691  -0.002
C  C40  1  0.42998354  0.65223207  0.80178962  1  0.048429  0.099625  -0.004085  3.924504  -0.002
C  C41  1  0.56814071  0.22821140  0.07120706  1  -0.079203  -0.163015  0.002752  3.903344  0.004
C  C42  1  0.43185569  0.77178820  0.92878396  1  -0.079162  -0.162905  0.002752  3.903246  0.004
C  C43  1  0.50556923  0.06625357  0.06765810  1  0.005171  0.080106  -0.005622  3.991114  -0.003
C  C44  1  0.49443736  0.93375110  0.93234307  1  0.005095  0.079934  -0.005625  3.991133  -0.003
C  C45  1  0.45265745  0.03551385  0.19829518  1  -0.08371  -0.173721  0.00285  3.930212  0.004
C  C46  1  0.54734426  0.96448225  0.80169916  1  -0.083694  -0.173706  0.00285  3.930208  0.004
C  C47  1  0.45739789  0.16214076  0.31975894  1  0.043244  0.09227  -0.003667  3.937167  -0.002
C  C48  1  0.54260655  0.83785902  0.68023758  1  0.043233  0.09219  -0.003667  3.937153  -0.002
C  C49  1  0.21627555  0.22744022  0.83857740  1  0.033296  0.079208  0.00012  3.985309  0.0
C  C50  1  0.78373051  0.77256568  0.16142729  1  0.03334  0.079265  0.00012  3.985414  0.0
C  C51  1  0.16611311  0.09908745  0.89475838  1  -0.091237  -0.174166  1.2e-05  3.947731  0.0
C  C52  1  0.83388896  0.90091715  0.10524268  1  -0.091309  -0.174321  1.2e-05  3.947614  0.0
C  C53  1  0.02872471  0.06690171  0.96845368  1  0.002466  0.097505  -4.5e-05  3.974545  0.0
C  C54  1  0.97127901  0.93310412  0.03154777  1  0.002473  0.097689  -4.5e-05  3.974604  0.0
C  C55  1  0.94825012  0.16841073  0.97858117  1  -0.089515  -0.176028  2.4e-05  3.958252  0.0
C  C56  1  0.05174516  0.83159131  0.02141477  1  -0.08956  -0.176184  2.4e-05  3.958404  0.0
C  C57  1  0.00513572  0.29186199  0.91636298  1  0.038055  0.087727  0.000139  3.994768  0.0
C  C58  1  0.99486306  0.70813769  0.08363340  1  0.038077  0.087755  0.000139  3.994751  0.0
N  N59  1  0.25009981  0.40222086  0.43840012  1  -0.312464  -0.176205  0.041615  3.644553  0.064
N  N60  1  0.74990302  0.59777771  0.56159813  1  -0.312469  -0.176225  0.041615  3.644604  0.064
N  N61  1  0.91361492  0.31033847  0.35138893  1  -0.301862  -0.278644  -0.007814  3.260102  -0.006
N  N62  1  0.08637731  0.68966366  0.64862177  1  -0.301767  -0.278464  -0.007812  3.260101  -0.006
N  N63  1  0.51260093  0.31591815  0.32001391  1  -0.321986  -0.218452  0.048299  3.576437  0.074
N  N64  1  0.48740080  0.68407551  0.67997654  1  -0.322072  -0.218589  0.048299  3.576377  0.074
N  N65  1  0.13754611  0.32334592  0.84720004  1  -0.324054  -0.272928  0.000156  3.333358  0.0
N  N66  1  0.86246154  0.67666118  0.15280292  1  -0.324043  -0.2729  0.000156  3.333579  0.0
O  O67  1  0.48724802  0.62632944  0.35805930  1  -0.311157  -0.529959  0.046568  2.34881  0.076
O  O68  1  0.51275134  0.37366904  0.64193569  1  -0.311189  -0.530002  0.046572  2.348854  0.076
O  O69  1  0.29954109  0.66449086  0.22433509  1  -0.313277  -0.535711  0.004624  2.177113  0.008
O  O70  1  0.70045560  0.33550641  0.77566371  1  -0.313254  -0.535719  0.004624  2.17723  0.008
