# generated using pymatgen
data_AgH10C9BrN2
_symmetry_space_group_name_H-M   'P 1'
_cell_length_a   6.56282896
_cell_length_b   8.86808226
_cell_length_c   17.00231070
_cell_angle_alpha   89.99365830
_cell_angle_beta   90.00101477
_cell_angle_gamma   99.72628658
_symmetry_Int_Tables_number   1
_chemical_formula_structural   AgH10C9BrN2
_chemical_formula_sum   'Ag4 H40 C36 Br4 N8'
_cell_volume   975.30606331
_cell_formula_units_Z   4
loop_
 _symmetry_equiv_pos_site_id
 _symmetry_equiv_pos_as_xyz
  1  'x, y, z'
loop_
 _atom_site_type_symbol
 _atom_site_label
 _atom_site_symmetry_multiplicity
 _atom_site_fract_x
 _atom_site_fract_y
 _atom_site_fract_z
 _atom_site_occupancy
 _atom_site_hle17_bader_spin_density
 _atom_site_hle17_ddec_charge
 _atom_site_hle17_ddec_spin_density
 _atom_site_hle17_ddec_sum_bond_order
 _atom_site_hle17_magmom
 _atom_site_hse06_10hf_bader_spin_density
 _atom_site_hse06_10hf_ddec_charge
 _atom_site_hse06_10hf_ddec_spin_density
 _atom_site_hse06_10hf_ddec_sum_bond_order
 _atom_site_hse06_10hf_magmom
 _atom_site_hse06_bader_spin_density
 _atom_site_hse06_ddec_charge
 _atom_site_hse06_ddec_spin_density
 _atom_site_hse06_ddec_sum_bond_order
 _atom_site_hse06_magmom
 _atom_site_pbe_bader_spin_density
 _atom_site_pbe_cm5_charge
 _atom_site_pbe_ddec_charge
 _atom_site_pbe_ddec_spin_density
 _atom_site_pbe_ddec_sum_bond_order
 _atom_site_pbe_magmom
Ag  Ag0  1  0.00191511  0.50414241  0.99933558  1  0  0.147599  0  1.886842  0  0  0.031017  0  2.37419  0  0  0.046865  0  2.330204  0  0  0.271485  0.016947  0  2.40736  0
Ag  Ag1  1  0.49809397  0.49618780  0.49960133  1  0  0.147999  0  1.886245  0  0  0.031398  0  2.373452  0  0  0.047235  0  2.329501  0  0  0.271817  0.017329  0  2.406613  0
Ag  Ag2  1  0.48318209  0.50314805  0.00032899  1  0  0.37692  0  1.743645  0  0  0.263878  0  2.261828  0  0  0.297245  0  2.20353  0  0  0.23105  0.240281  0  2.303771  0
Ag  Ag3  1  0.01510178  0.49719252  0.50019603  1  0  0.376875  0  1.743341  0  0  0.263743  0  2.261322  0  0  0.29714  0  2.203046  0  0  0.230983  0.240123  0  2.303261  0
H  H4  1  0.04614067  0.57038440  0.34941845  1  0  0.085259  0  1.011406  0  0  0.09143  0  1.091853  0  0  0.094225  0  1.089354  0  0  0.081278  0.089287  0  1.093965  0
H  H5  1  0.45368353  0.42915975  0.84969624  1  0  0.085345  0  1.012208  0  0  0.091683  0  1.092387  0  0  0.094453  0  1.089951  0  0  0.081368  0.089564  0  1.094446  0
H  H6  1  0.95166825  0.43030289  0.64935523  1  0  0.084229  0  1.017229  0  0  0.090747  0  1.097234  0  0  0.093502  0  1.094768  0  0  0.080426  0.08866  0  1.099297  0
H  H7  1  0.54835200  0.56926028  0.14963178  1  0  0.084605  0  1.016773  0  0  0.091205  0  1.096577  0  0  0.093962  0  1.094124  0  0  0.080569  0.089116  0  1.09863  0
H  H8  1  0.25069535  0.06005814  0.34461825  1  0  0.083766  0  0.961043  0  0  0.098652  0  1.017568  0  0  0.100806  0  1.017253  0  0  0.092504  0.097093  0  1.017978  0
H  H9  1  0.24916122  0.93954129  0.84456661  1  0  0.083535  0  0.961497  0  0  0.098266  0  1.018226  0  0  0.100401  0  1.017952  0  0  0.092273  0.096735  0  1.018591  0
H  H10  1  0.74861716  0.94057502  0.65765195  1  0  0.084424  0  0.957953  0  0  0.099963  0  1.012963  0  0  0.102202  0  1.012583  0  0  0.093672  0.098378  0  1.013347  0
H  H11  1  0.75131056  0.05904391  0.15752522  1  0  0.083692  0  0.958082  0  0  0.099306  0  1.013096  0  0  0.101527  0  1.012752  0  0  0.093489  0.09774  0  1.013458  0
H  H12  1  0.25536558  0.06116375  0.19751693  1  0  0.106142  0  0.970809  0  0  0.11645  0  1.032156  0  0  0.119453  0  1.030724  0  0  0.094354  0.114448  0  1.032974  0
H  H13  1  0.24456304  0.93886299  0.69746381  1  0  0.106202  0  0.970319  0  0  0.116688  0  1.031487  0  0  0.119704  0  1.030027  0  0  0.094375  0.114665  0  1.032361  0
H  H14  1  0.74627219  0.94343485  0.80472398  1  0  0.105418  0  0.972594  0  0  0.115944  0  1.033958  0  0  0.118961  0  1.032509  0  0  0.093789  0.113909  0  1.034835  0
H  H15  1  0.75375927  0.05656335  0.30458501  1  0  0.105167  0  0.972622  0  0  0.115658  0  1.034072  0  0  0.118633  0  1.032659  0  0  0.093704  0.113625  0  1.034949  0
H  H16  1  0.81923276  0.36629986  0.16555315  1  0  0.096305  0  0.970487  0  0  0.111828  0  1.044761  0  0  0.113001  0  1.044049  0  0  0.090697  0.111088  0  1.044598  0
H  H17  1  0.68105345  0.63372173  0.66588359  1  0  0.096171  0  0.970794  0  0  0.111737  0  1.044924  0  0  0.112904  0  1.044228  0  0  0.090769  0.111013  0  1.04474  0
H  H18  1  0.17927395  0.64037369  0.83377897  1  0  0.096169  0  0.972102  0  0  0.111761  0  1.046602  0  0  0.112993  0  1.045821  0  0  0.090183  0.110955  0  1.046495  0
H  H19  1  0.32082796  0.35955492  0.33419936  1  0  0.096311  0  0.973098  0  0  0.111895  0  1.04761  0  0  0.113127  0  1.046825  0  0  0.090225  0.111102  0  1.047486  0
H  H20  1  0.95310377  0.38479195  0.25783484  1  0  0.109165  0  0.95948  0  0  0.127881  0  1.023235  0  0  0.129741  0  1.02229  0  0  0.097886  0.126423  0  1.023831  0
H  H21  1  0.54733859  0.61496591  0.75816973  1  0  0.109025  0  0.960386  0  0  0.128026  0  1.023793  0  0  0.129877  0  1.022867  0  0  0.097964  0.126565  0  1.024393  0
H  H22  1  0.05446899  0.61720756  0.73979748  1  0  0.109276  0  0.964316  0  0  0.127593  0  1.028598  0  0  0.12936  0  1.027798  0  0  0.097367  0.126228  0  1.029052  0
H  H23  1  0.44541886  0.38256205  0.24017052  1  0  0.108982  0  0.963509  0  0  0.127618  0  1.027445  0  0  0.129419  0  1.026588  0  0  0.097183  0.126199  0  1.027966  0
H  H24  1  0.08128257  0.33388203  0.17132833  1  0  0.096222  0  0.962074  0  0  0.111367  0  1.035848  0  0  0.112602  0  1.035113  0  0  0.090409  0.110464  0  1.036077  0
H  H25  1  0.41913254  0.66624402  0.67176239  1  0  0.096156  0  0.962578  0  0  0.111483  0  1.036019  0  0  0.112725  0  1.035281  0  0  0.090437  0.110583  0  1.036228  0
H  H26  1  0.91729492  0.67079293  0.82343019  1  0  0.099148  0  0.957507  0  0  0.114874  0  1.029892  0  0  0.116051  0  1.029246  0  0  0.092759  0.114097  0  1.029871  0
H  H27  1  0.58287289  0.32922635  0.32381481  1  0  0.098499  0  0.957996  0  0  0.114311  0  1.030523  0  0  0.115498  0  1.02987  0  0  0.092312  0.11351  0  1.030527  0
H  H28  1  0.11355731  0.82771618  0.99464074  1  0  0.09863  0  0.951425  0  0  0.118628  0  1.020922  0  0  0.119837  0  1.019278  0  0  0.099135  0.118128  0  1.02144  0
H  H29  1  0.38635569  0.17286024  0.49474396  1  0  0.098687  0  0.951304  0  0  0.118865  0  1.020577  0  0  0.120075  0  1.018931  0  0  0.099046  0.118358  0  1.021102  0
H  H30  1  0.88958767  0.18179657  0.00587000  1  0  0.097418  0  0.953274  0  0  0.118018  0  1.022318  0  0  0.11919  0  1.020759  0  0  0.098718  0.117448  0  1.022951  0
H  H31  1  0.61069774  0.81879749  0.50594490  1  0  0.0976  0  0.952296  0  0  0.117881  0  1.021604  0  0  0.119062  0  1.020039  0  0  0.098736  0.117315  0  1.022221  0
H  H32  1  0.34198014  0.92206618  0.04274553  1  0  0.105118  0  0.946958  0  0  0.121799  0  1.015871  0  0  0.122616  0  1.015794  0  0  0.096831  0.12102  0  1.016044  0
H  H33  1  0.15813007  0.07820208  0.54290137  1  0  0.10492  0  0.947216  0  0  0.121694  0  1.01612  0  0  0.12252  0  1.016037  0  0  0.09668  0.120916  0  1.016276  0
H  H34  1  0.66124792  0.08613352  0.95814744  1  0  0.104572  0  0.948016  0  0  0.121143  0  1.01729  0  0  0.121994  0  1.017154  0  0  0.096817  0.120292  0  1.01757  0
H  H35  1  0.83869992  0.91452858  0.45802399  1  0  0.104307  0  0.947937  0  0  0.120761  0  1.017343  0  0  0.121635  0  1.017205  0  0  0.096629  0.119913  0  1.0176  0
H  H36  1  0.10210178  0.98479100  0.06035751  1  0  0.102118  0  0.945592  0  0  0.12212  0  1.009329  0  0  0.122827  0  1.009423  0  0  0.101039  0.121499  0  1.00921  0
H  H37  1  0.39822225  0.01563460  0.56034992  1  0  0.102419  0  0.94555  0  0  0.122285  0  1.009484  0  0  0.122985  0  1.009589  0  0  0.101231  0.121661  0  1.00936  0
H  H38  1  0.90152038  0.02329309  0.94118535  1  0  0.101545  0  0.943103  0  0  0.122397  0  1.005864  0  0  0.122969  0  1.00613  0  0  0.101588  0.121856  0  1.00565  0
H  H39  1  0.59816797  0.97697575  0.44109715  1  0  0.1009  0  0.942745  0  0  0.121598  0  1.005679  0  0  0.122201  0  1.005909  0  0  0.101191  0.121027  0  1.005492  0
H  H40  1  0.15190959  0.81794101  0.41882160  1  0  0.079953  0  0.977947  0  0  0.091111  0  1.043846  0  0  0.093528  0  1.042902  0  0  0.085098  0.089316  0  1.044535  0
H  H41  1  0.34793092  0.18143625  0.91894306  1  0  0.079798  0  0.978397  0  0  0.091052  0  1.044111  0  0  0.093469  0  1.043173  0  0  0.085067  0.089275  0  1.044784  0
H  H42  1  0.84546186  0.18090958  0.58167706  1  0  0.080273  0  0.976627  0  0  0.090736  0  1.043288  0  0  0.093188  0  1.042285  0  0  0.085611  0.088892  0  1.044063  0
H  H43  1  0.65446760  0.81851111  0.08174543  1  0  0.08044  0  0.976375  0  0  0.090797  0  1.043248  0  0  0.093267  0  1.042204  0  0  0.085578  0.088961  0  1.044027  0
C  C44  1  0.06447693  0.62365985  0.10417260  1  0  -0.021164  0  3.44495  0  0  -0.041757  0  3.779862  0  0  -0.031462  0  3.786397  0  0  0.059946  -0.047469  0  3.77544  0
C  C45  1  0.43565751  0.37655121  0.60439053  1  0  -0.02015  0  3.446634  0  0  -0.040353  0  3.781759  0  0  -0.030039  0  3.788292  0  0  0.060042  -0.046076  0  3.777348  0
C  C46  1  0.93848876  0.38325228  0.89495878  1  0  -0.017341  0  3.44117  0  0  -0.039412  0  3.777376  0  0  -0.028978  0  3.783716  0  0  0.060017  -0.045206  0  3.773169  0
C  C47  1  0.56149736  0.61699043  0.39518975  1  0  -0.018055  0  3.442175  0  0  -0.040082  0  3.778283  0  0  -0.029647  0  3.784623  0  0  0.059931  -0.045873  0  3.774083  0
C  C48  1  0.09214928  0.67623498  0.31644534  1  0  -0.138389  0  3.747516  0  0  -0.160124  0  4.007011  0  0  -0.16372  0  4.02802  0  0  -0.102899  -0.158602  0  3.993959  0
C  C49  1  0.40787108  0.32342384  0.81665008  1  0  -0.139073  0  3.749428  0  0  -0.160891  0  4.008558  0  0  -0.164503  0  4.029581  0  0  -0.103032  -0.159363  0  3.995508  0
C  C50  1  0.90737577  0.32518412  0.68305468  1  0  -0.139759  0  3.749284  0  0  -0.16154  0  4.008485  0  0  -0.165112  0  4.029455  0  0  -0.103724  -0.160096  0  3.995528  0
C  C51  1  0.59262104  0.67450332  0.18322202  1  0  -0.140334  0  3.749  0  0  -0.162203  0  4.00879  0  0  -0.165766  0  4.029765  0  0  -0.104178  -0.160761  0  3.995849  0
C  C52  1  0.20840316  0.95305460  0.31241720  1  0  -0.070825  0  3.772654  0  0  -0.088392  0  4.028463  0  0  -0.090331  0  4.050154  0  0  -0.099868  -0.088039  0  4.014532  0
C  C53  1  0.29155721  0.04662652  0.81244404  1  0  -0.069878  0  3.772878  0  0  -0.087303  0  4.028694  0  0  -0.08924  0  4.050392  0  0  -0.099304  -0.086963  0  4.014759  0
C  C54  1  0.79188916  0.04846012  0.68904841  1  0  -0.071498  0  3.774347  0  0  -0.08903  0  4.029735  0  0  -0.091017  0  4.051405  0  0  -0.099572  -0.088632  0  4.015765  0
C  C55  1  0.70810839  0.95127870  0.18903140  1  0  -0.07024  0  3.773416  0  0  -0.087851  0  4.028868  0  0  -0.089828  0  4.050505  0  0  -0.099185  -0.087471  0  4.014951  0
C  C56  1  0.09295435  0.67813165  0.23446066  1  0  0.103344  0  3.778097  0  0  0.094147  0  4.018351  0  0  0.098538  0  4.04052  0  0  0.093493  0.091611  0  4.003676  0
C  C57  1  0.40710532  0.32180127  0.73466234  1  0  0.104876  0  3.778712  0  0  0.096313  0  4.018947  0  0  0.10072  0  4.041113  0  0  0.09433  0.09375  0  4.004294  0
C  C58  1  0.90837964  0.32538140  0.76504645  1  0  0.104529  0  3.776323  0  0  0.095616  0  4.01693  0  0  0.099994  0  4.039059  0  0  0.094496  0.093108  0  4.002284  0
C  C59  1  0.59161546  0.67452422  0.26521739  1  0  0.104745  0  3.773909  0  0  0.095012  0  4.015524  0  0  0.09936  0  4.037695  0  0  0.094386  0.092512  0  4.000857  0
C  C60  1  0.20985957  0.95541899  0.23046252  1  0  -0.130197  0  3.746241  0  0  -0.146471  0  3.993278  0  0  -0.148754  0  4.01328  0  0  -0.091461  -0.144386  0  3.979313  0
C  C61  1  0.29012087  0.04450936  0.73048043  1  0  -0.130205  0  3.745069  0  0  -0.146507  0  3.991915  0  0  -0.148794  0  4.011923  0  0  -0.0915  -0.144434  0  3.97794  0
C  C62  1  0.79160530  0.04825834  0.77102491  1  0  -0.129295  0  3.748391  0  0  -0.145199  0  3.99557  0  0  -0.147498  0  4.015614  0  0  -0.09099  -0.143082  0  3.981527  0
C  C63  1  0.70839904  0.95163908  0.27100909  1  0  -0.128966  0  3.748183  0  0  -0.144825  0  3.995403  0  0  -0.147074  0  4.01544  0  0  -0.090744  -0.142721  0  3.981373  0
C  C64  1  0.15108294  0.81563701  0.19234758  1  0  0.101848  0  3.782488  0  0  0.095691  0  4.017366  0  0  0.098743  0  4.04053  0  0  0.097414  0.094188  0  4.001714  0
C  C65  1  0.34914276  0.18440365  0.69247923  1  0  0.100978  0  3.784712  0  0  0.094605  0  4.019668  0  0  0.097648  0  4.042839  0  0  0.096388  0.093122  0  4.004  0
C  C66  1  0.85133885  0.18895097  0.80810353  1  0  0.104266  0  3.784271  0  0  0.095934  0  4.021729  0  0  0.099037  0  4.044828  0  0  0.096202  0.094426  0  4.006102  0
C  C67  1  0.64864676  0.81102967  0.30817333  1  0  0.104683  0  3.783734  0  0  0.096595  0  4.02133  0  0  0.099702  0  4.044396  0  0  0.096203  0.095112  0  4.005674  0
C  C68  1  0.96964822  0.40242765  0.19420960  1  0  -0.163206  0  3.61435  0  0  -0.258769  0  3.852316  0  0  -0.25631  0  3.861262  0  0  -0.139393  -0.259418  0  3.845376  0
C  C69  1  0.53068212  0.59753386  0.69453993  1  0  -0.162632  0  3.615921  0  0  -0.258205  0  3.854198  0  0  -0.255689  0  3.863053  0  0  -0.139211  -0.258875  0  3.847273  0
C  C70  1  0.03188441  0.60213860  0.80335194  1  0  -0.166176  0  3.618704  0  0  -0.26211  0  3.856824  0  0  -0.259688  0  3.86587  0  0  -0.141302  -0.262701  0  3.849662  0
C  C71  1  0.46816258  0.39779624  0.30371879  1  0  -0.166091  0  3.618186  0  0  -0.262269  0  3.855478  0  0  -0.259841  0  3.864538  0  0  -0.141216  -0.262827  0  3.84833  0
C  C72  1  0.17481560  0.88447392  0.04894731  1  0  -0.159217  0  3.646011  0  0  -0.262676  0  3.891845  0  0  -0.25934  0  3.901374  0  0  -0.134762  -0.264569  0  3.885185  0
C  C73  1  0.32530016  0.11589865  0.54903380  1  0  -0.158944  0  3.644762  0  0  -0.262539  0  3.890549  0  0  -0.259197  0  3.900048  0  0  -0.13453  -0.264448  0  3.883934  0
C  C74  1  0.82840399  0.12370884  0.95187685  1  0  -0.156374  0  3.644326  0  0  -0.260588  0  3.889182  0  0  -0.257257  0  3.898862  0  0  -0.133745  -0.262499  0  3.882668  0
C  C75  1  0.67156712  0.87671408  0.45185744  1  0  -0.155847  0  3.643131  0  0  -0.259472  0  3.887728  0  0  -0.256202  0  3.89739  0  0  -0.133644  -0.261336  0  3.881217  0
C  C76  1  0.15084425  0.81600025  0.35460615  1  0  -0.068434  0  3.765435  0  0  -0.086215  0  4.024336  0  0  -0.087936  0  4.046913  0  0  -0.102074  -0.084864  0  4.00987  0
C  C77  1  0.34904038  0.18355914  0.85473479  1  0  -0.068574  0  3.766746  0  0  -0.08653  0  4.026023  0  0  -0.088232  0  4.048555  0  0  -0.102068  -0.085184  0  4.011538  0
C  C78  1  0.84807598  0.18444372  0.64587312  1  0  -0.068044  0  3.767292  0  0  -0.085519  0  4.026445  0  0  -0.087291  0  4.049107  0  0  -0.102746  -0.084208  0  4.012057  0
C  C79  1  0.65191874  0.81517208  0.14594134  1  0  -0.068697  0  3.766776  0  0  -0.086036  0  4.025904  0  0  -0.087816  0  4.048571  0  0  -0.102797  -0.08474  0  4.01153  0
Br  Br80  1  0.43338881  0.27100775  0.08372767  1  0  -0.548299  0  1.108444  0  0  -0.465309  0  1.441244  0  0  -0.487868  0  1.413531  0  0  -0.265693  -0.447742  0  1.459587  0
Br  Br81  1  0.06659547  0.72924329  0.58361696  1  0  -0.548327  0  1.108447  0  0  -0.465177  0  1.441019  0  0  -0.487785  0  1.413382  0  0  -0.265808  -0.447547  0  1.459289  0
Br  Br82  1  0.56142316  0.73300149  0.91593854  1  0  -0.549776  0  1.100591  0  0  -0.466938  0  1.432773  0  0  -0.489465  0  1.404979  0  0  -0.26897  -0.449256  0  1.451069  0
Br  Br83  1  0.93844083  0.26721854  0.41585846  1  0  -0.549838  0  1.101223  0  0  -0.466861  0  1.433431  0  0  -0.489441  0  1.405696  0  0  -0.268784  -0.449165  0  1.451735  0
N  N84  1  0.13070837  0.77654446  0.11321245  1  0  -0.065469  0  3.619139  0  0  0.030497  0  3.830939  0  0  0.013895  0  3.860772  0  0  -0.247146  0.041019  0  3.810625  0
N  N85  1  0.36940950  0.22368066  0.61336765  1  0  -0.066074  0  3.620383  0  0  0.029987  0  3.83209  0  0  0.0134  0  3.861901  0  0  -0.246865  0.040487  0  3.811785  0
N  N86  1  0.87219743  0.23012558  0.88694820  1  0  -0.068082  0  3.616571  0  0  0.028552  0  3.829188  0  0  0.011913  0  3.858914  0  0  -0.246423  0.038959  0  3.809051  0
N  N87  1  0.62777508  0.77008769  0.38704253  1  0  -0.068275  0  3.618111  0  0  0.028257  0  3.830623  0  0  0.011639  0  3.860326  0  0  -0.245922  0.03865  0  3.810488  0
N  N88  1  0.04302317  0.56389722  0.17816975  1  0  -0.064004  0  3.586394  0  0  0.031765  0  3.799408  0  0  0.014992  0  3.828368  0  0  -0.246695  0.041991  0  3.779879  0
N  N89  1  0.45720070  0.43615025  0.67842149  1  0  -0.065641  0  3.588125  0  0  0.028612  0  3.80299  0  0  0.011799  0  3.831978  0  0  -0.247408  0.038854  0  3.783471  0
N  N90  1  0.95933887  0.44104714  0.82056044  1  0  -0.068092  0  3.588688  0  0  0.028474  0  3.801747  0  0  0.011726  0  3.830562  0  0  -0.24688  0.038699  0  3.782276  0
N  N91  1  0.54062441  0.55897432  0.32082007  1  0  -0.067091  0  3.585562  0  0  0.029811  0  3.798635  0  0  0.01304  0  3.827495  0  0  -0.246631  0.040057  0  3.779119  0
