# generated using pymatgen
data_Tb2H11C11NO16
_symmetry_space_group_name_H-M   'P 1'
_cell_length_a   7.58201002
_cell_length_b   10.83096821
_cell_length_c   12.77950792
_cell_angle_alpha   94.99041339
_cell_angle_beta   103.51510986
_cell_angle_gamma   107.57539072
_symmetry_Int_Tables_number   1
_chemical_formula_structural   Tb2H11C11NO16
_chemical_formula_sum   'Tb4 H22 C22 N2 O32'
_cell_volume   958.61055368
_cell_formula_units_Z   2
loop_
 _symmetry_equiv_pos_site_id
 _symmetry_equiv_pos_as_xyz
  1  'x, y, z'
loop_
 _atom_site_type_symbol
 _atom_site_label
 _atom_site_symmetry_multiplicity
 _atom_site_fract_x
 _atom_site_fract_y
 _atom_site_fract_z
 _atom_site_occupancy
 _atom_site_hle17_bader_spin_density
 _atom_site_hle17_ddec_charge
 _atom_site_hle17_ddec_spin_density
 _atom_site_hle17_ddec_sum_bond_order
 _atom_site_hle17_magmom
 _atom_site_hse06_10hf_bader_spin_density
 _atom_site_hse06_10hf_ddec_charge
 _atom_site_hse06_10hf_ddec_spin_density
 _atom_site_hse06_10hf_ddec_sum_bond_order
 _atom_site_hse06_10hf_magmom
 _atom_site_hse06_bader_spin_density
 _atom_site_hse06_ddec_charge
 _atom_site_hse06_ddec_spin_density
 _atom_site_hse06_ddec_sum_bond_order
 _atom_site_hse06_magmom
 _atom_site_pbe_bader_spin_density
 _atom_site_pbe_cm5_charge
 _atom_site_pbe_ddec_charge
 _atom_site_pbe_ddec_spin_density
 _atom_site_pbe_ddec_sum_bond_order
 _atom_site_pbe_magmom
Tb  Tb0  1  0.82482143  0.53686635  0.19256170  1  0  2.247377  0  1.667212  0  0  2.096306  0  2.148341  0  0  2.217813  0  1.963092  0  0  1.513849  2.061914  0  2.179428  0
Tb  Tb1  1  0.17517475  0.46313249  0.80742669  1  0  2.247313  0  1.667272  0  0  2.096239  0  2.148401  0  0  2.217745  0  1.963162  0  0  1.51385  2.061847  0  2.179505  0
Tb  Tb2  1  0.27670183  0.17893555  0.39899679  1  0  2.198686  0  1.642992  0  0  2.02228  0  2.139082  0  0  2.068636  0  2.101214  0  0  1.489683  1.986853  0  2.169037  0
Tb  Tb3  1  0.72329352  0.82106447  0.60100800  1  0  2.198683  0  1.643034  0  0  2.022257  0  2.139158  0  0  2.068614  0  2.101288  0  0  1.489696  1.986832  0  2.16909  0
H  H4  1  0.46137532  0.59400754  0.08495301  1  0  0.449096  0  0.842699  0  0  0.417895  0  0.90538  0  0  0.43012  0  0.887614  0  0  0.304072  0.409513  0  0.917664  0
H  H5  1  0.53860584  0.40598820  0.91503231  1  0  0.449136  0  0.842623  0  0  0.417852  0  0.905414  0  0  0.430075  0  0.887654  0  0  0.30412  0.409474  0  0.91769  0
H  H6  1  0.55764127  0.67431102  0.20335114  1  0  0.444289  0  0.802354  0  0  0.427828  0  0.854206  0  0  0.436744  0  0.842426  0  0  0.332094  0.421439  0  0.861971  0
H  H7  1  0.44234672  0.32568772  0.79663455  1  0  0.44422  0  0.802396  0  0  0.42775  0  0.854271  0  0  0.436667  0  0.842527  0  0  0.332102  0.421362  0  0.862038  0
H  H8  1  0.58683222  0.47090749  0.33318291  1  0  0.436395  0  0.868629  0  0  0.404144  0  0.934031  0  0  0.416183  0  0.916765  0  0  0.300639  0.39538  0  0.946865  0
H  H9  1  0.41317310  0.52909353  0.66681707  1  0  0.436461  0  0.868538  0  0  0.404236  0  0.933902  0  0  0.416275  0  0.916634  0  0  0.300674  0.395477  0  0.946724  0
H  H10  1  0.76097656  0.58396414  0.41977946  1  0  0.455739  0  0.824465  0  0  0.427545  0  0.881891  0  0  0.437902  0  0.866861  0  0  0.316893  0.420449  0  0.892324  0
H  H11  1  0.23902696  0.41604753  0.58021314  1  0  0.455737  0  0.824516  0  0  0.42759  0  0.881881  0  0  0.437949  0  0.866846  0  0  0.316931  0.420493  0  0.892313  0
H  H12  1  0.89932611  0.12188352  0.43753155  1  0  0.448087  0  0.814217  0  0  0.421369  0  0.882099  0  0  0.431003  0  0.867728  0  0  0.321012  0.414463  0  0.892432  0
H  H13  1  0.10066062  0.87811259  0.56247961  1  0  0.448073  0  0.814232  0  0  0.421347  0  0.882132  0  0  0.430982  0  0.867758  0  0  0.321002  0.414439  0  0.892469  0
H  H14  1  0.01117690  0.12446780  0.55698634  1  0  0.454393  0  0.833784  0  0  0.423594  0  0.895429  0  0  0.435504  0  0.877913  0  0  0.30887  0.415195  0  0.907758  0
H  H15  1  0.98881845  0.87552933  0.44302217  1  0  0.454335  0  0.833829  0  0  0.423481  0  0.895547  0  0  0.435391  0  0.878034  0  0  0.308797  0.415086  0  0.907866  0
H  H16  1  0.59812719  0.42840127  0.53615169  1  0  0.439966  0  0.849592  0  0  0.411226  0  0.911347  0  0  0.422223  0  0.895066  0  0  0.308739  0.403316  0  0.922978  0
H  H17  1  0.40187178  0.57160357  0.46384532  1  0  0.440028  0  0.849567  0  0  0.41126  0  0.911331  0  0  0.422259  0  0.895048  0  0  0.308721  0.403349  0  0.922965  0
H  H18  1  0.66177377  0.31236915  0.56830228  1  0  0.455489  0  0.796684  0  0  0.433511  0  0.85485  0  0  0.44301  0  0.840845  0  0  0.33086  0.426855  0  0.86403  0
H  H19  1  0.33823203  0.68763868  0.43169509  1  0  0.455511  0  0.796635  0  0  0.433548  0  0.854795  0  0  0.443045  0  0.840792  0  0  0.330857  0.426889  0  0.863953  0
H  H20  1  0.06040780  0.78093623  0.04261780  1  0  0.113347  0  0.943324  0  0  0.120207  0  1.007475  0  0  0.123263  0  1.006383  0  0  0.118667  0.11784  0  1.008714  0
H  H21  1  0.93961389  0.21905630  0.95739486  1  0  0.113342  0  0.943332  0  0  0.120166  0  1.007525  0  0  0.123223  0  1.006433  0  0  0.118652  0.117803  0  1.008758  0
H  H22  1  0.21090359  0.91533749  0.91630544  1  0  0.122753  0  0.936336  0  0  0.129947  0  0.995729  0  0  0.134389  0  0.992192  0  0  0.114795  0.126719  0  0.998284  0
H  H23  1  0.78913490  0.08465325  0.08370865  1  0  0.1227  0  0.936352  0  0  0.129916  0  0.995714  0  0  0.134358  0  0.992188  0  0  0.114782  0.12669  0  0.99826  0
H  H24  1  0.38601315  0.16036446  0.98370297  1  0  0.129796  0  0.931349  0  0  0.137783  0  0.990652  0  0  0.142289  0  0.987359  0  0  0.119912  0.134595  0  0.992878  0
H  H25  1  0.61401125  0.83962805  0.01630615  1  0  0.129721  0  0.931338  0  0  0.137711  0  0.990629  0  0  0.142216  0  0.987335  0  0  0.119868  0.134529  0  0.992854  0
C  C26  1  0.55490167  0.00816126  0.45524080  1  0  0.545571  0  3.957483  0  0  0.504218  0  4.255917  0  0  0.534067  0  4.246737  0  0  0.203824  0.483936  0  4.261384  0
C  C27  1  0.44509412  0.99183678  0.54476235  1  0  0.545493  0  3.957634  0  0  0.504187  0  4.256032  0  0  0.53404  0  4.246845  0  0  0.203807  0.483913  0  4.261492  0
C  C28  1  0.97553714  0.30275429  0.26408363  1  0  0.573804  0  3.925938  0  0  0.531684  0  4.223294  0  0  0.561986  0  4.21694  0  0  0.219036  0.511048  0  4.229117  0
C  C29  1  0.02447229  0.69725261  0.73591496  1  0  0.573756  0  3.925888  0  0  0.531576  0  4.223305  0  0  0.561875  0  4.216955  0  0  0.218993  0.510937  0  4.229128  0
C  C30  1  0.10153979  0.42150988  0.35558000  1  0  0.572072  0  3.888095  0  0  0.526647  0  4.181178  0  0  0.557374  0  4.174425  0  0  0.226596  0.505709  0  4.187481  0
C  C31  1  0.89847235  0.57849702  0.64441662  1  0  0.57198  0  3.887979  0  0  0.526644  0  4.180948  0  0  0.557377  0  4.174181  0  0  0.226556  0.50571  0  4.18725  0
C  C32  1  0.10211822  0.52180566  0.04039019  1  0  0.555171  0  3.940473  0  0  0.509909  0  4.243082  0  0  0.539216  0  4.241945  0  0  0.21986  0.489664  0  4.248852  0
C  C33  1  0.89785885  0.47819291  0.95958927  1  0  0.554399  0  3.941044  0  0  0.509152  0  4.243649  0  0  0.538453  0  4.242532  0  0  0.219682  0.488911  0  4.249408  0
C  C34  1  0.06530496  0.87781650  0.25386619  1  0  0.70836  0  3.840045  0  0  0.660424  0  4.126133  0  0  0.696677  0  4.115108  0  0  0.251376  0.636053  0  4.133294  0
C  C35  1  0.93467903  0.12218531  0.74613400  1  0  0.708131  0  3.840456  0  0  0.659982  0  4.126846  0  0  0.696236  0  4.115827  0  0  0.251246  0.635621  0  4.133995  0
C  C36  1  0.15144730  0.94749722  0.17150101  1  0  0.100471  0  3.743819  0  0  0.105708  0  3.985609  0  0  0.10485  0  4.003491  0  0  0.125921  0.106271  0  3.972933  0
C  C37  1  0.84854578  0.05250375  0.82850274  1  0  0.100445  0  3.744063  0  0  0.105823  0  3.985782  0  0  0.104963  0  4.00367  0  0  0.125977  0.106384  0  3.973109  0
C  C38  1  0.13742385  0.88585869  0.06766716  1  0  -0.079494  0  3.654288  0  0  -0.105714  0  3.906766  0  0  -0.107752  0  3.926287  0  0  -0.059153  -0.10428  0  3.89349  0
C  C39  1  0.86258786  0.11413859  0.93234129  1  0  -0.079362  0  3.654349  0  0  -0.105582  0  3.906804  0  0  -0.10762  0  3.926327  0  0  -0.059065  -0.104155  0  3.893532  0
C  C40  1  0.22233298  0.96148081  0.99809465  1  0  -0.005177  0  3.66258  0  0  -0.022895  0  3.919979  0  0  -0.023153  0  3.938685  0  0  -0.057705  -0.022699  0  3.907253  0
C  C41  1  0.77768780  0.03851556  0.00191343  1  0  -0.005181  0  3.662738  0  0  -0.022918  0  3.92015  0  0  -0.023184  0  3.938864  0  0  -0.05771  -0.022717  0  3.907419  0
C  C42  1  0.31871126  0.09596843  0.03457410  1  0  -0.080079  0  3.637321  0  0  -0.10429  0  3.885482  0  0  -0.106729  0  3.904108  0  0  -0.055539  -0.102458  0  3.872596  0
C  C43  1  0.68130499  0.90402987  0.96543504  1  0  -0.080021  0  3.637398  0  0  -0.104187  0  3.88557  0  0  -0.106628  0  3.904199  0  0  -0.055543  -0.102363  0  3.87268  0
C  C44  1  0.32748074  0.14907053  0.14011522  1  0  0.115991  0  3.723922  0  0  0.121268  0  3.965759  0  0  0.121032  0  3.982905  0  0  0.127496  0.121277  0  3.953758  0
C  C45  1  0.67251825  0.85092857  0.85989158  1  0  0.116055  0  3.724067  0  0  0.121255  0  3.965997  0  0  0.121021  0  3.98314  0  0  0.127518  0.121267  0  3.954  0
C  C46  1  0.43449961  0.29044381  0.19104718  1  0  0.679612  0  3.849378  0  0  0.628029  0  4.142561  0  0  0.663422  0  4.13433  0  0  0.241244  0.604101  0  4.149309  0
C  C47  1  0.56550301  0.70955434  0.80895928  1  0  0.679471  0  3.849688  0  0  0.62796  0  4.142787  0  0  0.663352  0  4.134554  0  0  0.241164  0.604026  0  4.149542  0
N  N48  1  0.24524658  0.07607308  0.20622141  1  0  -0.393161  0  3.326031  0  0  -0.350443  0  3.575141  0  0  -0.361185  0  3.595806  0  0  -0.368371  -0.342694  0  3.560985  0
N  N49  1  0.75474061  0.92392688  0.79378459  1  0  -0.393254  0  3.32625  0  0  -0.350552  0  3.575363  0  0  -0.361295  0  3.596028  0  0  -0.368419  -0.342803  0  3.561205  0
O  O50  1  0.53347433  0.09279529  0.39544493  1  0  -0.660987  0  2.035702  0  0  -0.617413  0  2.275081  0  0  -0.639857  0  2.266065  0  0  -0.376082  -0.601443  0  2.280891  0
O  O51  1  0.46651506  0.90719777  0.60455466  1  0  -0.660921  0  2.035785  0  0  -0.617352  0  2.275131  0  0  -0.639797  0  2.266111  0  0  -0.376043  -0.601381  0  2.280931  0
O  O52  1  0.34111161  0.06312079  0.54981741  1  0  -0.655859  0  2.029794  0  0  -0.604117  0  2.263638  0  0  -0.626972  0  2.253393  0  0  -0.371279  -0.587915  0  2.270431  0
O  O53  1  0.65888965  0.93688027  0.45018827  1  0  -0.65582  0  2.029761  0  0  -0.604069  0  2.263624  0  0  -0.626922  0  2.253381  0  0  -0.371251  -0.587859  0  2.270414  0
O  O54  1  0.00099206  0.19373670  0.27220275  1  0  -0.65029  0  2.068164  0  0  -0.605532  0  2.311921  0  0  -0.62824  0  2.303068  0  0  -0.369807  -0.589199  0  2.317458  0
O  O55  1  0.99901557  0.80626925  0.72779944  1  0  -0.650253  0  2.06799  0  0  -0.605486  0  2.311779  0  0  -0.62819  0  2.302923  0  0  -0.369793  -0.589154  0  2.317322  0
O  O56  1  0.85713558  0.32570849  0.18706731  1  0  -0.669172  0  2.045976  0  0  -0.623841  0  2.287078  0  0  -0.657814  0  2.277094  0  0  -0.379689  -0.606039  0  2.291187  0
O  O57  1  0.14288519  0.67429943  0.81292666  1  0  -0.669096  0  2.046019  0  0  -0.623746  0  2.287137  0  0  -0.657719  0  2.27716  0  0  -0.379592  -0.605936  0  2.29124  0
O  O58  1  0.23672951  0.40472872  0.42760350  1  0  -0.669797  0  2.082203  0  0  -0.603675  0  2.306422  0  0  -0.628493  0  2.296328  0  0  -0.333856  -0.585241  0  2.31207  0
O  O59  1  0.76327040  0.59527814  0.57239846  1  0  -0.669751  0  2.082069  0  0  -0.603668  0  2.306265  0  0  -0.62849  0  2.29617  0  0  -0.333896  -0.585236  0  2.311911  0
O  O60  1  0.06435632  0.52730151  0.35052752  1  0  -0.657516  0  2.045427  0  0  -0.609284  0  2.283312  0  0  -0.641365  0  2.26958  0  0  -0.359649  -0.593576  0  2.291118  0
O  O61  1  0.93565855  0.47270831  0.64946576  1  0  -0.657502  0  2.045395  0  0  -0.609292  0  2.283255  0  0  -0.641374  0  2.26951  0  0  -0.359615  -0.593584  0  2.291066  0
O  O62  1  0.12003227  0.56279460  0.13845540  1  0  -0.63413  0  2.045166  0  0  -0.593226  0  2.283523  0  0  -0.62366  0  2.272848  0  0  -0.351548  -0.578132  0  2.289034  0
O  O63  1  0.87994527  0.43721079  0.86152222  1  0  -0.633877  0  2.045371  0  0  -0.592955  0  2.28369  0  0  -0.62339  0  2.273031  0  0  -0.351508  -0.577861  0  2.289192  0
O  O64  1  0.23663588  0.51229299  0.99915450  1  0  -0.667215  0  2.074488  0  0  -0.609077  0  2.311767  0  0  -0.643475  0  2.298441  0  0  -0.364369  -0.591782  0  2.318292  0
O  O65  1  0.76334070  0.48769583  0.00082738  1  0  -0.666928  0  2.074535  0  0  -0.60877  0  2.311803  0  0  -0.643166  0  2.298486  0  0  -0.364304  -0.591476  0  2.318322  0
O  O66  1  0.98494887  0.75491568  0.23206329  1  0  -0.720144  0  2.071675  0  0  -0.666381  0  2.332037  0  0  -0.704526  0  2.312868  0  0  -0.412047  -0.64817  0  2.340562  0
O  O67  1  0.01504104  0.24508720  0.76793937  1  0  -0.720013  0  2.071792  0  0  -0.666184  0  2.332257  0  0  -0.704331  0  2.313092  0  0  -0.412042  -0.647975  0  2.34078  0
O  O68  1  0.08144500  0.94909942  0.34270296  1  0  -0.700141  0  2.065843  0  0  -0.640325  0  2.2994  0  0  -0.666632  0  2.287967  0  0  -0.351489  -0.621546  0  2.306316  0
O  O69  1  0.91853580  0.05089848  0.65729889  1  0  -0.70007  0  2.066049  0  0  -0.64019  0  2.299691  0  0  -0.666498  0  2.288258  0  0  -0.351472  -0.621414  0  2.306608  0
O  O70  1  0.43551024  0.32196723  0.29059443  1  0  -0.717541  0  2.094355  0  0  -0.656812  0  2.33351  0  0  -0.68419  0  2.324324  0  0  -0.365028  -0.637505  0  2.339587  0
O  O71  1  0.56448601  0.67802893  0.70941336  1  0  -0.717451  0  2.094474  0  0  -0.65677  0  2.333611  0  0  -0.684148  0  2.324423  0  0  -0.365003  -0.637459  0  2.339683  0
O  O72  1  0.51848088  0.36842279  0.13679182  1  0  -0.671094  0  2.032579  0  0  -0.621092  0  2.28197  0  0  -0.655124  0  2.269045  0  0  -0.369251  -0.603899  0  2.288301  0
O  O73  1  0.48153491  0.63157454  0.86321799  1  0  -0.671017  0  2.032549  0  0  -0.621044  0  2.281921  0  0  -0.655076  0  2.268999  0  0  -0.369177  -0.603847  0  2.288251  0
O  O74  1  0.58835170  0.64789052  0.13670408  1  0  -0.885927  0  1.811337  0  0  -0.843127  0  1.997234  0  0  -0.870035  0  1.959841  0  0  -0.622106  -0.830512  0  2.017991  0
O  O75  1  0.41163126  0.35210035  0.86328116  1  0  -0.885916  0  1.81124  0  0  -0.843036  0  1.997294  0  0  -0.86994  0  1.959942  0  0  -0.622174  -0.830415  0  2.018049  0
O  O76  1  0.69566439  0.55557336  0.34157090  1  0  -0.937081  0  1.866164  0  0  -0.889344  0  2.061974  0  0  -0.918678  0  2.020396  0  0  -0.653465  -0.875905  0  2.086456  0
O  O77  1  0.30433771  0.44442364  0.65842211  1  0  -0.937146  0  1.866142  0  0  -0.88947  0  2.06184  0  0  -0.918806  0  2.020261  0  0  -0.653542  -0.876067  0  2.08638  0
O  O78  1  0.02627504  0.16194376  0.48968877  1  0  -0.898749  0  1.829939  0  0  -0.849167  0  2.027254  0  0  -0.867267  0  1.994865  0  0  -0.633654  -0.836149  0  2.049957  0
O  O79  1  0.97371713  0.83805237  0.51031924  1  0  -0.898673  0  1.830053  0  0  -0.848993  0  2.027384  0  0  -0.867096  0  1.994991  0  0  -0.633581  -0.835977  0  2.050091  0
O  O80  1  0.54693015  0.33203384  0.53295777  1  0  -0.892783  0  1.873487  0  0  -0.84568  0  2.074794  0  0  -0.862461  0  2.041916  0  0  -0.641325  -0.833363  0  2.097024  0
O  O81  1  0.45307201  0.66797204  0.46704209  1  0  -0.892863  0  1.873507  0  0  -0.845759  0  2.074779  0  0  -0.862539  0  2.0419  0  0  -0.641289  -0.833445  0  2.096981  0
