# generated using pymatgen
data_Cd2H45C45N18ClO6
_symmetry_space_group_name_H-M   'P 1'
_cell_length_a   9.56291795
_cell_length_b   13.08342407
_cell_length_c   20.95337559
_cell_angle_alpha   103.01357103
_cell_angle_beta   101.15432683
_cell_angle_gamma   100.09592945
_symmetry_Int_Tables_number   1
_chemical_formula_structural   Cd2H45C45N18ClO6
_chemical_formula_sum   'Cd4 H90 C90 N36 Cl2 O12'
_cell_volume   2439.44847548
_cell_formula_units_Z   2
loop_
 _symmetry_equiv_pos_site_id
 _symmetry_equiv_pos_as_xyz
  1  'x, y, z'
loop_
 _atom_site_type_symbol
 _atom_site_label
 _atom_site_symmetry_multiplicity
 _atom_site_fract_x
 _atom_site_fract_y
 _atom_site_fract_z
 _atom_site_occupancy
 _atom_site_pbe_bader_charge
 _atom_site_pbe_bader_spin_density
 _atom_site_pbe_cm5_charge
 _atom_site_pbe_ddec_charge
 _atom_site_pbe_ddec_spin_density
 _atom_site_pbe_ddec_sum_bond_order
 _atom_site_pbe_magmom
Cd  Cd0  1  0.91141296  0.16387826  0.89926574  1  1.22017  0  0.711418  0.816512  0  2.296246  0
Cd  Cd1  1  0.08858658  0.83612084  0.10073280  1  1.220142  0  0.711427  0.816547  0  2.296235  0
Cd  Cd2  1  0.17027949  0.89237854  0.45459787  1  1.27261  0  0.78832  0.875411  0  2.204009  0
Cd  Cd3  1  0.82971994  0.10762379  0.54540253  1  1.27258  0  0.788311  0.875401  0  2.204018  0
H  H4  1  0.46715388  0.27497675  0.83997232  1  0.082631  0  0.101176  0.106849  0  1.002103  0
H  H5  1  0.53284557  0.72502877  0.16002423  1  0.082584  0  0.101169  0.106824  0  1.002093  0
H  H6  1  0.24372861  0.29184457  0.76092215  1  0.071268  0  0.095793  0.09468  0  1.035  0
H  H7  1  0.75626518  0.70814968  0.23907519  1  0.071662  0  0.095749  0.094657  0  1.03498  0
H  H8  1  0.53896524  0.03567509  0.68058112  1  0.104409  0  0.105886  0.112918  0  1.013015  0
H  H9  1  0.46104011  0.96432564  0.31941914  1  0.104433  0  0.10587  0.112889  0  1.013049  0
H  H10  1  0.25050747  0.35114772  0.89141055  1  0.131638  0  0.137623  0.106712  0  0.966016  0
H  H11  1  0.74949967  0.64885544  0.10859117  1  0.13168  0  0.137616  0.106696  0  0.966096  0
H  H12  1  0.81538374  0.37506816  0.82885375  1  0.175126  0  0.14508  0.126929  0  1.000924  0
H  H13  1  0.18462186  0.62493018  0.17114955  1  0.174983  0  0.145111  0.126966  0  1.000866  0
H  H14  1  0.93065592  0.60182172  0.82931900  1  0.082367  0  0.108756  0.088988  0  1.038614  0
H  H15  1  0.06934223  0.39817659  0.17068264  1  0.081856  0  0.108748  0.088994  0  1.038637  0
H  H16  1  0.88964487  0.50933152  0.74985711  1  0.107912  0  0.111806  0.09109  0  1.046018  0
H  H17  1  0.11035302  0.49066598  0.25014535  1  0.113995  0  0.11182  0.091135  0  1.046044  0
H  H18  1  0.98455922  0.42729794  0.68762382  1  0.028506  0  0.090209  0.126895  0  1.044417  0
H  H19  1  0.01544118  0.57269715  0.31237616  1  0.028535  0  0.090175  0.126802  0  1.044521  0
H  H20  1  0.14955164  0.42070540  0.66393010  1  0.058187  0  0.093744  0.137703  0  1.010263  0
H  H21  1  0.85044995  0.57929372  0.33607245  1  0.058198  0  0.093714  0.137701  0  1.010246  0
H  H22  1  0.01992022  0.47495088  0.61833306  1  0.07108  0  0.08885  0.121591  0  1.049458  0
H  H23  1  0.98008044  0.52504501  0.38166657  1  0.071269  0  0.088851  0.121567  0  1.049439  0
H  H24  1  0.05488740  0.79879935  0.88798881  1  0.050869  0  0.087651  0.124319  0  1.026595  0
H  H25  1  0.94511047  0.20120136  0.11201122  1  0.050913  0  0.087642  0.124311  0  1.026609  0
H  H26  1  0.23762069  0.80864599  0.92754129  1  0.063702  0  0.089064  0.133967  0  1.024516  0
H  H27  1  0.76237802  0.19135391  0.07245823  1  0.063678  0  0.089079  0.134025  0  1.024499  0
H  H28  1  0.11055913  0.68550945  0.90845873  1  0.03309  0  0.091359  0.129579  0  1.016615  0
H  H29  1  0.88943873  0.31449127  0.09154179  1  0.03311  0  0.091377  0.129605  0  1.016611  0
H  H30  1  0.46707501  0.79228524  0.67727125  1  0.046803  0  0.085724  0.114343  0  1.077403  0
H  H31  1  0.53292344  0.20771386  0.32272862  1  0.046871  0  0.085718  0.114355  0  1.077405  0
H  H32  1  0.50981766  0.88303494  0.75724430  1  0.055867  0  0.095102  0.140659  0  1.006552  0
H  H33  1  0.49018027  0.11696256  0.24275625  1  0.05594  0  0.095104  0.14067  0  1.006525  0
H  H34  1  0.36122510  0.88900696  0.69521752  1  0.097117  0  0.09423  0.140185  0  1.0177  0
H  H35  1  0.63877302  0.11099456  0.30478265  1  0.097158  0  0.094248  0.14024  0  1.017652  0
H  H36  1  0.40413416  0.63945213  0.63489188  1  0.062316  0  0.116713  0.097913  0  1.026656  0
H  H37  1  0.59586371  0.36054858  0.36510816  1  0.062259  0  0.116717  0.097877  0  1.026674  0
H  H38  1  0.25859171  0.52435721  0.61323125  1  0.086635  0  0.118974  0.10961  0  0.982624  0
H  H39  1  0.74140275  0.47564268  0.38676692  1  0.08686  0  0.118983  0.109603  0  0.982653  0
H  H40  1  0.38437267  0.75656010  0.55568881  1  0.144654  0  0.139887  0.106619  0  1.036934  0
H  H41  1  0.61562087  0.24344381  0.44431079  1  0.144596  0  0.139876  0.106616  0  1.036915  0
H  H42  1  0.92766040  0.68233969  0.48257291  1  0.196218  0  0.131651  0.113831  0  1.019725  0
H  H43  1  0.07233427  0.31766101  0.51742682  1  0.196742  0  0.131646  0.113835  0  1.019739  0
H  H44  1  0.36703692  0.91057526  0.89757639  1  0.101861  0  0.120334  0.108902  0  0.983479  0
H  H45  1  0.63295964  0.08942465  0.10242341  1  0.10193  0  0.120336  0.108894  0  0.983479  0
H  H46  1  0.43511861  0.94504112  0.83106621  1  0.100048  0  0.120046  0.114066  0  0.989466  0
H  H47  1  0.56488097  0.05495477  0.16893380  1  0.100016  0  0.120055  0.114108  0  0.989428  0
H  H48  1  0.19300291  0.01995728  0.93487930  1  0.183452  0  0.124352  0.107871  0  1.050337  0
H  H49  1  0.80700720  0.98004828  0.06511824  1  0.18334  0  0.124297  0.107806  0  1.050334  0
H  H50  1  0.02455689  0.08217798  0.74916552  1  0.169672  0  0.139183  0.114719  0  0.980677  0
H  H51  1  0.97544567  0.91782031  0.25083032  1  0.169724  0  0.13915  0.114657  0  0.980734  0
H  H52  1  0.09285610  0.43014964  0.01346395  1  0.119019  0  0.136185  0.102902  0  0.978121  0
H  H53  1  0.90714908  0.56984707  0.98653622  1  0.118929  0  0.136157  0.102855  0  0.978123  0
H  H54  1  0.14852895  0.12582360  0.03531959  1  0.192863  0  0.116183  0.107764  0  1.087791  0
H  H55  1  0.85147195  0.87417309  0.96468065  1  0.192938  0  0.116182  0.107787  0  1.087656  0
H  H56  1  0.47003507  0.30419204  0.14089120  1  0.102775  0  0.120205  0.114034  0  0.973133  0
H  H57  1  0.52996418  0.69580626  0.85910911  1  0.102785  0  0.120192  0.113963  0  0.973165  0
H  H58  1  0.34673637  0.18566451  0.13916761  1  0.080381  0  0.115749  0.111635  0  1.005125  0
H  H59  1  0.65326427  0.81433138  0.86083298  1  0.080264  0  0.115784  0.111689  0  1.005059  0
H  H60  1  0.48739441  0.57711658  0.21723006  1  0.065512  0  0.092607  0.134467  0  1.033393  0
H  H61  1  0.51260461  0.42288092  0.78276964  1  0.065488  0  0.092635  0.134499  0  1.033355  0
H  H62  1  0.49556314  0.45997583  0.15963845  1  0.069951  0  0.090258  0.127291  0  1.04038  0
H  H63  1  0.50443877  0.54002408  0.84036137  1  0.069952  0  0.090272  0.127285  0  1.040381  0
H  H64  1  0.63360879  0.51302673  0.23515016  1  0.024753  0  0.088028  0.124403  0  1.042231  0
H  H65  1  0.36639336  0.48697399  0.76484980  1  0.024641  0  0.088026  0.124396  0  1.042182  0
H  H66  1  0.21868415  0.10017839  0.23918944  1  0.09857  0  0.100306  0.159399  0  0.988783  0
H  H67  1  0.78131618  0.89981991  0.76081097  1  0.098605  0  0.100324  0.159422  0  0.988763  0
H  H68  1  0.16312410  0.13113076  0.16228950  1  0.071364  0  0.083942  0.118088  0  1.061629  0
H  H69  1  0.83687802  0.86886997  0.83771189  1  0.071341  0  0.083907  0.118002  0  1.061656  0
H  H70  1  0.05752367  0.14785098  0.22257522  1  0.033476  0  0.089048  0.117801  0  1.061215  0
H  H71  1  0.94247584  0.85214812  0.77742475  1  0.033482  0  0.089049  0.1178  0  1.061284  0
H  H72  1  0.22478476  0.51057760  0.42121673  1  0.067635  0  0.095579  0.139833  0  1.002086  0
H  H73  1  0.77521571  0.48942474  0.57878473  1  0.067664  0  0.095597  0.139876  0  1.002085  0
H  H74  1  0.41791168  0.54628328  0.44614381  1  0.027845  0  0.087186  0.11482  0  1.040252  0
H  H75  1  0.58208940  0.45371744  0.55385605  1  0.027853  0  0.087177  0.114816  0  1.040293  0
H  H76  1  0.32293619  0.42008230  0.44993559  1  0.043895  0  0.091939  0.130363  0  1.003781  0
H  H77  1  0.67706491  0.57991841  0.55006331  1  0.043868  0  0.091974  0.130351  0  1.003819  0
H  H78  1  0.56783012  0.60640678  0.40147672  1  0.072181  0  0.116539  0.101061  0  0.986161  0
H  H79  1  0.43217394  0.39359314  0.59852235  1  0.07256  0  0.116552  0.101067  0  0.986122  0
H  H80  1  0.58873784  0.62249780  0.32289807  1  0.093292  0  0.114435  0.102986  0  1.028378  0
H  H81  1  0.41126042  0.37750048  0.67709880  1  0.093318  0  0.114445  0.103005  0  1.028383  0
H  H82  1  0.50220229  0.78317521  0.45233996  1  0.170038  0  0.141694  0.109686  0  1.007558  0
H  H83  1  0.49780148  0.21682391  0.54766040  1  0.170011  0  0.14171  0.109694  0  1.007515  0
H  H84  1  0.14585194  0.76413390  0.29415319  1  0.173968  0  0.136328  0.110905  0  0.990942  0
H  H85  1  0.85414827  0.23586764  0.70584861  1  0.173952  0  0.136317  0.110913  0  0.990921  0
H  H86  1  0.11204177  0.32595375  0.38672127  1  0.122497  0  0.10915  0.090735  0  1.053096  0
H  H87  1  0.88795767  0.67404857  0.61327866  1  0.122523  0  0.109155  0.090732  0  1.053144  0
H  H88  1  0.03626664  0.22433973  0.31103330  1  0.100152  0  0.116636  0.102773  0  0.998459  0
H  H89  1  0.96373442  0.77566099  0.68896751  1  0.100132  0  0.116636  0.102793  0  0.998437  0
H  H90  1  0.00141635  0.07831601  0.38217653  1  0.213983  0  0.143782  0.129952  0  1.001279  0
H  H91  1  0.99858176  0.92168551  0.61782412  1  0.214005  0  0.143814  0.129998  0  1.001237  0
H  H92  1  0.44933665  0.08402769  0.43936924  1  0.193659  0  0.131137  0.115204  0  1.053372  0
H  H93  1  0.55066513  0.91597545  0.56063292  1  0.193437  0  0.131113  0.115149  0  1.05344  0
C  C94  1  0.65716876  0.15403917  0.81019874  1  1.519672  0  0.180614  0.550554  0  4.242075  0
C  C95  1  0.34283276  0.84596638  0.18980039  1  1.519777  0  0.180532  0.550423  0  4.242094  0
C  C96  1  0.51642381  0.15511518  0.76482812  1  0.040145  0  -0.026525  -0.044374  0  4.002103  0
C  C97  1  0.48358203  0.84489036  0.23516950  1  0.040012  0  -0.026469  -0.044196  0  4.002016  0
C  C98  1  0.43139540  0.22573155  0.78777366  1  -0.024888  0  -0.088001  -0.092189  0  3.994961  0
C  C99  1  0.56860437  0.77427156  0.21222307  1  -0.025084  0  -0.088014  -0.092237  0  3.995018  0
C  C100  1  0.30766388  0.23456162  0.74382209  1  -0.024197  0  -0.09949  -0.133767  0  4.033653  0
C  C101  1  0.69233278  0.76543506  0.25617633  1  -0.024175  0  -0.099475  -0.133775  0  4.033534  0
C  C102  1  0.26554297  0.17180405  0.67681942  1  -0.063367  0  -0.004778  -0.023011  0  3.931897  0
C  C103  1  0.73445419  0.82819424  0.32317878  1  -0.063649  0  -0.004706  -0.02284  0  3.931905  0
C  C104  1  0.34553878  0.09598933  0.65453299  1  -0.034386  0  -0.017649  -0.060802  0  3.959609  0
C  C105  1  0.65446551  0.90401139  0.34546670  1  -0.034255  0  -0.017675  -0.060815  0  3.959656  0
C  C106  1  0.47228376  0.09023748  0.69828931  1  -0.077708  0  -0.078802  -0.106403  0  3.956709  0
C  C107  1  0.52771942  0.90976646  0.30170928  1  -0.077673  0  -0.078783  -0.10645  0  3.956721  0
C  C108  1  0.14206730  0.19145812  0.62809742  1  1.606135  0  0.195189  0.584386  0  4.265926  0
C  C109  1  0.85793072  0.80853936  0.37189932  1  1.606122  0  0.195282  0.584455  0  4.265968  0
C  C110  1  0.29235443  0.02016470  0.58504609  1  1.563405  0  0.188894  0.554592  0  4.235094  0
C  C111  1  0.70765067  0.97983523  0.41495451  1  1.563449  0  0.188889  0.5546  0  4.234982  0
C  C112  1  0.15487279  0.37844163  0.87099532  1  0.92142  0  0.135199  0.120349  0  4.040987  0
C  C113  1  0.84513007  0.62156152  0.12900646  1  0.921745  0  0.135238  0.12054  0  4.0409  0
C  C114  1  0.93369304  0.38831465  0.83982304  1  0.992803  0  0.156959  0.079333  0  3.888771  0
C  C115  1  0.06631306  0.61168530  0.16018004  1  0.992913  0  0.156904  0.079291  0  3.888755  0
C  C116  1  0.97894140  0.55147955  0.79458013  1  0.249565  0  -0.051758  -0.131529  0  3.898625  0
C  C117  1  0.02105781  0.44851876  0.20542209  1  0.243956  0  -0.051763  -0.131595  0  3.898661  0
C  C118  1  0.10276077  0.61882387  0.77680206  1  0.035683  0  -0.017279  -0.026557  0  3.928727  0
C  C119  1  0.89723525  0.38117443  0.22319938  1  0.035531  0  -0.017263  -0.026449  0  3.928739  0
C  C120  1  0.14042907  0.58243620  0.71529924  1  0.034553  0  -0.004076  0.093024  0  3.93603  0
C  C121  1  0.85956590  0.41756209  0.28470115  1  0.034959  0  -0.004252  0.092822  0  3.936266  0
C  C122  1  0.24735631  0.65144389  0.69707444  1  -0.032326  0  -0.021717  -0.044088  0  3.914179  0
C  C123  1  0.75263786  0.34855520  0.30292550  1  -0.032812  0  -0.021634  -0.043931  0  3.914128  0
C  C124  1  0.31331773  0.75666472  0.73825549  1  0.014359  0  -0.002759  0.099002  0  3.9408  0
C  C125  1  0.68667883  0.24333518  0.26174431  1  0.014513  0  -0.002725  0.099005  0  3.94095  0
C  C126  1  0.27597719  0.79087656  0.80030359  1  -0.030756  0  -0.022986  -0.050883  0  3.928581  0
C  C127  1  0.72401780  0.20912173  0.19969632  1  -0.031011  0  -0.022919  -0.050732  0  3.928557  0
C  C128  1  0.17485888  0.72092149  0.82090183  1  -0.043655  0  -0.005406  0.089377  0  3.943025  0
C  C129  1  0.82513580  0.27907921  0.17909743  1  -0.044646  0  -0.005419  0.089271  0  3.943109  0
C  C130  1  0.06960364  0.47122135  0.66937741  1  -0.093553  0  -0.245885  -0.41477  0  3.940069  0
C  C131  1  0.93039428  0.52877615  0.33062315  1  -0.093712  0  -0.245833  -0.414668  0  3.94022  0
C  C132  1  0.14306147  0.75484516  0.88915145  1  -0.089481  0  -0.246753  -0.415604  0  3.965442  0
C  C133  1  0.85693616  0.24515475  0.11084846  1  -0.088331  0  -0.246782  -0.415683  0  3.965484  0
C  C134  1  0.41797930  0.83292145  0.71576924  1  -0.127008  0  -0.247231  -0.426664  0  3.952476  0
C  C135  1  0.58201727  0.16707845  0.28423009  1  -0.127212  0  -0.247284  -0.426801  0  3.952498  0
C  C136  1  0.28678536  0.61248754  0.63068691  1  0.307056  0  -0.04506  -0.124317  0  3.890428  0
C  C137  1  0.71321013  0.38751236  0.36931279  1  0.307221  0  -0.045062  -0.124301  0  3.890342  0
C  C138  1  0.26783512  0.72284541  0.54579503  1  0.982712  0  0.159111  0.080505  0  3.910363  0
C  C139  1  0.73215898  0.27715690  0.45420487  1  0.982642  0  0.15908  0.080462  0  3.910321  0
C  C140  1  0.03566737  0.68159333  0.51058915  1  0.939903  0  0.141219  0.132737  0  3.992035  0
C  C141  1  0.96432838  0.31840738  0.48941021  1  0.939502  0  0.141202  0.132719  0  3.99221  0
C  C142  1  0.33720010  0.90560156  0.84355009  1  0.239779  0  -0.040879  -0.120446  0  3.875481  0
C  C143  1  0.66279916  0.09439674  0.15644974  1  0.239701  0  -0.040915  -0.1205  0  3.875511  0
C  C144  1  0.17033807  0.02427186  0.88261276  1  0.961188  0  0.156532  0.075958  0  3.895288  0
C  C145  1  0.82966677  0.97573047  0.11738480  1  0.961178  0  0.156553  0.075939  0  3.895361  0
C  C146  1  0.08597253  0.05254854  0.78760927  1  0.951481  0  0.148954  0.14355  0  3.981971  0
C  C147  1  0.91402810  0.94745056  0.21238842  1  0.951489  0  0.149067  0.143764  0  3.981966  0
C  C148  1  0.13170794  0.36715985  0.03258545  1  0.976584  0  0.141801  0.126373  0  4.035851  0
C  C149  1  0.86829511  0.63283685  0.96741404  1  0.977046  0  0.141812  0.126426  0  4.035782  0
C  C150  1  0.15681787  0.21206481  0.04155245  1  0.989771  0  0.154389  0.076063  0  3.893137  0
C  C151  1  0.84318416  0.78792867  0.95844793  1  0.989883  0  0.154474  0.076173  0  3.893056  0
C  C152  1  0.36148607  0.27315127  0.14787073  1  0.277701  0  -0.043712  -0.126238  0  3.878399  0
C  C153  1  0.63851456  0.72684463  0.85213033  1  0.277947  0  -0.043727  -0.126189  0  3.878322  0
C  C154  1  0.34760281  0.32765704  0.21731900  1  -0.010996  0  -0.019359  -0.037372  0  3.911995  0
C  C155  1  0.65239752  0.67234126  0.78268093  1  -0.011065  0  -0.019364  -0.037345  0  3.911973  0
C  C156  1  0.42619476  0.43460479  0.24899584  1  -0.028442  0  8.6e-05  0.101386  0  3.933424  0
C  C157  1  0.57380605  0.56539513  0.75100484  1  -0.028468  0  8.3e-05  0.10138  0  3.933512  0
C  C158  1  0.41934590  0.48314538  0.31525807  1  0.014791  0  -0.02231  -0.046266  0  3.938787  0
C  C159  1  0.58065410  0.51685534  0.68474216  1  0.014862  0  -0.022319  -0.046384  0  3.938776  0
C  C160  1  0.32995606  0.42789991  0.34861174  1  -0.034258  0  -0.008223  0.079425  0  3.946279  0
C  C161  1  0.67004445  0.57210242  0.65138828  1  -0.034247  0  -0.008099  0.07964  0  3.946153  0
C  C162  1  0.24517075  0.32345156  0.31444554  1  0.0111  0  -0.017921  -0.027981  0  3.924111  0
C  C163  1  0.75483033  0.67654916  0.68555432  1  0.011084  0  -0.017936  -0.028005  0  3.92415  0
C  C164  1  0.25553734  0.27174487  0.24939186  1  -0.011886  0  -0.002723  0.098145  0  3.931537  0
C  C165  1  0.74446264  0.72825585  0.75060933  1  -0.011887  0  -0.002711  0.0981  0  3.931541  0
C  C166  1  0.51543179  0.49859013  0.21343423  1  -0.070959  0  -0.249873  -0.43182  0  3.977917  0
C  C167  1  0.48457009  0.50140979  0.78656655  1  -0.070824  0  -0.249911  -0.4318  0  3.977885  0
C  C168  1  0.16996805  0.15781014  0.21637225  1  -0.123685  0  -0.25057  -0.430689  0  3.951322  0
C  C169  1  0.83003252  0.84218898  0.78362829  1  -0.123699  0  -0.250565  -0.43062  0  3.951345  0
C  C170  1  0.32386187  0.47895767  0.41994567  1  -0.080688  0  -0.241362  -0.407455  0  3.95859  0
C  C171  1  0.67613732  0.52104386  0.58005460  1  -0.080683  0  -0.241483  -0.407592  0  3.958801  0
C  C172  1  0.50713645  0.59677229  0.34958046  1  0.297453  0  -0.046246  -0.129418  0  3.901935  0
C  C173  1  0.49286416  0.40322681  0.65041818  1  0.297029  0  -0.046286  -0.129425  0  3.901883  0
C  C174  1  0.41853513  0.75798331  0.40531605  1  0.980347  0  0.167607  0.093816  0  3.903547  0
C  C175  1  0.58146730  0.24201501  0.59468552  1  0.980437  0  0.167673  0.093951  0  3.903457  0
C  C176  1  0.24062195  0.74636570  0.32345958  1  0.969836  0  0.147182  0.142585  0  3.994668  0
C  C177  1  0.75938068  0.25363664  0.67654112  1  0.969863  0  0.147272  0.142609  0  3.994754  0
C  C178  1  0.14001915  0.26763043  0.34765330  1  0.211312  0  -0.050139  -0.131112  0  3.886885  0
C  C179  1  0.85998027  0.73237190  0.65234758  1  0.21164  0  -0.050109  -0.131089  0  3.886877  0
C  C180  1  0.12002316  0.10140808  0.39138267  1  0.960581  0  0.171052  0.100123  0  3.851539  0
C  C181  1  0.87997468  0.89859264  0.60861879  1  0.960744  0  0.170968  0.100041  0  3.85159  0
C  C182  1  0.34841867  0.10850731  0.42204365  1  0.944747  0  0.136115  0.117782  0  4.001605  0
C  C183  1  0.65158126  0.89149663  0.57795702  1  0.945617  0  0.13605  0.117802  0  4.001527  0
N  N184  1  0.01469444  0.32910669  0.86809662  1  -1.206705  0  -0.34391  -0.335661  0  3.434905  0
N  N185  1  0.98531110  0.67089486  0.13190616  1  -1.206645  0  -0.343872  -0.33572  0  3.434887  0
N  N186  1  0.02254356  0.46834967  0.82619828  1  -0.782412  0  -0.129259  0.174745  0  3.697859  0
N  N187  1  0.97745876  0.53165187  0.17380467  1  -0.782517  0  -0.129252  0.174841  0  3.697873  0
N  N188  1  0.16500616  0.46377794  0.84612720  1  -0.667057  0  -0.223719  -0.26514  0  3.104656  0
N  N189  1  0.83499724  0.53622360  0.15387538  1  -0.667286  0  -0.223736  -0.265305  0  3.104648  0
N  N190  1  0.21058416  0.65273942  0.57724584  1  -0.788984  0  -0.134169  0.172267  0  3.714929  0
N  N191  1  0.78941265  0.34726129  0.42275410  1  -0.789302  0  -0.134232  0.172235  0  3.714949  0
N  N192  1  0.06182556  0.62546791  0.55542657  1  -0.714349  0  -0.22271  -0.271777  0  3.139887  0
N  N193  1  0.93817019  0.37453279  0.44457279  1  -0.714301  0  -0.222662  -0.271719  0  3.139945  0
N  N194  1  0.15956541  0.74261606  0.50301811  1  -1.192087  0  -0.343441  -0.324279  0  3.464173  0
N  N195  1  0.84042926  0.25738465  0.49698163  1  -1.192032  0  -0.343352  -0.324236  0  3.4642  0
N  N196  1  0.22939299  0.97203434  0.83549459  1  -0.803862  0  -0.12895  0.174648  0  3.714491  0
N  N197  1  0.77061054  0.02796717  0.16450274  1  -0.80384  0  -0.128945  0.174633  0  3.714499  0
N  N198  1  0.17633087  0.98863926  0.77434071  1  -0.658903  0  -0.218366  -0.263344  0  3.102773  0
N  N199  1  0.82366977  0.01135983  0.22565649  1  -0.658734  0  -0.218425  -0.263452  0  3.102887  0
N  N200  1  0.07854664  0.07654193  0.85378257  1  -1.216758  0  -0.348687  -0.32395  0  3.471213  0
N  N201  1  0.92145688  0.92345959  0.14621524  1  -1.216868  0  -0.348641  -0.323894  0  3.471306  0
N  N202  1  0.07941901  0.25966637  0.00177598  1  -1.226815  0  -0.348501  -0.319896  0  3.497982  0
N  N203  1  0.92058405  0.74033033  0.99822303  1  -1.227392  0  -0.348528  -0.320024  0  3.498091  0
N  N204  1  0.25126236  0.28840283  0.09339556  1  -0.817825  0  -0.131001  0.172962  0  3.702054  0
N  N205  1  0.74873875  0.71159469  0.90660624  1  -0.817825  0  -0.131069  0.172857  0  3.701991  0
N  N206  1  0.23618190  0.38847449  0.08885736  1  -0.676424  0  -0.221244  -0.260726  0  3.110715  0
N  N207  1  0.76381899  0.61152220  0.91114289  1  -0.676511  0  -0.221236  -0.26069  0  3.110552  0
N  N208  1  0.41265953  0.67356002  0.35375539  1  -0.802745  0  -0.130503  0.178181  0  3.706512  0
N  N209  1  0.58734260  0.32644071  0.64624553  1  -0.802717  0  -0.130524  0.178101  0  3.706551  0
N  N210  1  0.29975400  0.66508819  0.30062529  1  -0.717385  0  -0.222089  -0.275969  0  3.141867  0
N  N211  1  0.70024841  0.33491333  0.69937433  1  -0.717449  0  -0.22207  -0.27588  0  3.141949  0
N  N212  1  0.30962658  0.80526602  0.38786473  1  -1.195677  0  -0.346604  -0.321236  0  3.458538  0
N  N213  1  0.69037396  0.19473310  0.61213677  1  -1.195766  0  -0.346737  -0.321393  0  3.458569  0
N  N214  1  0.19670268  0.18742745  0.37793735  1  -0.797195  0  -0.132306  0.170256  0  3.698524  0
N  N215  1  0.80329672  0.81257488  0.62206401  1  -0.797701  0  -0.132308  0.170302  0  3.698564  0
N  N216  1  0.34343767  0.19383466  0.39769325  1  -0.711583  0  -0.236036  -0.300314  0  3.148255  0
N  N217  1  0.65656199  0.80616848  0.60230824  1  -0.711824  0  -0.236006  -0.300287  0  3.148156  0
N  N218  1  0.21374174  0.05017211  0.41935850  1  -1.204569  0  -0.340575  -0.293104  0  3.451224  0
N  N219  1  0.78626111  0.94983103  0.58064329  1  -1.20503  0  -0.340502  -0.293125  0  3.451119  0
Cl  Cl220  1  0.77671338  0.02739689  0.95198430  1  -0.712005  0  -0.370038  -0.581704  0  1.017753  0
Cl  Cl221  1  0.22328902  0.97260464  0.04801579  1  -0.711996  0  -0.370043  -0.58172  0  1.017739  0
O  O222  1  0.69655070  0.22092228  0.86901262  1  -1.166441  0  -0.352505  -0.564416  0  2.174639  0
O  O223  1  0.30345100  0.77908729  0.13098660  1  -1.166383  0  -0.352487  -0.564346  0  2.174707  0
O  O224  1  0.73453661  0.09006306  0.78876815  1  -1.172879  0  -0.345945  -0.567439  0  2.148954  0
O  O225  1  0.26546250  0.90993847  0.21123546  1  -1.173004  0  -0.345917  -0.567425  0  2.148931  0
O  O226  1  0.38425352  0.98889866  0.55312315  1  -1.179462  0  -0.330414  -0.556795  0  2.196217  0
O  O227  1  0.61574221  0.01110204  0.44687669  1  -1.179483  0  -0.330474  -0.556845  0  2.195935  0
O  O228  1  0.15361748  0.98862374  0.56080948  1  -1.161586  0  -0.323732  -0.547445  0  2.220525  0
O  O229  1  0.84638039  0.01137377  0.43919345  1  -1.161667  0  -0.323675  -0.547432  0  2.220663  0
O  O230  1  0.17344309  0.23378896  0.58298288  1  -1.180975  0  -0.340586  -0.57571  0  2.099451  0
O  O231  1  0.82655276  0.76620852  0.41701510  1  -1.180882  0  -0.340636  -0.575771  0  2.099405  0
O  O232  1  0.01455697  0.16577406  0.63909072  1  -1.173094  0  -0.346004  -0.578449  0  2.265651  0
O  O233  1  0.98544103  0.83422343  0.36090698  1  -1.173167  0  -0.346058  -0.578546  0  2.265822  0
