# generated using pymatgen
data_LiH5(CO)3
_symmetry_space_group_name_H-M   'P 1'
_cell_length_a   4.52490361
_cell_length_b   4.88479488
_cell_length_c   10.19906172
_cell_angle_alpha   90.00003119
_cell_angle_beta   98.15650936
_cell_angle_gamma   90.00003390
_symmetry_Int_Tables_number   1
_chemical_formula_structural   LiH5(CO)3
_chemical_formula_sum   'Li2 H10 C6 O6'
_cell_volume   223.15174141
_cell_formula_units_Z   2
loop_
 _symmetry_equiv_pos_site_id
 _symmetry_equiv_pos_as_xyz
  1  'x, y, z'
loop_
 _atom_site_type_symbol
 _atom_site_label
 _atom_site_symmetry_multiplicity
 _atom_site_fract_x
 _atom_site_fract_y
 _atom_site_fract_z
 _atom_site_occupancy
 _atom_site_hle17_bader_spin_density
 _atom_site_hle17_ddec_charge
 _atom_site_hle17_ddec_spin_density
 _atom_site_hle17_ddec_sum_bond_order
 _atom_site_hle17_magmom
 _atom_site_hse06_10hf_bader_spin_density
 _atom_site_hse06_10hf_ddec_charge
 _atom_site_hse06_10hf_ddec_spin_density
 _atom_site_hse06_10hf_ddec_sum_bond_order
 _atom_site_hse06_10hf_magmom
 _atom_site_hse06_bader_spin_density
 _atom_site_hse06_ddec_charge
 _atom_site_hse06_ddec_spin_density
 _atom_site_hse06_ddec_sum_bond_order
 _atom_site_hse06_magmom
 _atom_site_pbe_bader_spin_density
 _atom_site_pbe_cm5_charge
 _atom_site_pbe_ddec_charge
 _atom_site_pbe_ddec_spin_density
 _atom_site_pbe_ddec_sum_bond_order
 _atom_site_pbe_magmom
Li  Li0  1  0.04442049  0.94394787  0.58972230  1  0  0.850233  0  0.41095  0  0  0.810059  0  0.517706  0  0  0.819628  0  0.500752  0  0  0.524665  0.803161  0  0.529837  0
Li  Li1  1  0.95557841  0.44394749  0.41027758  1  0  0.850234  0  0.410946  0  0  0.810064  0  0.517694  0  0  0.819633  0  0.500741  0  0  0.524667  0.803167  0  0.529824  0
H  H2  1  0.55964539  0.91681080  0.70217741  1  0  0.378725  0  0.929706  0  0  0.353549  0  1.00192  0  0  0.364153  0  0.986495  0  0  0.30554  0.346075  0  1.012025  0
H  H3  1  0.44035573  0.41681206  0.29782260  1  0  0.378722  0  0.929727  0  0  0.353544  0  1.001933  0  0  0.364148  0  0.986507  0  0  0.305535  0.34607  0  1.01205  0
H  H4  1  0.34591071  0.45715994  0.75447844  1  0  0.059923  0  0.909685  0  0  0.072306  0  0.964725  0  0  0.073225  0  0.964766  0  0  0.125348  0.071589  0  0.964868  0
H  H5  1  0.65408820  0.95716026  0.24552242  1  0  0.05992  0  0.909695  0  0  0.072303  0  0.964735  0  0  0.073222  0  0.964777  0  0  0.125348  0.071586  0  0.964878  0
H  H6  1  0.58323254  0.21958413  0.96007806  1  0  0.113723  0  0.950117  0  0  0.135417  0  1.01038  0  0  0.136993  0  1.010388  0  0  0.093703  0.134219  0  1.010476  0
H  H7  1  0.41676843  0.71958409  0.03992189  1  0  0.113724  0  0.950096  0  0  0.135418  0  1.010363  0  0  0.136993  0  1.010372  0  0  0.093699  0.134219  0  1.010459  0
H  H8  1  0.81745401  0.49059453  0.91769578  1  0  0.112278  0  0.959531  0  0  0.131666  0  1.023413  0  0  0.13312  0  1.023621  0  0  0.094088  0.13057  0  1.023292  0
H  H9  1  0.18254939  0.99059440  0.08230440  1  0  0.112262  0  0.959576  0  0  0.131659  0  1.02345  0  0  0.133113  0  1.023658  0  0  0.094079  0.130563  0  1.02333  0
H  H10  1  0.90363362  0.14424836  0.88259760  1  0  0.112066  0  0.949771  0  0  0.133962  0  1.00862  0  0  0.135727  0  1.008284  0  0  0.097809  0.132625  0  1.008932  0
H  H11  1  0.09636729  0.64425028  0.11740330  1  0  0.112071  0  0.949776  0  0  0.133966  0  1.008625  0  0  0.135733  0  1.008288  0  0  0.097823  0.132631  0  1.008937  0
C  C12  1  0.72626611  0.43334528  0.65230097  1  0  0.687534  0  3.81249  0  0  0.642581  0  4.110809  0  0  0.674736  0  4.100817  0  0  0.248082  0.620671  0  4.117231  0
C  C13  1  0.27373278  0.93334550  0.34769891  1  0  0.687524  0  3.812511  0  0  0.642578  0  4.110823  0  0  0.674738  0  4.100826  0  0  0.248064  0.620669  0  4.117247  0
C  C14  1  0.53104343  0.31275680  0.74998140  1  0  0.164837  0  3.640482  0  0  0.149329  0  3.891525  0  0  0.151363  0  3.900329  0  0  0.012642  0.14765  0  3.885823  0
C  C15  1  0.46895761  0.81275702  0.25001858  1  0  0.164812  0  3.640526  0  0  0.149303  0  3.891567  0  0  0.151334  0  3.90037  0  0  0.012618  0.147622  0  3.885867  0
C  C16  1  0.72069458  0.29104875  0.88658449  1  0  -0.352999  0  3.679723  0  0  -0.43362  0  3.916159  0  0  -0.436727  0  3.925271  0  0  -0.241471  -0.431143  0  3.909928  0
C  C17  1  0.27930644  0.79104871  0.11341548  1  0  -0.352972  0  3.679759  0  0  -0.433603  0  3.916192  0  0  -0.436711  0  3.925304  0  0  -0.241463  -0.431127  0  3.909962  0
O  O18  1  0.79596829  0.68521872  0.66742001  1  0  -0.717753  0  2.011459  0  0  -0.670754  0  2.25087  0  0  -0.69396  0  2.237531  0  0  -0.369169  -0.654658  0  2.259608  0
O  O19  1  0.20403266  0.18522194  0.33257993  1  0  -0.717751  0  2.011429  0  0  -0.670751  0  2.25083  0  0  -0.69396  0  2.23749  0  0  -0.369149  -0.654655  0  2.259571  0
O  O20  1  0.81927162  0.27981168  0.56657841  1  0  -0.76126  0  1.976196  0  0  -0.718777  0  2.222883  0  0  -0.738292  0  2.206775  0  0  -0.432291  -0.705272  0  2.233805  0
O  O21  1  0.18072270  0.77981605  0.43341917  1  0  -0.761244  0  1.976249  0  0  -0.718765  0  2.222928  0  0  -0.738279  0  2.206822  0  0  -0.432274  -0.705258  0  2.233849  0
O  O22  1  0.39915525  0.05626490  0.70946736  1  0  -0.64731  0  2.097295  0  0  -0.605724  0  2.325656  0  0  -0.61997  0  2.310015  0  0  -0.458948  -0.595492  0  2.335955  0
O  O23  1  0.60084559  0.55626729  0.29053352  1  0  -0.6473  0  2.097343  0  0  -0.605712  0  2.325693  0  0  -0.619959  0  2.310053  0  0  -0.458946  -0.595482  0  2.336004  0
