# generated using pymatgen
data_TbH6C9N3O7
_symmetry_space_group_name_H-M   'P 1'
_cell_length_a   7.08913441
_cell_length_b   7.84988103
_cell_length_c   10.31872028
_cell_angle_alpha   90.78730410
_cell_angle_beta   102.52106467
_cell_angle_gamma   102.66202933
_symmetry_Int_Tables_number   1
_chemical_formula_structural   TbH6C9N3O7
_chemical_formula_sum   'Tb2 H12 C18 N6 O14'
_cell_volume   545.80237388
_cell_formula_units_Z   2
loop_
 _symmetry_equiv_pos_site_id
 _symmetry_equiv_pos_as_xyz
  1  'x, y, z'
loop_
 _atom_site_type_symbol
 _atom_site_label
 _atom_site_symmetry_multiplicity
 _atom_site_fract_x
 _atom_site_fract_y
 _atom_site_fract_z
 _atom_site_occupancy
 _atom_site_hle17_bader_spin_density
 _atom_site_hle17_ddec_charge
 _atom_site_hle17_ddec_spin_density
 _atom_site_hle17_ddec_sum_bond_order
 _atom_site_hle17_magmom
 _atom_site_hse06_10hf_bader_spin_density
 _atom_site_hse06_10hf_ddec_charge
 _atom_site_hse06_10hf_ddec_spin_density
 _atom_site_hse06_10hf_ddec_sum_bond_order
 _atom_site_hse06_10hf_magmom
 _atom_site_hse06_bader_spin_density
 _atom_site_hse06_ddec_charge
 _atom_site_hse06_ddec_spin_density
 _atom_site_hse06_ddec_sum_bond_order
 _atom_site_hse06_magmom
 _atom_site_pbe_bader_spin_density
 _atom_site_pbe_cm5_charge
 _atom_site_pbe_ddec_charge
 _atom_site_pbe_ddec_spin_density
 _atom_site_pbe_ddec_sum_bond_order
 _atom_site_pbe_magmom
Tb  Tb0  1  0.28193554  0.29461938  0.42354684  1  0  2.182691  0  1.677211  0  0  2.016642  0  2.167996  0  0  2.065395  0  2.1259  0  0  1.512978  1.979875  0  2.200407  0
Tb  Tb1  1  0.71805991  0.70538675  0.57645643  1  0  2.182718  0  1.677131  0  0  2.016638  0  2.167958  0  0  2.065432  0  2.125797  0  0  1.512941  1.979873  0  2.200364  0
H  H2  1  0.51905770  0.97702230  0.11562158  1  0  0.293555  0  0.929636  0  0  0.269374  0  0.998263  0  0  0.279051  0  0.990409  0  0  0.314483  0.262559  0  1.003806  0
H  H3  1  0.48094411  0.02297473  0.88437961  1  0  0.293502  0  0.929691  0  0  0.269326  0  0.998296  0  0  0.279002  0  0.990445  0  0  0.314473  0.262513  0  1.003837  0
H  H4  1  0.16293805  0.48640159  0.81418775  1  0  0.130127  0  0.954837  0  0  0.137785  0  1.015262  0  0  0.142062  0  1.01128  0  0  0.120505  0.134544  0  1.01839  0
H  H5  1  0.83706520  0.51359545  0.18581269  1  0  0.130084  0  0.954817  0  0  0.137766  0  1.015202  0  0  0.142042  0  1.011221  0  0  0.120515  0.134524  0  1.018328  0
H  H6  1  0.14093991  0.08009289  0.09180335  1  0  0.074083  0  0.935807  0  0  0.083088  0  1.000903  0  0  0.085659  0  0.997994  0  0  0.122714  0.081214  0  1.002982  0
H  H7  1  0.85906479  0.91990415  0.90819923  1  0  0.074089  0  0.935814  0  0  0.08308  0  1.000923  0  0  0.085652  0  0.99801  0  0  0.122695  0.081205  0  1.003003  0
H  H8  1  0.08036903  0.16851806  0.85446027  1  0  0.127288  0  0.936068  0  0  0.135201  0  0.997188  0  0  0.140051  0  0.993864  0  0  0.116282  0.131653  0  0.99986  0
H  H9  1  0.91963824  0.83147769  0.14554171  1  0  0.127293  0  0.935975  0  0  0.135194  0  0.997113  0  0  0.140045  0  0.993785  0  0  0.116282  0.131646  0  0.999785  0
H  H10  1  0.89060537  0.05633295  0.37341438  1  0  0.451365  0  0.836007  0  0  0.421712  0  0.896721  0  0  0.433261  0  0.879747  0  0  0.308577  0.4135  0  0.908797  0
H  H11  1  0.10939598  0.94366799  0.62658776  1  0  0.451279  0  0.836096  0  0  0.421635  0  0.896797  0  0  0.433182  0  0.879828  0  0  0.308541  0.413424  0  0.908871  0
H  H12  1  0.87568483  0.15871091  0.24234292  1  0  0.445511  0  0.843236  0  0  0.414154  0  0.907455  0  0  0.424429  0  0.892454  0  0  0.304189  0.406863  0  0.918086  0
H  H13  1  0.12431475  0.84128872  0.75765797  1  0  0.445499  0  0.84325  0  0  0.414135  0  0.907479  0  0  0.424411  0  0.892478  0  0  0.304182  0.406845  0  0.91811  0
C  C14  1  0.99403175  0.54675423  0.43429719  1  0  0.56655  0  3.921407  0  0  0.523651  0  4.217261  0  0  0.554615  0  4.205403  0  0  0.220694  0.50253  0  4.224425  0
C  C15  1  0.00597783  0.45325069  0.56570041  1  0  0.566474  0  3.92171  0  0  0.523631  0  4.217465  0  0  0.554595  0  4.205606  0  0  0.220581  0.502511  0  4.22463  0
C  C16  1  0.19638045  0.44217426  0.91424129  1  0  0.016623  0  3.624574  0  0  -0.014897  0  3.880476  0  0  -0.008526  0  3.894452  0  0  -0.048545  -0.018762  0  3.871148  0
C  C17  1  0.80362281  0.55782278  0.08575818  1  0  0.01665  0  3.624573  0  0  -0.014855  0  3.880458  0  0  -0.008481  0  3.894431  0  0  -0.048562  -0.018719  0  3.87113  0
C  C18  1  0.33011826  0.50070347  0.15080750  1  0  0.126065  0  3.760778  0  0  0.122714  0  3.995296  0  0  0.129361  0  4.011885  0  0  0.126828  0.118237  0  3.984131  0
C  C19  1  0.66988532  0.49929487  0.84919397  1  0  0.126107  0  3.760758  0  0  0.12278  0  3.995275  0  0  0.129405  0  4.011914  0  0  0.126875  0.11835  0  3.984041  0
C  C20  1  0.18396500  0.21653591  0.06915096  1  0  0.169852  0  3.680069  0  0  0.135642  0  3.945254  0  0  0.146191  0  3.958148  0  0  0.068092  0.128765  0  3.936414  0
C  C21  1  0.81604293  0.78346245  0.93085115  1  0  0.169786  0  3.679991  0  0  0.135584  0  3.945157  0  0  0.146134  0  3.958055  0  0  0.06809  0.128706  0  3.936322  0
C  C22  1  0.44015273  0.62247679  0.26312495  1  0  0.430881  0  3.906573  0  0  0.396795  0  4.195326  0  0  0.416232  0  4.201431  0  0  0.217499  0.383758  0  4.190691  0
C  C23  1  0.55984685  0.37752284  0.73687691  1  0  0.430838  0  3.906682  0  0  0.396766  0  4.195396  0  0  0.416192  0  4.201528  0  0  0.217453  0.383723  0  4.190748  0
C  C24  1  0.35163075  0.75004834  0.00760774  1  0  0.479844  0  3.887528  0  0  0.425734  0  4.185149  0  0  0.452551  0  4.190573  0  0  0.223401  0.407937  0  4.180672  0
C  C25  1  0.64837362  0.24994740  0.99239284  1  0  0.479758  0  3.887817  0  0  0.425769  0  4.18531  0  0  0.452587  0  4.190733  0  0  0.223411  0.407969  0  4.180835  0
C  C26  1  0.28939458  0.56302273  0.02282876  1  0  -0.111289  0  3.7661  0  0  -0.096242  0  4.004979  0  0  -0.10686  0  4.028839  0  0  -0.004562  -0.089389  0  3.989031  0
C  C27  1  0.71061268  0.43697302  0.97717128  1  0  -0.111386  0  3.766229  0  0  -0.096428  0  4.00514  0  0  -0.107038  0  4.029007  0  0  -0.004638  -0.089589  0  3.989181  0
C  C28  1  0.14679103  0.26614306  0.93742064  1  0  -0.113854  0  3.665923  0  0  -0.131376  0  3.931957  0  0  -0.138486  0  3.949098  0  0  -0.076025  -0.127061  0  3.920703  0
C  C29  1  0.85321367  0.73385399  0.06257904  1  0  -0.113843  0  3.665862  0  0  -0.131353  0  3.931874  0  0  -0.138463  0  3.949014  0  0  -0.076037  -0.12704  0  3.92062  0
C  C30  1  0.58722175  0.04946595  0.47069674  1  0  0.562567  0  3.939815  0  0  0.512655  0  4.248165  0  0  0.543425  0  4.237266  0  0  0.220014  0.491469  0  4.255433  0
C  C31  1  0.41276357  0.95054018  0.52929631  1  0  0.562553  0  3.940194  0  0  0.512595  0  4.248566  0  0  0.543376  0  4.237665  0  0  0.21999  0.491406  0  4.255836  0
N  N32  1  0.27202119  0.32969792  0.17404062  1  0  -0.401435  0  3.173248  0  0  -0.346982  0  3.433777  0  0  -0.361081  0  3.447461  0  0  -0.365588  -0.337562  0  3.42473  0
N  N33  1  0.72797917  0.67029909  0.82596229  1  0  -0.401354  0  3.173042  0  0  -0.346904  0  3.433556  0  0  -0.361006  0  3.447255  0  0  -0.365535  -0.337501  0  3.424496  0
N  N34  1  0.45049486  0.84640767  0.12221888  1  0  -0.258897  0  3.453156  0  0  -0.198767  0  3.706948  0  0  -0.21799  0  3.722721  0  0  -0.273068  -0.186058  0  3.696127  0
N  N35  1  0.54950840  0.15358937  0.87778058  1  0  -0.258757  0  3.453208  0  0  -0.198655  0  3.706955  0  0  -0.217878  0  3.722731  0  0  -0.273038  -0.185949  0  3.696135  0
N  N36  1  0.49739914  0.79020367  0.24639289  1  0  -0.252772  0  2.960281  0  0  -0.243898  0  3.239518  0  0  -0.25385  0  3.254192  0  0  -0.2132  -0.237113  0  3.229785  0
N  N37  1  0.50260155  0.20979466  0.75360815  1  0  -0.252809  0  2.960304  0  0  -0.243948  0  3.239548  0  0  -0.25389  0  3.254222  0  0  -0.213202  -0.237164  0  3.229818  0
O  O38  1  0.07953133  0.49458704  0.35100115  1  0  -0.663136  0  2.117754  0  0  -0.613135  0  2.363035  0  0  -0.637407  0  2.356  0  0  -0.372729  -0.595709  0  2.366932  0
O  O39  1  0.92046155  0.50542042  0.64899594  1  0  -0.66317  0  2.11766  0  0  -0.613163  0  2.362911  0  0  -0.637445  0  2.355875  0  0  -0.372696  -0.595733  0  2.366805  0
O  O40  1  0.74160580  0.98704163  0.49063707  1  0  -0.667591  0  2.104905  0  0  -0.607277  0  2.346955  0  0  -0.632577  0  2.337643  0  0  -0.362286  -0.589614  0  2.35321  0
O  O41  1  0.25838220  0.01295795  0.50936114  1  0  -0.667487  0  2.105428  0  0  -0.607153  0  2.34746  0  0  -0.632444  0  2.338143  0  0  -0.362162  -0.589488  0  2.353714  0
O  O42  1  0.48406322  0.56288813  0.38154511  1  0  -0.809248  0  2.189626  0  0  -0.748353  0  2.460715  0  0  -0.775528  0  2.456398  0  0  -0.469414  -0.728443  0  2.462532  0
O  O43  1  0.51593201  0.43711147  0.61845804  1  0  -0.809204  0  2.189658  0  0  -0.7483  0  2.460711  0  0  -0.77547  0  2.456398  0  0  -0.469383  -0.728395  0  2.46253  0
O  O44  1  0.56309995  0.18311080  0.40849030  1  0  -0.640966  0  2.021472  0  0  -0.600454  0  2.274677  0  0  -0.62194  0  2.264536  0  0  -0.366653  -0.585415  0  2.281499  0
O  O45  1  0.43688338  0.81688746  0.59150719  1  0  -0.640996  0  2.021345  0  0  -0.600512  0  2.274658  0  0  -0.621979  0  2.264442  0  0  -0.366669  -0.585471  0  2.281478  0
O  O46  1  0.32167209  0.82186969  0.89796018  1  0  -0.587161  0  1.986906  0  0  -0.534962  0  2.213241  0  0  -0.557665  0  2.206539  0  0  -0.304  -0.518945  0  2.217345  0
O  O47  1  0.67833083  0.17812604  0.10204019  1  0  -0.587073  0  1.986966  0  0  -0.53496  0  2.213305  0  0  -0.557662  0  2.206602  0  0  -0.303989  -0.518945  0  2.217419  0
O  O48  1  0.96970619  0.11141654  0.30964467  1  0  -0.914376  0  1.844367  0  0  -0.868555  0  2.042525  0  0  -0.88773  0  2.010161  0  0  -0.638981  -0.854622  0  2.065191  0
O  O49  1  0.03029517  0.88858439  0.69035941  1  0  -0.914281  0  1.844421  0  0  -0.868463  0  2.042589  0  0  -0.887647  0  2.010227  0  0  -0.638937  -0.854531  0  2.065253  0
O  O50  1  0.89873392  0.66644253  0.41906697  1  0  -0.636329  0  2.035261  0  0  -0.590255  0  2.282507  0  0  -0.612683  0  2.273381  0  0  -0.381234  -0.574217  0  2.288527  0
O  O51  1  0.10125885  0.33357017  0.58092824  1  0  -0.63622  0  2.035667  0  0  -0.590199  0  2.282956  0  0  -0.612615  0  2.273829  0  0  -0.381149  -0.574164  0  2.288977  0
