# generated using pymatgen
data_Cu2Mo4H16C22N4O15
_symmetry_space_group_name_H-M   'P 1'
_cell_length_a   10.85062475
_cell_length_b   11.71958851
_cell_length_c   13.55840000
_cell_angle_alpha   98.03612776
_cell_angle_beta   102.53972378
_cell_angle_gamma   117.49535192
_symmetry_Int_Tables_number   1
_chemical_formula_structural   Cu2Mo4H16C22N4O15
_chemical_formula_sum   'Cu4 Mo8 H32 C44 N8 O30'
_cell_volume   1434.41349264
_cell_formula_units_Z   2
loop_
 _symmetry_equiv_pos_site_id
 _symmetry_equiv_pos_as_xyz
  1  'x, y, z'
loop_
 _atom_site_type_symbol
 _atom_site_label
 _atom_site_symmetry_multiplicity
 _atom_site_fract_x
 _atom_site_fract_y
 _atom_site_fract_z
 _atom_site_occupancy
 _atom_site_hle17_bader_spin_density
 _atom_site_hle17_ddec_charge
 _atom_site_hle17_ddec_spin_density
 _atom_site_hle17_ddec_sum_bond_order
 _atom_site_hle17_magmom
 _atom_site_hse06_10hf_bader_spin_density
 _atom_site_hse06_10hf_ddec_charge
 _atom_site_hse06_10hf_ddec_spin_density
 _atom_site_hse06_10hf_ddec_sum_bond_order
 _atom_site_hse06_10hf_magmom
 _atom_site_hse06_bader_spin_density
 _atom_site_hse06_ddec_charge
 _atom_site_hse06_ddec_spin_density
 _atom_site_hse06_ddec_sum_bond_order
 _atom_site_hse06_magmom
 _atom_site_pbe_bader_charge
 _atom_site_pbe_bader_spin_density
 _atom_site_pbe_cm5_charge
 _atom_site_pbe_ddec_charge
 _atom_site_pbe_ddec_spin_density
 _atom_site_pbe_ddec_sum_bond_order
 _atom_site_pbe_magmom
Cu  Cu0  1  0.47127669  0.28965460  0.09315021  1  0  0.634199  0  1.646369  0  0  0.516514  0  2.101625  0  0  0.504801  0  2.06697  0  0.781229  0  0.57356  0.524641  0  2.123652  0
Cu  Cu1  1  0.52872037  0.71034002  0.90684700  1  0  0.634256  0  1.646473  0  0  0.516559  0  2.101735  0  0  0.504819  0  2.067091  0  0.781199  0  0.573594  0.524696  0  2.123779  0
Cu  Cu2  1  0.99686319  0.03061747  0.31778763  1  0  0.636274  0  1.778943  0  0  0.518064  0  2.256995  0  0  0.50435  0  2.218491  0  0.808318  0  0.587095  0.532977  0  2.278013  0
Cu  Cu3  1  0.00313894  0.96938115  0.68220873  1  0  0.636273  0  1.778921  0  0  0.518028  0  2.256999  0  0  0.504315  0  2.218489  0  0.80806  0  0.587104  0.532943  0  2.278004  0
Mo  Mo4  1  0.31693534  0.31073002  0.30381477  1  0  2.173036  0  4.043718  0  0  2.172261  0  4.560031  0  0  2.272828  0  4.526055  0  2.568814  0  1.479671  2.099937  0  4.589215  0
Mo  Mo5  1  0.68306825  0.68927461  0.69618995  1  0  2.172981  0  4.043706  0  0  2.172144  0  4.560055  0  0  2.272739  0  4.526049  0  2.568625  0  1.479599  2.099832  0  4.58923  0
Mo  Mo6  1  0.42165119  0.61122618  0.48909315  1  0  2.231687  0  4.060981  0  0  2.226802  0  4.592077  0  0  2.329996  0  4.552805  0  2.60347  0  1.499702  2.15049  0  4.626515  0
Mo  Mo7  1  0.57834695  0.38877544  0.51090658  1  0  2.231573  0  4.060928  0  0  2.226707  0  4.592018  0  0  2.329896  0  4.55275  0  2.603282  0  1.499663  2.150394  0  4.626454  0
Mo  Mo8  1  0.23250635  0.33232804  0.53694727  1  0  2.186982  0  4.034263  0  0  2.185298  0  4.565323  0  0  2.284405  0  4.529981  0  2.575264  0  1.487824  2.113565  0  4.595577  0
Mo  Mo9  1  0.76748955  0.66766958  0.46305232  1  0  2.186945  0  4.034375  0  0  2.185248  0  4.565442  0  0  2.284353  0  4.530106  0  2.575366  0  1.487832  2.113519  0  4.595689  0
Mo  Mo10  1  0.49819792  0.59260461  0.24498644  1  0  2.192703  0  4.033137  0  0  2.189962  0  4.574361  0  0  2.288881  0  4.538582  0  2.586569  0  1.508633  2.116805  0  4.606792  0
Mo  Mo11  1  0.50179760  0.40739402  0.75502206  1  0  2.192713  0  4.033394  0  0  2.189911  0  4.574689  0  0  2.288849  0  4.538882  0  2.586541  0  1.508643  2.116757  0  4.607122  0
H  H12  1  0.16695219  0.09491197  0.06697803  1  0  0.077478  0  0.972723  0  0  0.087318  0  1.038681  0  0  0.089764  0  1.035987  0  0.119524  0  0.114905  0.085627  0  1.04063  0
H  H13  1  0.83304633  0.90508866  0.93302164  1  0  0.077504  0  0.972678  0  0  0.087321  0  1.038647  0  0  0.089785  0  1.035933  0  0.119517  0  0.114909  0.085629  0  1.040595  0
H  H14  1  0.95245919  0.12805337  0.05025805  1  0  0.107387  0  0.958412  0  0  0.116326  0  1.024074  0  0  0.119071  0  1.02342  0  0.092201  0  0.108515  0.114528  0  1.024564  0
H  H15  1  0.04753989  0.87194826  0.94974332  1  0  0.107381  0  0.958371  0  0  0.116327  0  1.02405  0  0  0.119073  0  1.023394  0  0.092225  0  0.108525  0.114529  0  1.024541  0
H  H16  1  0.15929123  0.44524287  0.91054241  1  0  0.117248  0  0.953721  0  0  0.127368  0  1.010874  0  0  0.130164  0  1.01093  0  0.102742  0  0.114312  0.125451  0  1.010984  0
H  H17  1  0.84071030  0.55475976  0.08945950  1  0  0.117236  0  0.953762  0  0  0.127327  0  1.010951  0  0  0.130123  0  1.011008  0  0.102821  0  0.114309  0.125447  0  1.011015  0
H  H18  1  0.37203521  0.40988991  0.94262079  1  0  0.089564  0  0.982797  0  0  0.096692  0  1.051842  0  0  0.100486  0  1.047198  0  0.159769  0  0.115196  0.094041  0  1.055104  0
H  H19  1  0.62796520  0.59011072  0.05737995  1  0  0.08956  0  0.982807  0  0  0.096696  0  1.051842  0  0  0.10049  0  1.047198  0  0.159763  0  0.115195  0.094042  0  1.055105  0
H  H20  1  0.65792763  0.28441153  0.96907962  1  0  0.097609  0  0.973042  0  0  0.104683  0  1.042451  0  0  0.108284  0  1.037842  0  0.143106  0  0.115615  0.101984  0  1.045652  0
H  H21  1  0.34207090  0.71558910  0.03092152  1  0  0.097603  0  0.973021  0  0  0.104692  0  1.042419  0  0  0.10829  0  1.037815  0  0.143092  0  0.115613  0.101992  0  1.04562  0
H  H22  1  0.05999286  0.37016488  0.19420660  1  0  0.125255  0  0.942395  0  0  0.135339  0  1.00014  0  0  0.138338  0  0.997859  0  0.133661  0  0.114024  0.132986  0  1.001811  0
H  H23  1  0.94000772  0.62983775  0.80579588  1  0  0.125225  0  0.942385  0  0  0.135308  0  1.000132  0  0  0.138309  0  0.997847  0  0.133469  0  0.114003  0.132957  0  1.001805  0
H  H24  1  0.94228286  0.37010581  0.33441527  1  0  0.125169  0  0.915738  0  0  0.1387  0  0.962859  0  0  0.141289  0  0.963217  0  0.101714  0  0.12066  0.136623  0  0.963094  0
H  H25  1  0.05771622  0.62989581  0.66558683  1  0  0.125133  0  0.915667  0  0  0.138693  0  0.962767  0  0  0.141281  0  0.963128  0  0.101756  0  0.120646  0.136616  0  0.963004  0
H  H26  1  0.68578312  0.32592963  0.28444392  1  0  0.104809  0  0.942227  0  0  0.111816  0  1.005819  0  0  0.11426  0  1.002691  0  0.171097  0  0.120051  0.109926  0  1.008203  0
H  H27  1  0.31421635  0.67407100  0.71555739  1  0  0.104813  0  0.942161  0  0  0.111818  0  1.00577  0  0  0.114264  0  1.002636  0  0.17112  0  0.120056  0.109928  0  1.008154  0
H  H28  1  0.79264048  0.98599540  0.11587692  1  0  0.075655  0  0.955735  0  0  0.083809  0  1.0235  0  0  0.086461  0  1.020488  0  0.078317  0  0.113454  0.081205  0  1.026434  0
H  H29  1  0.20735958  0.01400122  0.88411885  1  0  0.075659  0  0.955711  0  0  0.083808  0  1.023493  0  0  0.086459  0  1.02048  0  0.078474  0  0.113453  0.081205  0  1.02643  0
H  H30  1  0.54763676  0.96148700  0.05497994  1  0  0.107812  0  0.973823  0  0  0.111837  0  1.049263  0  0  0.116348  0  1.045111  0  0.137144  0  0.10809  0.108331  0  1.052714  0
H  H31  1  0.45236292  0.03851062  0.94501662  1  0  0.107778  0  0.97382  0  0  0.111804  0  1.049256  0  0  0.116309  0  1.045107  0  0.13699  0  0.108087  0.108307  0  1.052697  0
H  H32  1  0.55636762  0.02122960  0.37961559  1  0  0.111338  0  0.943307  0  0  0.122439  0  0.999178  0  0  0.124549  0  0.999966  0  0.100992  0  0.114472  0.120997  0  0.998446  0
H  H33  1  0.44363438  0.97876202  0.62038360  1  0  0.111366  0  0.943325  0  0  0.122448  0  0.999227  0  0  0.124531  0  1.00005  0  0.10121  0  0.114469  0.121019  0  0.99848  0
H  H34  1  0.80022335  0.03947974  0.42648895  1  0  0.084569  0  0.944283  0  0  0.09511  0  1.004568  0  0  0.097444  0  1.002365  0  0.131803  0  0.119682  0.092915  0  1.006888  0
H  H35  1  0.19977830  0.96050787  0.57350674  1  0  0.084492  0  0.944364  0  0  0.095179  0  1.004509  0  0  0.097514  0  1.002299  0  0.131713  0  0.119715  0.092977  0  1.006823  0
H  H36  1  0.17727836  0.02573181  0.19540427  1  0  0.073432  0  1.003838  0  0  0.078414  0  1.078112  0  0  0.080847  0  1.07532  0  0.115421  0  0.112814  0.076893  0  1.080078  0
H  H37  1  0.82272789  0.97427081  0.80459625  1  0  0.07347  0  1.003814  0  0  0.078402  0  1.078137  0  0  0.080838  0  1.075343  0  0.115186  0  0.112805  0.076881  0  1.080103  0
H  H38  1  0.35654001  0.78875187  0.30426680  1  0  0.118137  0  0.968308  0  0  0.125404  0  1.033315  0  0  0.128628  0  1.03013  0  0.152469  0  0.110294  0.123277  0  1.035266  0
H  H39  1  0.64346323  0.21124876  0.69573295  1  0  0.118124  0  0.968266  0  0  0.125408  0  1.033264  0  0  0.128633  0  1.030078  0  0.152538  0  0.110292  0.123282  0  1.035216  0
H  H40  1  0.18878249  0.72763205  0.41261010  1  0  0.122866  0  0.941104  0  0  0.132759  0  0.996141  0  0  0.135534  0  0.995933  0  0.120341  0  0.115283  0.130903  0  0.996423  0
H  H41  1  0.81122861  0.27237758  0.58739284  1  0  0.122871  0  0.941116  0  0  0.132761  0  0.99615  0  0  0.135537  0  0.995942  0  0.120379  0  0.1153  0.130903  0  0.996431  0
H  H42  1  0.03025404  0.82829068  0.41320803  1  0  0.075649  0  0.993779  0  0  0.08052  0  1.067774  0  0  0.083359  0  1.063831  0  0.117562  0  0.113538  0.078447  0  1.070797  0
H  H43  1  0.96975332  0.17171395  0.58679440  1  0  0.075613  0  0.9938  0  0  0.080518  0  1.067776  0  0  0.08334  0  1.063845  0  0.117398  0  0.113535  0.078445  0  1.070801  0
C  C44  1  0.16174006  0.17320067  0.03491502  1  0  0.106215  0  3.707835  0  0  0.074131  0  3.960357  0  0  0.080575  0  3.975243  0  0.462146  0  0.033476  0.070523  0  3.948814  0
C  C45  1  0.83825584  0.82679695  0.96508384  1  0  0.106201  0  3.707775  0  0  0.074182  0  3.960285  0  0  0.080605  0  3.975174  0  0.462008  0  0.033506  0.070571  0  3.948754  0
C  C46  1  0.04285492  0.19181724  0.02485744  1  0  -0.118388  0  3.709306  0  0  -0.140151  0  3.962524  0  0  -0.146142  0  3.983859  0  -0.02554  0  -0.075494  -0.135842  0  3.946834  0
C  C47  1  0.95714154  0.80818138  0.97514163  1  0  -0.118366  0  3.709167  0  0  -0.14018  0  3.962474  0  0  -0.146174  0  3.983812  0  -0.025492  0  -0.075493  -0.135874  0  3.946786  0
C  C48  1  0.04324823  0.29564754  0.98482609  1  0  0.027561  0  3.716343  0  0  0.037103  0  3.952758  0  0  0.038037  0  3.971235  0  -0.039169  0  0.005893  0.037385  0  3.938883  0
C  C49  1  0.95675085  0.70435408  0.01517454  1  0  0.027695  0  3.716199  0  0  0.037215  0  3.952687  0  0  0.038165  0  3.971168  0  -0.039047  0  0.005912  0.037496  0  3.938827  0
C  C50  1  0.15887259  0.36893646  0.94797940  1  0  -0.08954  0  3.643219  0  0  -0.110137  0  3.886421  0  0  -0.114409  0  3.904514  0  0.008937  0  -0.064246  -0.107413  0  3.873835  0
C  C51  1  0.84112443  0.63106317  0.05201989  1  0  -0.089613  0  3.64319  0  0  -0.110173  0  3.886434  0  0  -0.114451  0  3.904525  0  0.008657  0  -0.064252  -0.107481  0  3.873832  0
C  C52  1  0.27720856  0.34883417  0.96523488  1  0  0.121483  0  3.662292  0  0  0.090489  0  3.913228  0  0  0.097546  0  3.925817  0  0.429238  0  0.043638  0.085819  0  3.903983  0
C  C53  1  0.72278807  0.65116646  0.03476446  1  0  0.121543  0  3.662163  0  0  0.090549  0  3.91309  0  0  0.097613  0  3.925669  0  0.429453  0  0.043643  0.08589  0  3.903841  0
C  C54  1  0.92706331  0.33111464  0.98128903  1  0  0.390638  0  3.720238  0  0  0.370713  0  3.980306  0  0  0.393258  0  3.981785  0  0.960144  0  0.1685  0.356316  0  3.977621  0
C  C55  1  0.07293877  0.66888899  0.01871236  1  0  0.39068  0  3.720181  0  0  0.370756  0  3.98025  0  0  0.39327  0  3.98177  0  0.960106  0  0.168522  0.356357  0  3.977568  0
C  C56  1  0.72241489  0.30020482  0.04886319  1  0  0.102102  0  3.662645  0  0  0.063256  0  3.910676  0  0  0.071442  0  3.926337  0  0.480965  0  0.051477  0.058538  0  3.899677  0
C  C57  1  0.27758608  0.69979680  0.95113776  1  0  0.102166  0  3.662587  0  0  0.063272  0  3.91066  0  0  0.071439  0  3.92632  0  0.480986  0  0.051473  0.058555  0  3.899656  0
C  C58  1  0.86527820  0.32301025  0.07001377  1  0  -0.083498  0  3.749323  0  0  -0.063643  0  3.984897  0  0  -0.076444  0  4.011497  0  -0.023391  0  -0.012303  -0.055856  0  3.966988  0
C  C59  1  0.13472071  0.67698938  0.92998732  1  0  -0.083634  0  3.749412  0  0  -0.063753  0  3.984972  0  0  -0.07652  0  4.011562  0  -0.023425  0  -0.012328  -0.055962  0  3.967063  0
C  C60  1  0.94677066  0.34771888  0.17414596  1  0  -0.000186  0  3.629143  0  0  -0.028282  0  3.874775  0  0  -0.022437  0  3.892376  0  -0.019853  0  -0.049583  -0.031829  0  3.862701  0
C  C61  1  0.05323031  0.65228275  0.82585647  1  0  -9.8e-05  0  3.629142  0  0  -0.028185  0  3.874755  0  0  -0.022344  0  3.892355  0  -0.019564  0  -0.049551  -0.03174  0  3.862688  0
C  C62  1  0.88195873  0.34884218  0.25225571  1  0  -0.099394  0  3.681948  0  0  -0.109733  0  3.931226  0  0  -0.119098  0  3.954597  0  -0.003951  0  -0.07144  -0.103901  0  3.915626  0
C  C63  1  0.11804224  0.65115945  0.74774746  1  0  -0.099396  0  3.681937  0  0  -0.109768  0  3.931235  0  0  -0.119152  0  3.954617  0  -0.004095  0  -0.071453  -0.103937  0  3.915639  0
C  C64  1  0.73910561  0.32470922  0.22520022  1  0  0.153097  0  3.61837  0  0  0.121176  0  3.864731  0  0  0.129255  0  3.881324  0  0.430895  0  0.056247  0.116342  0  3.853395  0
C  C65  1  0.26089085  0.67528941  0.77480106  1  0  0.153131  0  3.618399  0  0  0.121193  0  3.864773  0  0  0.129288  0  3.881356  0  0.430822  0  0.05626  0.11636  0  3.853436  0
C  C66  1  0.73643191  0.99303255  0.17175376  1  0  0.123116  0  3.692803  0  0  0.089281  0  3.954221  0  0  0.09506  0  3.969294  0  0.49496  0  0.043388  0.085037  0  3.946046  0
C  C67  1  0.26356949  0.00696307  0.82824212  1  0  0.123049  0  3.692722  0  0  0.089198  0  3.954116  0  0  0.09498  0  3.969182  0  0.494916  0  0.043352  0.08495  0  3.945947  0
C  C68  1  0.59915639  0.97917450  0.13823247  1  0  -0.102552  0  3.69153  0  0  -0.127506  0  3.946892  0  0  -0.131497  0  3.965942  0  -0.033907  0  -0.070522  -0.125038  0  3.934426  0
C  C69  1  0.40084780  0.02082613  0.86176524  1  0  -0.102486  0  3.691595  0  0  -0.127401  0  3.946922  0  0  -0.131419  0  3.966047  0  -0.033766  0  -0.070559  -0.124943  0  3.93445  0
C  C70  1  0.52776029  0.98433548  0.21187517  1  0  0.016584  0  3.716827  0  0  0.029199  0  3.948406  0  0  0.027993  0  3.969782  0  -0.00033  0  0.003207  0.030711  0  3.934714  0
C  C71  1  0.47223639  0.01566014  0.78812137  1  0  0.016423  0  3.716888  0  0  0.028993  0  3.948523  0  0  0.027779  0  3.969882  0  -0.000305  0  0.003154  0.030508  0  3.934834  0
C  C72  1  0.60268074  0.00967421  0.31797150  1  0  -0.103372  0  3.677682  0  0  -0.126024  0  3.927265  0  0  -0.132359  0  3.950305  0  -0.031995  0  -0.065096  -0.123304  0  3.913375  0
C  C73  1  0.39731765  0.99031941  0.68202509  1  0  -0.103326  0  3.677728  0  0  -0.125959  0  3.927379  0  0  -0.132273  0  3.950429  0  -0.032254  0  -0.065017  -0.123253  0  3.913479  0
C  C74  1  0.73990967  0.02212664  0.34526914  1  0  0.143484  0  3.658405  0  0  0.112194  0  3.908602  0  0  0.117998  0  3.924843  0  0.46341  0  0.049974  0.107887  0  3.900069  0
C  C75  1  0.26008781  0.97786198  0.65472743  1  0  0.143589  0  3.658495  0  0  0.112155  0  3.908681  0  0  0.117966  0  3.924909  0  0.463326  0  0.049946  0.107861  0  3.900138  0
C  C76  1  0.37670245  0.96177133  0.17546543  1  0  0.408841  0  3.689618  0  0  0.388417  0  3.944048  0  0  0.41151  0  3.944787  0  0.949625  0  0.170521  0.370037  0  3.946846  0
C  C77  1  0.62329963  0.03823230  0.82453449  1  0  0.408921  0  3.689772  0  0  0.388518  0  3.94418  0  0  0.411647  0  3.944864  0  0.949395  0  0.170569  0.370139  0  3.946975  0
C  C78  1  0.18413291  0.96142493  0.24387598  1  0  0.117924  0  3.680231  0  0  0.073278  0  3.932665  0  0  0.08133  0  3.949406  0  0.483625  0  0.045003  0.068421  0  3.921267  0
C  C79  1  0.81587278  0.03857670  0.75612505  1  0  0.117832  0  3.680114  0  0  0.073224  0  3.9325  0  0  0.081272  0  3.949258  0  0.483877  0  0.044986  0.068365  0  3.921105  0
C  C80  1  0.28303409  0.91713061  0.24364408  1  0  -0.081206  0  3.752166  0  0  -0.058134  0  3.984434  0  0  -0.071102  0  4.010925  0  0.003032  0  -0.011603  -0.048329  0  3.965891  0
C  C81  1  0.71696727  0.08287002  0.75635608  1  0  -0.08116  0  3.752158  0  0  -0.058067  0  3.984354  0  0  -0.071041  0  4.010835  0  0.003269  0  -0.011569  -0.04826  0  3.965811  0
C  C82  1  0.28622427  0.83126212  0.30521413  1  0  -0.003141  0  3.652053  0  0  -0.035515  0  3.902377  0  0  -0.028627  0  3.91848  0  -0.049527  0  -0.055025  -0.040481  0  3.891185  0
C  C83  1  0.71377841  0.16873750  0.69478393  1  0  -0.003119  0  3.652004  0  0  -0.035523  0  3.902316  0  0  -0.028635  0  3.918415  0  -0.04943  0  -0.055031  -0.040491  0  3.891125  0
C  C84  1  0.19213238  0.79615945  0.36522361  1  0  -0.101558  0  3.687713  0  0  -0.111868  0  3.935938  0  0  -0.121201  0  3.958637  0  -0.036815  0  -0.074252  -0.105782  0  3.921306  0
C  C85  1  0.80787254  0.20384418  0.63477680  1  0  -0.101621  0  3.687844  0  0  -0.11192  0  3.936074  0  0  -0.121252  0  3.95877  0  -0.03699  0  -0.074259  -0.105831  0  3.921438  0
C  C86  1  0.10233468  0.85069063  0.36526288  1  0  0.142802  0  3.658821  0  0  0.110533  0  3.907076  0  0  0.118901  0  3.922026  0  0.474009  0  0.050549  0.103845  0  3.897394  0
C  C87  1  0.89767174  0.14931400  0.63473865  1  0  0.14285  0  3.658866  0  0  0.110529  0  3.90711  0  0  0.118914  0  3.922072  0  0.474162  0  0.050536  0.103841  0  3.89743  0
N  N88  1  0.28275346  0.25605567  0.01274842  1  0  -0.322386  0  3.402334  0  0  -0.247086  0  3.705304  0  0  -0.254711  0  3.710747  0  -1.200751  0  -0.37496  -0.240053  0  3.698616  0
N  N89  1  0.71724262  0.74394395  0.98724923  1  0  -0.322511  0  3.40242  0  0  -0.247223  0  3.705417  0  0  -0.254837  0  3.710847  0  -1.200854  0  -0.375024  -0.2402  0  3.698746  0
N  N90  1  0.65954977  0.29999758  0.12441559  1  0  -0.313228  0  3.373767  0  0  -0.233789  0  3.674835  0  0  -0.2452  0  3.682325  0  -1.220501  0  -0.366116  -0.226874  0  3.669601  0
N  N91  1  0.34044875  0.70000304  0.87558555  1  0  -0.313232  0  3.373801  0  0  -0.23377  0  3.674878  0  0  -0.245172  0  3.682353  0  -1.220258  0  -0.366097  -0.226857  0  3.66965  0
N  N92  1  0.80632504  0.01256856  0.27356487  1  0  -0.291165  0  3.383869  0  0  -0.22107  0  3.693106  0  0  -0.227062  0  3.698123  0  -1.224071  0  -0.363837  -0.219808  0  3.691942  0
N  N93  1  0.19367485  0.98742606  0.72643136  1  0  -0.291161  0  3.383858  0  0  -0.221004  0  3.693075  0  0  -0.226996  0  3.698091  0  -1.223761  0  -0.363794  -0.219741  0  3.691909  0
N  N94  1  0.09860962  0.93363473  0.30588326  1  0  -0.312054  0  3.390209  0  0  -0.238784  0  3.704425  0  0  -0.247545  0  3.709352  0  -1.216811  0  -0.370442  -0.23171  0  3.698169  0
N  N95  1  0.90139869  0.06636990  0.69411786  1  0  -0.312019  0  3.390102  0  0  -0.238722  0  3.7043  0  0  -0.247489  0  3.709231  0  -1.216816  0  -0.370426  -0.231647  0  3.698045  0
O  O96  1  0.88586408  0.37001170  0.90779279  1  0  -0.434257  0  1.932871  0  0  -0.396299  0  2.141117  0  0  -0.413616  0  2.140157  0  -1.077714  0  -0.242202  -0.383595  0  2.140942  0
O  O97  1  0.11413406  0.62998992  0.09220989  1  0  -0.434299  0  1.932795  0  0  -0.396346  0  2.141065  0  0  -0.413655  0  2.140119  0  -1.077702  0  -0.24223  -0.383642  0  2.140892  0
O  O98  1  0.32969054  0.97898728  0.09028451  1  0  -0.464288  0  1.937049  0  0  -0.425819  0  2.169602  0  0  -0.440822  0  2.163407  0  -1.095559  0  -0.251483  -0.417497  0  2.176115  0
O  O99  1  0.67031064  0.02101134  0.90970948  1  0  -0.464334  0  1.93726  0  0  -0.425883  0  2.169806  0  0  -0.440895  0  2.163595  0  -1.095496  0  -0.251539  -0.417569  0  2.176336  0
O  O100  1  0.40015906  0.24743168  0.23545099  1  0  -0.731176  0  1.613896  0  0  -0.715764  0  1.911772  0  0  -0.738568  0  1.898854  0  -0.86517  0  -0.521715  -0.699603  0  1.921467  0
O  O101  1  0.59984058  0.75257095  0.76455133  1  0  -0.731156  0  1.613984  0  0  -0.715646  0  1.91173  0  0  -0.738469  0  1.898853  0  -0.865248  0  -0.521687  -0.699483  0  1.921421  0
O  O102  1  0.25741267  0.42703177  0.42488428  1  0  -0.958472  0  1.791143  0  0  -0.947605  0  2.071598  0  0  -0.990789  0  2.067685  0  -1.077156  0  -0.597413  -0.91536  0  2.074437  0
O  O103  1  0.74258903  0.57297286  0.57511717  1  0  -0.958525  0  1.791172  0  0  -0.94767  0  2.071648  0  0  -0.990854  0  2.067732  0  -1.077097  0  -0.597425  -0.915426  0  2.074487  0
O  O104  1  0.13112877  0.18936741  0.25789793  1  0  -0.739404  0  1.647045  0  0  -0.71608  0  1.948318  0  0  -0.73764  0  1.932921  0  -0.887674  0  -0.533537  -0.702024  0  1.95928  0
O  O105  1  0.86887370  0.81063522  0.74210193  1  0  -0.739386  0  1.647076  0  0  -0.716032  0  1.948326  0  0  -0.737583  0  1.932908  0  -0.887379  0  -0.533532  -0.701977  0  1.959281  0
O  O106  1  0.53430189  0.49286104  0.40707921  1  0  -1.203936  0  1.892443  0  0  -1.186331  0  2.173866  0  0  -1.234204  0  2.174146  0  -1.226063  0  -0.61958  -1.149453  0  2.172494  0
O  O107  1  0.46569209  0.50714159  0.59291917  1  0  -1.203942  0  1.892445  0  0  -1.18637  0  2.173948  0  0  -1.234255  0  2.174237  0  -1.226142  0  -0.619547  -1.149497  0  2.172573  0
O  O108  1  0.36969528  0.27075270  0.43880982  1  0  -0.947696  0  1.787525  0  0  -0.936933  0  2.066353  0  0  -0.978821  0  2.062362  0  -1.06324  0  -0.597273  -0.905888  0  2.069241  0
O  O109  1  0.63029946  0.72924792  0.56118845  1  0  -0.947676  0  1.787472  0  0  -0.936906  0  2.066313  0  0  -0.978808  0  2.062333  0  -1.063321  0  -0.597218  -0.905869  0  2.069203  0
O  O110  1  0.31400094  0.43653378  0.23000149  1  0  -0.863218  0  1.745428  0  0  -0.855169  0  2.03198  0  0  -0.89676  0  2.028767  0  -0.998901  0  -0.58185  -0.825127  0  2.034838  0
O  O111  1  0.68599629  0.56346284  0.77000264  1  0  -0.8632  0  1.745345  0  0  -0.855128  0  2.031896  0  0  -0.896733  0  2.028685  0  -0.998794  0  -0.581824  -0.82508  0  2.034726  0
O  O112  1  0.42291376  0.65925883  0.37066986  1  0  -0.786526  0  1.645643  0  0  -0.776817  0  1.916745  0  0  -0.80951  0  1.906474  0  -0.93012  0  -0.542447  -0.752595  0  1.924474  0
O  O113  1  0.57708686  0.34073879  0.62933498  1  0  -0.786463  0  1.645446  0  0  -0.776766  0  1.916563  0  0  -0.809467  0  1.906292  0  -0.930191  0  -0.542414  -0.752545  0  1.924286  0
O  O114  1  0.34625362  0.68673367  0.55083523  1  0  -0.663612  0  1.404919  0  0  -0.653476  0  1.636358  0  0  -0.674971  0  1.62455  0  -0.806399  0  -0.503894  -0.637306  0  1.645667  0
O  O115  1  0.65374602  0.31326896  0.44916856  1  0  -0.663536  0  1.404952  0  0  -0.653396  0  1.636379  0  0  -0.674893  0  1.624578  0  -0.806268  0  -0.503862  -0.637227  0  1.645687  0
O  O116  1  0.08586886  0.17319867  0.46283466  1  0  -0.744716  0  1.635831  0  0  -0.724034  0  1.944248  0  0  -0.74417  0  1.922914  0  -0.896129  0  -0.540809  -0.710448  0  1.959626  0
O  O117  1  0.91412949  0.82679995  0.53716400  1  0  -0.744699  0  1.635762  0  0  -0.724007  0  1.944184  0  0  -0.744143  0  1.922849  0  -0.896069  0  -0.540808  -0.71042  0  1.959557  0
O  O118  1  0.15620701  0.40568203  0.59978294  1  0  -0.650826  0  1.397993  0  0  -0.645342  0  1.626149  0  0  -0.669976  0  1.618349  0  -0.784276  0  -0.500729  -0.627512  0  1.632515  0
O  O119  1  0.84378945  0.59431659  0.40021761  1  0  -0.65081  0  1.398061  0  0  -0.645346  0  1.626238  0  0  -0.669981  0  1.61844  0  -0.784555  0  -0.500752  -0.627517  0  1.632605  0
O  O120  1  0.68012729  0.71826420  0.35242647  1  0  -0.868719  0  1.709307  0  0  -0.864139  0  1.998078  0  0  -0.90436  0  1.990341  0  -0.995618  0  -0.588001  -0.834275  0  2.003418  0
O  O121  1  0.31987200  0.28173442  0.64757384  1  0  -0.868776  0  1.709232  0  0  -0.86418  0  1.997975  0  0  -0.904407  0  1.990237  0  -0.995548  0  -0.588024  -0.834323  0  2.003328  0
O  O122  1  0.56003165  0.50209274  0.17804705  1  0  -0.757313  0  1.61795  0  0  -0.744496  0  1.918288  0  0  -0.768557  0  1.904  0  -0.884751  0  -0.531753  -0.727651  0  1.929049  0
O  O123  1  0.43996155  0.49791189  0.82195291  1  0  -0.757341  0  1.618179  0  0  -0.744483  0  1.918506  0  0  -0.768551  0  1.904235  0  -0.884832  0  -0.531735  -0.727635  0  1.929264  0
O  O124  1  0.46310492  0.68015104  0.16332190  1  0  -0.686848  0  1.435685  0  0  -0.677158  0  1.688781  0  0  -0.702347  0  1.678548  0  -0.827062  0  -0.511699  -0.658835  0  1.696609  0
O  O125  1  0.53688961  0.31985259  0.83667818  1  0  -0.686796  0  1.435903  0  0  -0.677103  0  1.68903  0  0  -0.70229  0  1.678797  0  -0.827072  0  -0.511717  -0.658787  0  1.69686  0
