# generated using pymatgen
data_ZnH19C22SN5O4
_symmetry_space_group_name_H-M   'P 1'
_cell_length_a   10.72571386
_cell_length_b   14.84310272
_cell_length_c   15.91014120
_cell_angle_alpha   97.72809407
_cell_angle_beta   89.95674090
_cell_angle_gamma   111.18020984
_symmetry_Int_Tables_number   1
_chemical_formula_structural   ZnH19C22SN5O4
_chemical_formula_sum   'Zn4 H76 C88 S4 N20 O16'
_cell_volume   2337.24719301
_cell_formula_units_Z   4
loop_
 _symmetry_equiv_pos_site_id
 _symmetry_equiv_pos_as_xyz
  1  'x, y, z'
loop_
 _atom_site_type_symbol
 _atom_site_label
 _atom_site_symmetry_multiplicity
 _atom_site_fract_x
 _atom_site_fract_y
 _atom_site_fract_z
 _atom_site_occupancy
 _atom_site_pbe_bader_charge
 _atom_site_pbe_bader_spin_density
 _atom_site_pbe_cm5_charge
 _atom_site_pbe_ddec_charge
 _atom_site_pbe_ddec_spin_density
 _atom_site_pbe_ddec_sum_bond_order
 _atom_site_pbe_magmom
Zn  Zn0  1  0.18213167  0.28930382  0.91480548  1  1.255829  0  0.699443  0.792212  0  2.36883  0
Zn  Zn1  1  0.89272996  0.71092073  0.58507866  1  1.256281  0  0.699416  0.792115  0  2.368712  0
Zn  Zn2  1  0.81786704  0.71069471  0.08519511  1  1.255825  0  0.69949  0.792309  0  2.368795  0
Zn  Zn3  1  0.10726781  0.28907779  0.41492256  1  1.256225  0  0.699404  0.792138  0  2.36874  0
H  H4  1  0.05726010  0.35648666  0.76203595  1  0.235578  0  0.1405  0.128969  0  1.026448  0
H  H5  1  0.70063392  0.64385294  0.73796342  1  0.248021  0  0.140737  0.129227  0  1.027224  0
H  H6  1  0.94273262  0.64351107  0.23796830  1  0.23555  0  0.140511  0.128973  0  1.026411  0
H  H7  1  0.29936904  0.35614850  0.26203821  1  0.248011  0  0.140726  0.129226  0  1.027242  0
H  H8  1  0.05635587  0.08074056  0.79831864  1  0.129522  0  0.117003  0.117208  0  1.033793  0
H  H9  1  0.97595326  0.91952601  0.70179144  1  0.112102  0  0.116896  0.117531  0  1.033899  0
H  H10  1  0.94364529  0.91925726  0.20167997  1  0.128999  0  0.117038  0.117242  0  1.033754  0
H  H11  1  0.02404843  0.08047474  0.29820757  1  0.112129  0  0.116905  0.117561  0  1.033868  0
H  H12  1  0.89872597  0.05846555  0.65039396  1  0.087671  0  0.123575  0.123514  0  1.012996  0
H  H13  1  0.84042644  0.94180453  0.84980189  1  0.131464  0  0.123249  0.123214  0  1.012585  0
H  H14  1  0.10128004  0.94153452  0.34960245  1  0.08771  0  0.123606  0.12354  0  1.012978  0
H  H15  1  0.15957080  0.05819477  0.15019630  1  0.131453  0  0.123255  0.12323  0  1.01265  0
H  H16  1  0.89700367  0.19048897  0.55756302  1  0.089309  0  0.113433  0.103039  0  0.999971  0
H  H17  1  0.70650903  0.80974888  0.94261060  1  0.095802  0  0.113682  0.10318  0  0.999741  0
H  H18  1  0.10299803  0.80951181  0.44243474  1  0.08929  0  0.113464  0.103088  0  0.999982  0
H  H19  1  0.29349358  0.19025184  0.05738967  1  0.09582  0  0.113685  0.103196  0  0.99978  0
H  H20  1  0.95366066  0.31388219  0.60577078  1  0.103166  0  0.124736  0.118922  0  0.953592  0
H  H21  1  0.63973604  0.68641319  0.89436624  1  0.100777  0  0.124769  0.118664  0  0.95403  0
H  H22  1  0.04633782  0.68611774  0.39423315  1  0.103047  0  0.124742  0.118956  0  0.953586  0
H  H23  1  0.36026470  0.31358753  0.10563466  1  0.100768  0  0.124746  0.118683  0  0.954062  0
H  H24  1  0.80760230  0.35489971  0.73111633  1  0.067891  0  0.109287  0.11516  0  0.977387  0
H  H25  1  0.45327002  0.64565649  0.76900920  1  0.079996  0  0.109333  0.114985  0  0.977478  0
H  H26  1  0.19239863  0.64509951  0.26888624  1  0.067808  0  0.109296  0.11518  0  0.977382  0
H  H27  1  0.54673328  0.35434935  0.23099178  1  0.07993  0  0.109336  0.115009  0  0.977498  0
H  H28  1  0.57410717  0.33922689  0.75772032  1  0.072828  0  0.102888  0.103019  0  1.013071  0
H  H29  1  0.23542801  0.66121870  0.74230326  1  0.070931  0  0.102732  0.10318  0  1.01179  0
H  H30  1  0.42589131  0.66077304  0.24228361  1  0.072874  0  0.102902  0.103036  0  1.012984  0
H  H31  1  0.76457406  0.33878282  0.25769398  1  0.070638  0  0.102763  0.103248  0  1.011771  0
H  H32  1  0.43164771  0.08519649  0.56602530  1  0.071711  0  0.098806  0.097795  0  1.021725  0
H  H33  1  0.34608105  0.91484930  0.93442618  1  0.062362  0  0.099119  0.098472  0  1.021356  0
H  H34  1  0.56834936  0.91480060  0.43397384  1  0.071785  0  0.098784  0.097771  0  1.021663  0
H  H35  1  0.65392197  0.08514851  0.06557306  1  0.06231  0  0.099113  0.098479  0  1.021298  0
H  H36  1  0.66516371  0.09984805  0.54095061  1  0.065487  0  0.097756  0.098119  0  1.017856  0
H  H37  1  0.56491305  0.90029004  0.95951956  1  0.065913  0  0.097985  0.098339  0  1.01737  0
H  H38  1  0.33483640  0.90015700  0.45905340  1  0.065378  0  0.097776  0.09814  0  1.01786  0
H  H39  1  0.43508661  0.09970851  0.04047978  1  0.065908  0  0.098007  0.098376  0  1.01735  0
H  H40  1  0.29779320  0.13845982  0.71767515  1  0.104003  0  0.117948  0.112961  0  0.973248  0
H  H41  1  0.15952789  0.86184488  0.78263326  1  0.098429  0  0.118065  0.112848  0  0.973009  0
H  H42  1  0.70220922  0.86153867  0.28232732  1  0.103967  0  0.117974  0.112968  0  0.973214  0
H  H43  1  0.84047300  0.13815801  0.21736856  1  0.098539  0  0.11808  0.112843  0  0.973051  0
H  H44  1  0.34400522  0.26592207  0.72453218  1  0.099615  0  0.120309  0.110177  0  0.971411  0
H  H45  1  0.07839800  0.73434163  0.77563106  1  0.090897  0  0.120683  0.110828  0  0.970659  0
H  H46  1  0.65599627  0.73407643  0.27546966  1  0.099681  0  0.12033  0.11021  0  0.971382  0
H  H47  1  0.92160404  0.26565983  0.22436931  1  0.090665  0  0.120673  0.110844  0  0.970628  0
H  H48  1  0.29048787  0.33354822  0.58881287  1  0.141566  0  0.149184  0.124528  0  0.962413  0
H  H49  1  0.95685793  0.66647072  0.91135480  1  0.143962  0  0.14916  0.124694  0  0.962568  0
H  H50  1  0.70951043  0.66645321  0.41118875  1  0.141679  0  0.149212  0.12455  0  0.9624  0
H  H51  1  0.04314393  0.33352851  0.08864715  1  0.143906  0  0.149153  0.124656  0  0.962597  0
H  H52  1  0.04767507  0.06601994  0.44758096  1  0.110523  0  0.113052  0.103875  0  1.055556  0
H  H53  1  0.98079662  0.93390572  0.05255875  1  0.11657  0  0.112908  0.104583  0  1.055846  0
H  H54  1  0.95233280  0.93397641  0.55241871  1  0.11049  0  0.113041  0.10387  0  1.055548  0
H  H55  1  0.01920358  0.06609204  0.94744362  1  0.116579  0  0.11291  0.104615  0  1.055825  0
H  H56  1  0.18085313  0.02754804  0.58223331  1  0.221997  0  0.119701  0.136858  0  1.061103  0
H  H57  1  0.15284671  0.97249247  0.91793535  1  0.223399  0  0.120051  0.137328  0  1.060411  0
H  H58  1  0.81915243  0.97245487  0.41776789  1  0.2219  0  0.119684  0.136844  0  1.061122  0
H  H59  1  0.84715422  0.02750677  0.08206660  1  0.223307  0  0.12005  0.137269  0  1.06048  0
H  H60  1  0.83613884  0.15220440  0.87576573  1  0.053499  0  0.098242  0.060377  0  1.047215  0
H  H61  1  0.68373889  0.84763716  0.62429688  1  0.060929  0  0.098435  0.060703  0  1.047487  0
H  H62  1  0.16385351  0.84779261  0.12423780  1  0.05345  0  0.098262  0.060408  0  1.047142  0
H  H63  1  0.31626004  0.15235994  0.37570162  1  0.060937  0  0.098457  0.060716  0  1.047473  0
H  H64  1  0.63001036  0.00692479  0.82152568  1  0.05338  0  0.095011  0.096662  0  1.05089  0
H  H65  1  0.62266801  0.99280254  0.67872720  1  0.051485  0  0.094844  0.096353  0  1.051377  0
H  H66  1  0.36998387  0.99307222  0.17847785  1  0.053212  0  0.095017  0.096724  0  1.050891  0
H  H67  1  0.37733646  0.00719818  0.32127369  1  0.051506  0  0.094877  0.096353  0  1.051389  0
H  H68  1  0.40753499  0.02879950  0.82967485  1  0.08238  0  0.101724  0.097319  0  1.026321  0
H  H69  1  0.37834580  0.97099151  0.67030929  1  0.087162  0  0.101409  0.096831  0  1.026037  0
H  H70  1  0.59246145  0.97120195  0.17032615  1  0.082403  0  0.101735  0.097292  0  1.026377  0
H  H71  1  0.62165852  0.02900705  0.32968942  1  0.08702  0  0.101456  0.096919  0  1.025964  0
H  H72  1  0.80420998  0.36816741  0.04691010  1  0.091014  0  0.096178  0.120836  0  1.024265  0
H  H73  1  0.43635903  0.63178674  0.45287549  1  0.089563  0  0.095821  0.119921  0  1.025222  0
H  H74  1  0.19578913  0.63183190  0.95308746  1  0.090976  0  0.096196  0.120861  0  1.024164  0
H  H75  1  0.56364435  0.36821180  0.54712448  1  0.089584  0  0.095824  0.119959  0  1.025228  0
H  H76  1  0.86085431  0.42772062  0.95676032  1  0.100906  0  0.104365  0.140609  0  0.98505  0
H  H77  1  0.43298847  0.57215493  0.54302743  1  0.083924  0  0.104247  0.140044  0  0.985815  0
H  H78  1  0.13914403  0.57228088  0.04323754  1  0.100968  0  0.104339  0.140596  0  0.985089  0
H  H79  1  0.56701342  0.42784438  0.45697076  1  0.083942  0  0.104282  0.140107  0  0.985789  0
C  C80  1  0.03660651  0.27847213  0.75036572  1  0.945076  0  0.149683  0.090277  0  3.886687  0
C  C81  1  0.75806202  0.72185868  0.74965202  1  0.938799  0  0.149547  0.090035  0  3.889222  0
C  C82  1  0.96339257  0.72152713  0.24963435  1  0.944566  0  0.149669  0.090213  0  3.886714  0
C  C83  1  0.24193558  0.27814134  0.25034689  1  0.938811  0  0.149573  0.090045  0  3.889334  0
C  C84  1  0.02956049  0.13325353  0.76863900  1  0.367835  0  -0.008322  -0.052276  0  4.01584  0
C  C85  1  0.89655027  0.86702734  0.73146481  1  0.38453  0  -0.008496  -0.053194  0  4.017008  0
C  C86  1  0.97043786  0.86674427  0.23136149  1  0.368024  0  -0.008396  -0.052295  0  4.015936  0
C  C87  1  0.10345013  0.13297268  0.26853410  1  0.384408  0  -0.008524  -0.0532  0  4.017033  0
C  C88  1  0.95437536  0.12208220  0.69546193  1  0.352525  0  0.0  -0.107402  0  3.930198  0
C  C89  1  0.83243935  0.87821059  0.80467907  1  0.281363  0  0.000385  -0.105796  0  3.928974  0
C  C90  1  0.04562653  0.87791708  0.30453750  1  0.3529  0  -2.2e-05  -0.107483  0  3.930243  0
C  C91  1  0.16756161  0.12178871  0.19531911  1  0.281322  0  0.000429  -0.105788  0  3.929073  0
C  C92  1  0.89400128  0.23880511  0.61543052  1  0.271353  0  -0.04381  -0.118597  0  3.895527  0
C  C93  1  0.65519096  0.76151001  0.88475125  1  0.27323  0  -0.044285  -0.117758  0  3.894264  0
C  C94  1  0.10599706  0.76119268  0.38457060  1  0.271439  0  -0.043847  -0.118703  0  3.895611  0
C  C95  1  0.34480979  0.23849072  0.11524902  1  0.273226  0  -0.044288  -0.117823  0  3.894348  0
C  C96  1  0.75194615  0.22834773  0.63383864  1  -0.031695  0  -0.017183  0.071566  0  4.012169  0
C  C97  1  0.52364764  0.77199203  0.86643861  1  -0.012475  0  -0.016973  0.072011  0  4.010297  0
C  C98  1  0.24805195  0.77165517  0.36616319  1  -0.031859  0  -0.017172  0.071614  0  4.012118  0
C  C99  1  0.47635477  0.22801017  0.13356123  1  -0.011945  0  -0.016963  0.072021  0  4.010323  0
C  C100  1  0.72535527  0.29516076  0.69509683  1  -0.03847  0  -0.083663  -0.111806  0  3.955556  0
C  C101  1  0.43051004  0.70526965  0.80507689  1  -0.027514  0  -0.083792  -0.111366  0  3.957442  0
C  C102  1  0.27464323  0.70483922  0.30490459  1  -0.038363  0  -0.083713  -0.11192  0  3.955671  0
C  C103  1  0.56949514  0.29473623  0.19492220  1  -0.028009  0  -0.083808  -0.111408  0  3.957623  0
C  C104  1  0.59388162  0.28647361  0.71013309  1  -0.01808  0  -0.083757  -0.114142  0  3.969715  0
C  C105  1  0.30776351  0.71391518  0.78998057  1  -0.099662  0  -0.083406  -0.114274  0  3.970227  0
C  C106  1  0.40611430  0.71352865  0.28986363  1  -0.018127  0  -0.083833  -0.114164  0  3.969848  0
C  C107  1  0.69223759  0.28608627  0.21002042  1  -0.099425  0  -0.083457  -0.114373  0  3.970394  0
C  C108  1  0.48707857  0.21077303  0.66415417  1  -0.044112  0  -0.015  0.081193  0  3.973764  0
C  C109  1  0.27639506  0.78948017  0.83607634  1  0.006378  0  -0.014683  0.080645  0  3.975314  0
C  C110  1  0.51291793  0.78922480  0.33584445  1  -0.044101  0  -0.014936  0.081198  0  3.974011  0
C  C111  1  0.72360698  0.21052127  0.16392465  1  0.006371  0  -0.014657  0.080719  0  3.975326  0
C  C112  1  0.51358843  0.14375731  0.60322118  1  -0.036169  0  -0.093375  -0.12183  0  3.975916  0
C  C113  1  0.36963030  0.85637515  0.89715896  1  -0.071078  0  -0.093222  -0.121834  0  3.978019  0
C  C114  1  0.48640771  0.85623979  0.39677733  1  -0.036146  0  -0.093362  -0.121809  0  3.975803  0
C  C115  1  0.63037398  0.14362706  0.10284025  1  -0.070988  0  -0.093231  -0.121873  0  3.977881  0
C  C116  1  0.64517743  0.15216303  0.58877827  1  -0.037927  0  -0.092792  -0.128737  0  4.006421  0
C  C117  1  0.49277648  0.84802103  0.91163427  1  -0.015077  0  -0.093453  -0.12963  0  4.006904  0
C  C118  1  0.35481825  0.84784063  0.41122177  1  -0.037819  0  -0.092793  -0.128745  0  4.006268  0
C  C119  1  0.50722520  0.15197971  0.08836537  1  -0.015028  0  -0.093462  -0.129669  0  4.006821  0
C  C120  1  0.34527690  0.20082349  0.68338314  1  0.270962  0  -0.043422  -0.113493  0  3.887509  0
C  C121  1  0.14458181  0.79941944  0.81684937  1  0.285335  0  -0.044239  -0.114735  0  3.888434  0
C  C122  1  0.65471995  0.79917504  0.31661745  1  0.270727  0  -0.043421  -0.113382  0  3.88752  0
C  C123  1  0.85541836  0.20058199  0.18315225  1  0.285397  0  -0.044249  -0.114781  0  3.88844  0
C  C124  1  0.24176764  0.25575378  0.56800011  1  1.004723  0  0.15389  0.106745  0  3.876837  0
C  C125  1  0.98579932  0.74425919  0.93218935  1  0.995991  0  0.153546  0.105159  0  3.877279  0
C  C126  1  0.75823237  0.74424547  0.43200058  1  1.004604  0  0.153842  0.106755  0  3.876889  0
C  C127  1  0.01420402  0.25573928  0.06781438  1  0.996075  0  0.153563  0.10523  0  3.877137  0
C  C128  1  0.11959308  0.11524969  0.49627470  1  0.403138  0  -0.010391  -0.054565  0  4.032102  0
C  C129  1  0.00369173  0.88473291  0.00386939  1  0.358277  0  -0.010398  -0.055939  0  4.032895  0
C  C130  1  0.88040975  0.88474961  0.50372349  1  0.403143  0  -0.010368  -0.054559  0  4.032188  0
C  C131  1  0.99630770  0.11526707  0.99613204  1  0.358496  0  -0.010439  -0.0561  0  4.033049  0
C  C132  1  0.18337295  0.09558718  0.56237673  1  0.243796  0  -0.002355  -0.121193  0  3.923289  0
C  C133  1  0.08731234  0.90444658  0.93777555  1  0.270615  0  -0.002794  -0.122814  0  3.924313  0
C  C134  1  0.81663211  0.90441286  0.43762156  1  0.243912  0  -0.002323  -0.121073  0  3.923396  0
C  C135  1  0.91268711  0.09555340  0.06222524  1  0.270659  0  -0.002806  -0.122727  0  3.924303  0
C  C136  1  0.35824196  0.18571658  0.89198900  1  1.518831  0  0.193874  0.561767  0  4.250546  0
C  C137  1  0.17240883  0.81419082  0.60765612  1  1.513801  0  0.194356  0.560316  0  4.249408  0
C  C138  1  0.64175637  0.81428491  0.10800949  1  1.51893  0  0.193815  0.561633  0  4.250641  0
C  C139  1  0.82759250  0.18580921  0.39234216  1  1.513712  0  0.194407  0.560399  0  4.249368  0
C  C140  1  0.49318899  0.17813449  0.88612985  1  -0.03674  0  -0.028332  -0.143825  0  3.97144  0
C  C141  1  0.31491093  0.82171512  0.61354372  1  -0.010042  0  -0.028066  -0.141938  0  3.969816  0
C  C142  1  0.50680487  0.82186554  0.11386906  1  -0.036656  0  -0.028317  -0.14385  0  3.97117  0
C  C143  1  0.68508892  0.17828197  0.38645542  1  -0.01006  0  -0.028074  -0.14192  0  3.969675  0
C  C144  1  0.61538841  0.25563290  0.91623218  1  0.418455  0  0.12314  0.16625  0  4.019202  0
C  C145  1  0.35977397  0.74424917  0.58348334  1  0.390062  0  0.123197  0.165604  0  4.019744  0
C  C146  1  0.38460579  0.74436779  0.08376997  1  0.418507  0  0.123173  0.166356  0  4.019167  0
C  C147  1  0.64022442  0.25574871  0.41651277  1  0.390068  0  0.123181  0.165522  0  4.019652  0
C  C148  1  0.73693485  0.15698544  0.87806264  1  0.510822  0  0.037805  0.105421  0  4.022584  0
C  C149  1  0.57976235  0.84285119  0.62195341  1  0.479001  0  0.03713  0.103859  0  4.023201  0
C  C150  1  0.26306087  0.84301456  0.12193753  1  0.510743  0  0.037722  0.105286  0  4.022623  0
C  C151  1  0.42023862  0.15714811  0.37804477  1  0.478905  0  0.037128  0.10378  0  4.023188  0
C  C152  1  0.62322833  0.07657795  0.84739979  1  -0.045883  0  -0.10931  -0.169325  0  4.029358  0
C  C153  1  0.54630699  0.92319612  0.65272666  1  -0.020386  0  -0.108027  -0.167875  0  4.028805  0
C  C154  1  0.37676628  0.92341982  0.15260196  1  -0.045746  0  -0.109255  -0.169324  0  4.029618  0
C  C155  1  0.45369603  0.07680541  0.34726932  1  -0.020298  0  -0.108091  -0.167807  0  4.028838  0
C  C156  1  0.50064517  0.08865266  0.85193344  1  -0.010842  0  -0.074322  -0.044011  0  3.984076  0
C  C157  1  0.41166691  0.91115055  0.64799139  1  0.000274  0  -0.075006  -0.044734  0  3.983167  0
C  C158  1  0.49935090  0.91134805  0.14806808  1  -0.010876  0  -0.074295  -0.043901  0  3.984107  0
C  C159  1  0.58833428  0.08884733  0.35200471  1  0.000306  0  -0.075034  -0.044811  0  3.983176  0
C  C160  1  0.79031046  0.41952272  0.00795201  1  -0.146687  0  -0.159735  -0.343804  0  3.919671  0
C  C161  1  0.37093551  0.58036680  0.49174481  1  -0.133234  0  -0.159674  -0.34176  0  3.918797  0
C  C162  1  0.20968973  0.58047878  0.99204648  1  -0.14678  0  -0.159747  -0.343852  0  3.919613  0
C  C163  1  0.62906710  0.41963392  0.50825546  1  -0.133206  0  -0.159759  -0.341944  0  3.918886  0
C  C164  1  0.81855651  0.51802235  0.06207989  1  1.592445  0  0.195697  0.639437  0  4.186381  0
C  C165  1  0.30085812  0.48190050  0.43755044  1  1.591325  0  0.195746  0.63835  0  4.188033  0
C  C166  1  0.18143810  0.48197544  0.93792123  1  1.592474  0  0.19572  0.639366  0  4.186415  0
C  C167  1  0.69914522  0.51810170  0.56244940  1  1.591314  0  0.195683  0.638261  0  4.188028  0
S  S168  1  0.61934193  0.37100344  0.96234149  1  0.173093  0  0.029782  0.057205  0  2.729343  0
S  S169  1  0.24839839  0.62894414  0.53729030  1  0.180653  0  0.029764  0.056291  0  2.730188  0
S  S170  1  0.38065808  0.62899955  0.03765532  1  0.173169  0  0.029807  0.05725  0  2.729296  0
S  S171  1  0.75160073  0.37105519  0.46270601  1  0.180686  0  0.029787  0.056362  0  2.730212  0
N  N172  1  0.07995561  0.23124623  0.80226137  1  -1.259052  0  -0.359461  -0.292312  0  3.623371  0
N  N173  1  0.84878074  0.76905719  0.69776067  1  -1.235731  0  -0.359228  -0.291447  0  3.622741  0
N  N174  1  0.92003844  0.76875229  0.19773922  1  -1.258541  0  -0.359443  -0.292304  0  3.623627  0
N  N175  1  0.15121851  0.23094428  0.30223908  1  -1.235576  0  -0.359242  -0.291509  0  3.622775  0
N  N176  1  0.15652860  0.21515550  0.50055832  1  -1.25647  0  -0.356234  -0.288714  0  3.602065  0
N  N177  1  0.94090829  0.78481867  0.99959278  1  -1.256405  0  -0.356183  -0.287508  0  3.602357  0
N  N178  1  0.84347234  0.78484376  0.49944238  1  -1.256498  0  -0.356253  -0.288732  0  3.602076  0
N  N179  1  0.05909507  0.21517982  0.00040969  1  -1.256518  0  -0.356173  -0.287467  0  3.60236  0
N  N180  1  0.96136712  0.21456485  0.68450109  1  -1.219504  0  -0.237267  0.053447  0  3.771205  0
N  N181  1  0.74683451  0.78574630  0.81561401  1  -1.218983  0  -0.237605  0.051025  0  3.773962  0
N  N182  1  0.03863289  0.78543441  0.31549960  1  -1.219492  0  -0.237268  0.05351  0  3.771243  0
N  N183  1  0.25316530  0.21425442  0.18438689  1  -1.218949  0  -0.237619  0.051055  0  3.773997  0
N  N184  1  0.25927925  0.18534250  0.60733902  1  -1.239468  0  -0.237321  0.050535  0  3.779691  0
N  N185  1  0.07375903  0.81472681  0.89285768  1  -1.220379  0  -0.236564  0.053629  0  3.777879  0
N  N186  1  0.74072077  0.81465678  0.39266042  1  -1.239153  0  -0.237343  0.050328  0  3.779871  0
N  N187  1  0.92624096  0.18527243  0.10714427  1  -1.220424  0  -0.236526  0.053693  0  3.777715  0
N  N188  1  0.73379414  0.24343968  0.91174854  1  -1.179948  0  -0.325009  -0.30196  0  3.362723  0
N  N189  1  0.49034464  0.75643867  0.58808055  1  -1.18656  0  -0.325179  -0.301136  0  3.362611  0
N  N190  1  0.26620159  0.75656033  0.08825101  1  -1.180064  0  -0.325076  -0.302037  0  3.362891  0
N  N191  1  0.50965484  0.24356137  0.41191711  1  -1.186516  0  -0.325166  -0.301087  0  3.362612  0
O  O192  1  0.35831096  0.27368520  0.90653675  1  -1.144719  0  -0.319318  -0.53513  0  2.379705  0
O  O193  1  0.08441689  0.72626025  0.59315419  1  -1.149822  0  -0.319624  -0.534854  0  2.37784  0
O  O194  1  0.64168832  0.72631633  0.09345986  1  -1.144625  0  -0.319331  -0.535126  0  2.379753  0
O  O195  1  0.91558086  0.27374194  0.40684628  1  -1.149784  0  -0.319644  -0.534907  0  2.377836  0
O  O196  1  0.25409123  0.10956509  0.88326905  1  -1.193721  0  -0.336482  -0.582405  0  2.166379  0
O  O197  1  0.14450614  0.89039133  0.61638431  1  -1.193758  0  -0.336652  -0.581633  0  2.165719  0
O  O198  1  0.74590650  0.89043706  0.11673393  1  -1.193766  0  -0.336424  -0.582308  0  2.166399  0
O  O199  1  0.85549871  0.10961014  0.38361543  1  -1.193647  0  -0.336674  -0.581674  0  2.165761  0
O  O200  1  0.88139130  0.53632552  0.13201364  1  -1.191092  0  -0.340768  -0.570977  0  2.087967  0
O  O201  1  0.34554305  0.46362822  0.36762952  1  -1.187211  0  -0.340927  -0.57059  0  2.089785  0
O  O202  1  0.11860741  0.46367301  0.86798695  1  -1.191103  0  -0.34078  -0.570952  0  2.088  0
O  O203  1  0.65446794  0.53637247  0.63237263  1  -1.187438  0  -0.340801  -0.570462  0  2.089868  0
O  O204  1  0.77635817  0.57753469  0.02820442  1  -1.17966  0  -0.349308  -0.56987  0  2.301912  0
O  O205  1  0.19906212  0.42239897  0.47143503  1  -1.182042  0  -0.348831  -0.568851  0  2.302423  0
O  O206  1  0.22363961  0.42246383  0.97179617  1  -1.179638  0  -0.349312  -0.569822  0  2.301934  0
O  O207  1  0.80093681  0.57760185  0.52856022  1  -1.18184  0  -0.348871  -0.568833  0  2.302317  0
