# generated using pymatgen
data_ZnH5C8NO7
_symmetry_space_group_name_H-M   'P 1'
_cell_length_a   7.41609436
_cell_length_b   8.14897995
_cell_length_c   8.23415495
_cell_angle_alpha   106.36512943
_cell_angle_beta   105.33096268
_cell_angle_gamma   94.89383844
_symmetry_Int_Tables_number   1
_chemical_formula_structural   ZnH5C8NO7
_chemical_formula_sum   'Zn2 H10 C16 N2 O14'
_cell_volume   453.54975592
_cell_formula_units_Z   2
loop_
 _symmetry_equiv_pos_site_id
 _symmetry_equiv_pos_as_xyz
  1  'x, y, z'
loop_
 _atom_site_type_symbol
 _atom_site_label
 _atom_site_symmetry_multiplicity
 _atom_site_fract_x
 _atom_site_fract_y
 _atom_site_fract_z
 _atom_site_occupancy
 _atom_site_hle17_bader_spin_density
 _atom_site_hle17_ddec_charge
 _atom_site_hle17_ddec_spin_density
 _atom_site_hle17_ddec_sum_bond_order
 _atom_site_hle17_magmom
 _atom_site_hse06_10hf_bader_spin_density
 _atom_site_hse06_10hf_ddec_charge
 _atom_site_hse06_10hf_ddec_spin_density
 _atom_site_hse06_10hf_ddec_sum_bond_order
 _atom_site_hse06_10hf_magmom
 _atom_site_hse06_bader_spin_density
 _atom_site_hse06_ddec_charge
 _atom_site_hse06_ddec_spin_density
 _atom_site_hse06_ddec_sum_bond_order
 _atom_site_hse06_magmom
 _atom_site_pbe_bader_spin_density
 _atom_site_pbe_cm5_charge
 _atom_site_pbe_ddec_charge
 _atom_site_pbe_ddec_spin_density
 _atom_site_pbe_ddec_sum_bond_order
 _atom_site_pbe_magmom
Zn  Zn0  1  0.32365767  0.63336451  0.60017130  1  0  1.207695  0  1.668577  0  0  1.034449  0  2.147958  0  0  1.084641  0  2.081429  0  0  0.704541  0.998895  0  2.194187  0
Zn  Zn1  1  0.67634514  0.36663159  0.39983324  1  0  1.207702  0  1.668487  0  0  1.034479  0  2.147847  0  0  1.084672  0  2.081321  0  0  0.704561  0.998896  0  2.194122  0
H  H2  1  0.16261877  0.34870905  0.61456087  1  0  0.457371  0  0.838266  0  0  0.423995  0  0.904971  0  0  0.435088  0  0.888925  0  0  0.302564  0.416173  0  0.916269  0
H  H3  1  0.83738912  0.65128445  0.38544167  1  0  0.457387  0  0.838246  0  0  0.42402  0  0.904934  0  0  0.435114  0  0.88889  0  0  0.302581  0.416203  0  0.916223  0
H  H4  1  0.36126936  0.40830743  0.77398748  1  0  0.421857  0  0.878451  0  0  0.3821  0  0.956858  0  0  0.393776  0  0.939825  0  0  0.298353  0.37391  0  0.968761  0
H  H5  1  0.63873536  0.59169123  0.22602067  1  0  0.421841  0  0.878462  0  0  0.382074  0  0.956889  0  0  0.393746  0  0.93986  0  0  0.298333  0.373987  0  0.968642  0
H  H6  1  0.32400463  0.11334385  0.01349559  1  0  0.123958  0  0.928398  0  0  0.128567  0  0.99582  0  0  0.132932  0  0.99152  0  0  0.113808  0.125359  0  0.998904  0
H  H7  1  0.67600054  0.88665758  0.98649889  1  0  0.12395  0  0.928458  0  0  0.12854  0  0.995898  0  0  0.132904  0  0.991601  0  0  0.113809  0.125337  0  0.99897  0
H  H8  1  0.88988074  0.41613256  0.10759650  1  0  0.13426  0  0.971387  0  0  0.135342  0  1.044276  0  0  0.13972  0  1.040072  0  0  0.114324  0.132151  0  1.047175  0
H  H9  1  0.11012471  0.58387010  0.89240448  1  0  0.134264  0  0.971376  0  0  0.135335  0  1.044266  0  0  0.139711  0  1.040099  0  0  0.114323  0.132179  0  1.047106  0
H  H10  1  0.77790660  0.99592154  0.61717799  1  0  0.13743  0  0.938061  0  0  0.139106  0  1.007819  0  0  0.143576  0  1.002966  0  0  0.121733  0.135903  0  1.011175  0
H  H11  1  0.22208162  0.00407848  0.38282913  1  0  0.13741  0  0.938076  0  0  0.139074  0  1.00787  0  0  0.143545  0  1.003015  0  0  0.121716  0.135905  0  1.011186  0
C  C12  1  0.05977649  0.04165539  0.80112506  1  0  -0.062531  0  3.725297  0  0  -0.034968  0  3.960718  0  0  -0.047505  0  3.985011  0  0  -0.009432  -0.027273  0  3.944636  0
C  C13  1  0.94021981  0.95834346  0.19886782  1  0  -0.062512  0  3.725151  0  0  -0.034958  0  3.960584  0  0  -0.047492  0  3.984872  0  0  -0.009416  -0.027191  0  3.944372  0
C  C14  1  0.18226299  0.14231905  0.96740046  1  0  -0.017878  0  3.621752  0  0  -0.062639  0  3.875502  0  0  -0.055905  0  3.8923  0  0  -0.055331  -0.066452  0  3.863852  0
C  C15  1  0.81773635  0.85768109  0.03259350  1  0  -0.017806  0  3.621807  0  0  -0.062546  0  3.875557  0  0  -0.055813  0  3.892355  0  0  -0.055327  -0.066334  0  3.86384  0
C  C16  1  0.12234334  0.27774418  0.07770341  1  0  -0.076095  0  3.727482  0  0  -0.048395  0  3.965279  0  0  -0.062294  0  3.990769  0  0  -0.013702  -0.039645  0  3.948119  0
C  C17  1  0.87765601  0.72225592  0.92229419  1  0  -0.076072  0  3.727646  0  0  -0.048392  0  3.965454  0  0  -0.062286  0  3.990949  0  0  -0.013665  -0.039597  0  3.94822  0
C  C18  1  0.93937764  0.31363888  0.02181800  1  0  -0.063816  0  3.638198  0  0  -0.103971  0  3.895873  0  0  -0.098362  0  3.912508  0  0  -0.060075  -0.106916  0  3.884324  0
C  C19  1  0.06062247  0.68636513  0.97817969  1  0  -0.06374  0  3.638264  0  0  -0.103914  0  3.895865  0  0  -0.098327  0  3.912496  0  0  -0.060064  -0.106598  0  3.884472  0
C  C20  1  0.81991917  0.21056795  0.85567597  1  0  0.082134  0  3.689235  0  0  0.071649  0  3.951037  0  0  0.065538  0  3.972703  0  0  0.083215  0.07512  0  3.936598  0
C  C21  1  0.18007866  0.78943864  0.14432437  1  0  0.081893  0  3.68946  0  0  0.071623  0  3.951068  0  0  0.065512  0  3.972738  0  0  0.083225  0.073815  0  3.937369  0
C  C22  1  0.87610607  0.07581606  0.74421615  1  0  -0.042983  0  3.628437  0  0  -0.084078  0  3.885819  0  0  -0.077204  0  3.900156  0  0  -0.051206  -0.088147  0  3.876096  0
C  C23  1  0.12389125  0.92418794  0.25578331  1  0  -0.042926  0  3.628497  0  0  -0.0841  0  3.885878  0  0  -0.077226  0  3.900213  0  0  -0.051256  -0.08791  0  3.876319  0
C  C24  1  0.11487383  0.88896466  0.68482757  1  0  0.657824  0  3.912987  0  0  0.605482  0  4.205326  0  0  0.639953  0  4.199726  0  0  0.212943  0.582166  0  4.208274  0
C  C25  1  0.88512082  0.11103288  0.31516697  1  0  0.65775  0  3.913233  0  0  0.605439  0  4.205525  0  0  0.639909  0  4.199929  0  0  0.213005  0.582125  0  4.208461  0
C  C26  1  0.25189895  0.37711415  0.25946680  1  0  0.689199  0  3.869969  0  0  0.631079  0  4.164809  0  0  0.667675  0  4.157455  0  0  0.225027  0.606167  0  4.169121  0
C  C27  1  0.74810220  0.62288070  0.74053334  1  0  0.68925  0  3.870057  0  0  0.631144  0  4.164854  0  0  0.66773  0  4.157509  0  0  0.224955  0.606225  0  4.169211  0
N  N28  1  0.62699153  0.24282615  0.79469869  1  0  0.473965  0  3.930158  0  0  0.510583  0  4.208846  0  0  0.531322  0  4.219793  0  0  0.059801  0.49683  0  4.201443  0
N  N29  1  0.37300632  0.75718040  0.20530528  1  0  0.474071  0  3.930044  0  0  0.510516  0  4.20885  0  0  0.531248  0  4.219803  0  0  0.059921  0.499343  0  4.200936  0
O  O30  1  0.28279141  0.85600432  0.74390534  1  0  -0.646091  0  2.010496  0  0  -0.575915  0  2.281584  0  0  -0.606696  0  2.266754  0  0  -0.322656  -0.554239  0  2.290976  0
O  O31  1  0.71720275  0.14399059  0.25609076  1  0  -0.646074  0  2.010576  0  0  -0.575894  0  2.281632  0  0  -0.606674  0  2.266804  0  0  -0.322682  -0.554216  0  2.291024  0
O  O32  1  0.99639487  0.79954759  0.54015717  1  0  -0.628826  0  2.01556  0  0  -0.57127  0  2.246427  0  0  -0.5972  0  2.237597  0  0  -0.30733  -0.553106  0  2.251929  0
O  O33  1  0.00360028  0.20045256  0.45983704  1  0  -0.62884  0  2.015668  0  0  -0.57128  0  2.246494  0  0  -0.597212  0  2.237666  0  0  -0.307392  -0.55312  0  2.252013  0
O  O34  1  0.39626069  0.31410012  0.31816902  1  0  -0.66166  0  2.11743  0  0  -0.593591  0  2.410884  0  0  -0.620969  0  2.390856  0  0  -0.318635  -0.574446  0  2.424076  0
O  O35  1  0.60373906  0.68589474  0.68183080  1  0  -0.66173  0  2.117424  0  0  -0.593636  0  2.410855  0  0  -0.621  0  2.390805  0  0  -0.318618  -0.57449  0  2.424036  0
O  O36  1  0.20455590  0.51587129  0.34406853  1  0  -0.651245  0  2.089312  0  0  -0.577965  0  2.372701  0  0  -0.608021  0  2.357464  0  0  -0.31052  -0.557164  0  2.38283  0
O  O37  1  0.79544880  0.48412745  0.65593235  1  0  -0.651269  0  2.089404  0  0  -0.578008  0  2.372811  0  0  -0.608059  0  2.357577  0  0  -0.310472  -0.557159  0  2.382853  0
O  O38  1  0.57263026  0.35836155  0.89887514  1  0  -0.374035  0  1.82291  0  0  -0.338537  0  2.022221  0  0  -0.35534  0  2.020298  0  0  -0.12266  -0.327431  0  2.023629  0
O  O39  1  0.42737294  0.64164361  0.10113576  1  0  -0.374097  0  1.822853  0  0  -0.338553  0  2.022226  0  0  -0.355333  0  2.020289  0  0  -0.122722  -0.328854  0  2.023858  0
O  O40  1  0.52573483  0.15764942  0.64367777  1  0  -0.31779  0  1.800841  0  0  -0.300927  0  2.009609  0  0  -0.311338  0  2.005176  0  0  -0.101063  -0.294015  0  2.012852  0
O  O41  1  0.47425957  0.84236106  0.35632532  1  0  -0.317789  0  1.800841  0  0  -0.300877  0  2.009666  0  0  -0.311289  0  2.005238  0  0  -0.101127  -0.295315  0  2.012996  0
O  O42  1  0.25417734  0.45086179  0.70593718  1  0  -0.842707  0  1.93914  0  0  -0.770085  0  2.167095  0  0  -0.793372  0  2.127181  0  0  -0.563697  -0.75354  0  2.194546  0
O  O43  1  0.74582775  0.54913174  0.29406350  1  0  -0.842702  0  1.939132  0  0  -0.770096  0  2.167076  0  0  -0.793395  0  2.127193  0  0  -0.563691  -0.753528  0  2.194383  0
