# generated using pymatgen
data_UCuH8C14(NO5)2
_symmetry_space_group_name_H-M   'P 1'
_cell_length_a   8.30919496
_cell_length_b   11.92085978
_cell_length_c   17.38430075
_cell_angle_alpha   89.99976565
_cell_angle_beta   89.99996361
_cell_angle_gamma   107.06930325
_symmetry_Int_Tables_number   1
_chemical_formula_structural   UCuH8C14(NO5)2
_chemical_formula_sum   'U4 Cu4 H32 C56 N8 O40'
_cell_volume   1646.11101035
_cell_formula_units_Z   4
loop_
 _symmetry_equiv_pos_site_id
 _symmetry_equiv_pos_as_xyz
  1  'x, y, z'
loop_
 _atom_site_type_symbol
 _atom_site_label
 _atom_site_symmetry_multiplicity
 _atom_site_fract_x
 _atom_site_fract_y
 _atom_site_fract_z
 _atom_site_occupancy
 _atom_site_hle17_ddec_charge
 _atom_site_hle17_ddec_spin_density
 _atom_site_hle17_ddec_sum_bond_order
 _atom_site_hle17_magmom
 _atom_site_hse06_10hf_ddec_charge
 _atom_site_hse06_10hf_ddec_spin_density
 _atom_site_hse06_10hf_ddec_sum_bond_order
 _atom_site_hse06_10hf_magmom
 _atom_site_hse06_ddec_charge
 _atom_site_hse06_ddec_spin_density
 _atom_site_hse06_ddec_sum_bond_order
 _atom_site_hse06_magmom
 _atom_site_pbe_cm5_charge
 _atom_site_pbe_ddec_charge
 _atom_site_pbe_ddec_spin_density
 _atom_site_pbe_ddec_sum_bond_order
 _atom_site_pbe_magmom
U  U0  1  0.44940706  0.57624640  0.82946993  1  2.455584  -0.00371  4.157094  -0.002  2.524283  -0.000536  4.813255  0.0  2.634272  -0.000291  4.775414  0.0  2.153373  2.446563  -0.000998  4.839729  -0.001
U  U1  1  0.05059569  0.92375835  0.32947010  1  2.455572  -0.00374  4.157015  -0.002  2.524368  -0.000522  4.813138  0.0  2.634313  -0.000289  4.775357  0.0  2.153416  2.446616  -0.000998  4.83966  -0.001
U  U2  1  0.55059059  0.42376008  0.17053077  1  2.455831  0.003707  4.156922  0.002  2.52462  0.000536  4.812954  0.0  2.634458  0.000264  4.775329  0.0  2.1535  2.446841  0.001  4.839508  0.001
U  U3  1  0.94941195  0.07624894  0.67053003  1  2.455552  0.003706  4.157083  0.002  2.524509  0.000522  4.81312  0.0  2.634465  0.000273  4.775342  0.0  2.153458  2.446769  0.000998  4.839613  0.001
Cu  Cu4  1  0.34077337  0.78502607  0.53450122  1  0.823558  0.668554  1.857943  0.479  0.793049  0.786998  2.256929  0.614  0.879705  0.877767  2.19153  0.707  0.764548  0.735516  0.652072  2.304313  0.502
Cu  Cu5  1  0.15922480  0.71497281  0.03450366  1  0.823739  0.668562  1.857721  0.479  0.793105  0.787006  2.256876  0.614  0.879849  0.877764  2.191345  0.707  0.764564  0.735628  0.652101  2.304176  0.502
Cu  Cu6  1  0.65922723  0.21497335  0.46549891  1  0.823732  -0.668546  1.857738  -0.479  0.793208  -0.786992  2.25674  -0.614  0.879905  -0.877759  2.191313  -0.707  0.764584  0.735636  -0.652103  2.304123  -0.502
Cu  Cu7  1  0.84077378  0.28502750  0.96549704  1  0.823625  -0.668543  1.857767  -0.479  0.793059  -0.787  2.256791  -0.614  0.879744  -0.877744  2.191353  -0.707  0.764533  0.735574  -0.652082  2.304116  -0.502
H  H8  1  0.12734691  0.83698245  0.66397029  1  0.104138  0.001589  0.951908  0.003  0.111581  0.001317  1.015984  0.002  0.113803  0.000961  1.013114  0.002  0.129893  0.109467  0.001437  1.018623  0.002
H  H9  1  0.37265038  0.66301203  0.16397167  1  0.10409  0.00159  0.951977  0.003  0.111545  0.001317  1.016044  0.002  0.113745  0.000961  1.013197  0.002  0.12988  0.109421  0.001437  1.018693  0.002
H  H10  1  0.87265249  0.16301698  0.33602869  1  0.104177  -0.001589  0.951856  -0.003  0.111535  -0.001317  1.016019  -0.002  0.11382  -0.000961  1.013072  -0.002  0.129891  0.109444  -0.001437  1.018622  -0.002
H  H11  1  0.62734552  0.33698214  0.83602673  1  0.104137  -0.001589  0.951989  -0.003  0.111567  -0.001317  1.016078  -0.002  0.113797  -0.000961  1.013196  -0.002  0.129909  0.109463  -0.001437  1.018705  -0.002
H  H12  1  0.93886594  0.70886445  0.76359127  1  0.117796  0.000601  0.931646  0.001  0.130594  0.000565  0.982256  0.001  0.133298  0.000416  0.982291  0.0  0.122938  0.128392  0.000614  0.982715  0.001
H  H13  1  0.56113149  0.79113016  0.26359411  1  0.117847  0.000601  0.93168  0.001  0.130648  0.000565  0.982278  0.001  0.133351  0.000416  0.982316  0.0  0.12293  0.128432  0.000614  0.982756  0.001
H  H14  1  0.06113422  0.29113673  0.23640713  1  0.117814  -0.000601  0.931584  -0.001  0.130616  -0.000565  0.982184  -0.001  0.133318  -0.000416  0.982221  0.0  0.122945  0.128402  -0.000614  0.982653  -0.001
H  H15  1  0.43885967  0.20886141  0.73640832  1  0.117837  -0.000601  0.931679  -0.001  0.130634  -0.000565  0.982274  -0.001  0.133336  -0.000416  0.98231  0.0  0.122953  0.128417  -0.000614  0.98275  -0.001
H  H16  1  0.86786244  0.49193333  0.75053498  1  0.117539  0.00027  0.929693  0.0  0.133061  1.3e-05  0.977676  0.0  0.135674  -1.4e-05  0.975463  0.0  0.12066  0.130908  4.5e-05  0.979693  0.0
H  H17  1  0.63213245  0.00806111  0.25053744  1  0.117425  0.000271  0.929647  0.0  0.133005  1.3e-05  0.977584  0.0  0.135616  -1.4e-05  0.97537  0.0  0.120603  0.130845  4.5e-05  0.979606  0.0
H  H18  1  0.13213614  0.50806698  0.24946458  1  0.117468  -0.00027  0.929755  0.0  0.133022  -1.3e-05  0.977705  0.0  0.135633  1.4e-05  0.975493  0.0  0.120638  0.130865  -4.5e-05  0.979728  0.0
H  H19  1  0.36785866  0.99193309  0.74946844  1  0.117489  -0.00027  0.929732  0.0  0.133022  -1.3e-05  0.977699  0.0  0.135634  1.4e-05  0.975487  0.0  0.120653  0.130868  -4.5e-05  0.979718  0.0
H  H20  1  0.98661074  0.40733711  0.63941298  1  0.114238  0.000781  0.95329  0.001  0.125749  0.00065  1.009682  0.001  0.128056  0.000459  1.009617  0.001  0.117769  0.123966  0.000724  1.010025  0.001
H  H21  1  0.51338583  0.09265808  0.13941524  1  0.114251  0.000781  0.953336  0.001  0.125791  0.00065  1.009686  0.001  0.128098  0.000458  1.00962  0.001  0.117808  0.124006  0.000724  1.01003  0.001
H  H22  1  0.01338626  0.59266234  0.36058657  1  0.114258  -0.000781  0.953346  -0.001  0.125765  -0.00065  1.009729  -0.001  0.128072  -0.000459  1.009664  -0.001  0.11779  0.123983  -0.000724  1.010079  -0.001
H  H23  1  0.48661085  0.90733784  0.86058834  1  0.114243  -0.000781  0.953304  -0.001  0.125748  -0.00065  1.009699  -0.001  0.128056  -0.000458  1.009634  -0.001  0.117769  0.123966  -0.000724  1.010043  -0.001
H  H24  1  0.11320690  0.35080355  0.54525984  1  0.129005  0.000772  0.954342  0.001  0.135615  0.000648  1.018707  0.001  0.139419  0.000466  1.015943  0.001  0.117982  0.132577  0.000709  1.02119  0.001
H  H25  1  0.38678705  0.14919414  0.04525954  1  0.129106  0.000772  0.954272  0.001  0.135656  0.000648  1.018695  0.001  0.139459  0.000466  1.015929  0.001  0.118023  0.13262  0.000709  1.021175  0.001
H  H26  1  0.88678928  0.64919678  0.45474086  1  0.129037  -0.000772  0.954251  -0.001  0.135621  -0.000648  1.018659  -0.001  0.139425  -0.000466  1.015894  -0.001  0.118004  0.132585  -0.000709  1.021146  -0.001
H  H27  1  0.61320717  0.85080445  0.95474232  1  0.129005  -0.000771  0.954284  -0.001  0.135599  -0.000648  1.018675  -0.001  0.139403  -0.000466  1.015909  -0.001  0.117976  0.132561  -0.000709  1.021159  -0.001
H  H28  1  0.27189191  0.30758299  0.43516975  1  0.117051  0.000259  0.929131  0.0  0.127807  2e-05  0.985794  0.0  0.130983  -7e-06  0.983419  0.0  0.115815  0.125034  4.9e-05  0.988064  0.0
H  H29  1  0.22809999  0.19241116  0.93516759  1  0.117127  0.000259  0.929071  0.0  0.127844  2e-05  0.985755  0.0  0.131023  -7e-06  0.983378  0.0  0.115842  0.125071  4.9e-05  0.988038  0.0
H  H30  1  0.72810394  0.69241382  0.56483211  1  0.117094  -0.00026  0.929037  0.0  0.127826  -2e-05  0.985723  0.0  0.131003  7e-06  0.983347  0.0  0.115822  0.125051  -4.9e-05  0.988016  0.0
H  H31  1  0.77189308  0.80758479  0.06483138  1  0.117042  -0.000259  0.929135  0.0  0.127801  -2e-05  0.9858  0.0  0.130977  7e-06  0.983426  0.0  0.115816  0.125027  -4.9e-05  0.988078  0.0
H  H32  1  0.46637498  0.47615400  0.36068044  1  0.120559  0.000524  0.965975  0.001  0.125358  0.000462  1.032593  0.001  0.129262  0.000343  1.030676  0.0  0.116728  0.122313  0.000497  1.034291  0.001
H  H33  1  0.03362051  0.02383712  0.86068111  1  0.120572  0.000523  0.966074  0.001  0.125424  0.000462  1.03261  0.001  0.129328  0.000343  1.030693  0.0  0.116743  0.122384  0.000496  1.034306  0.001
H  H34  1  0.53362011  0.52384106  0.63932084  1  0.120613  -0.000524  0.966015  -0.001  0.125446  -0.000462  1.032561  -0.001  0.129352  -0.000343  1.030642  0.0  0.11675  0.122405  -0.000497  1.034264  -0.001
H  H35  1  0.96638101  0.97615613  0.13931786  1  0.120563  -0.000523  0.965986  -0.001  0.125375  -0.000462  1.032591  -0.001  0.12928  -0.000343  1.030674  0.0  0.116716  0.122332  -0.000497  1.034286  -0.001
H  H36  1  0.49446183  0.68204347  0.40461633  1  0.106672  0.001453  0.918125  0.002  0.116056  0.001203  0.97457  0.002  0.118839  0.000878  0.971662  0.002  0.131816  0.113438  0.001316  0.977151  0.002
H  H37  1  0.00553564  0.81794936  0.90462079  1  0.106695  0.001454  0.918061  0.002  0.116034  0.001203  0.97459  0.002  0.118816  0.000879  0.971688  0.002  0.131805  0.113456  0.001316  0.97712  0.002
H  H38  1  0.50553642  0.31795332  0.59538264  1  0.106715  -0.001453  0.918005  -0.002  0.116031  -0.001203  0.974548  -0.002  0.118813  -0.000878  0.971644  -0.002  0.13181  0.11344  -0.001316  0.977092  -0.002
H  H39  1  0.99446791  0.18204300  0.09538048  1  0.10668  -0.001454  0.918064  -0.002  0.115988  -0.001203  0.97461  -0.002  0.11877  -0.000878  0.971704  -0.002  0.131782  0.113402  -0.001316  0.977148  -0.002
C  C40  1  0.54416005  0.77229614  0.69198928  1  0.537335  -0.000338  3.92129  0.0  0.506076  -0.000217  4.218874  0.0  0.53739  -0.000187  4.211555  0.0  0.222228  0.48507  -0.000203  4.221876  0.0
C  C41  1  0.95584227  0.72770949  0.19199103  1  0.537359  -0.000339  3.921286  0.0  0.506109  -0.000215  4.218843  0.0  0.537418  -0.00019  4.211542  0.0  0.22223  0.485097  -0.000203  4.221846  0.0
C  C42  1  0.45583853  0.22770418  0.30800855  1  0.537293  0.000338  3.921237  0.0  0.506048  0.000215  4.218801  0.0  0.537358  0.000188  4.211487  0.0  0.22222  0.485032  0.000202  4.221799  0.0
C  C43  1  0.04417256  0.27229775  0.80800738  1  0.537613  0.000339  3.920895  0.0  0.506423  0.000215  4.21837  0.0  0.537718  0.000189  4.211081  0.0  0.222321  0.485412  0.000203  4.221378  0.0
C  C44  1  0.66945651  0.82768376  0.75745514  1  0.580316  0.00011  3.875677  0.0  0.550983  6.7e-05  4.168239  0.0  0.585986  2.3e-05  4.154893  0.0  0.241635  0.526854  0.000116  4.17635  0.0
C  C45  1  0.83054994  0.67232050  0.25745766  1  0.580325  0.00011  3.875724  0.0  0.550998  6.9e-05  4.168292  0.0  0.586  2.2e-05  4.154948  0.0  0.24167  0.526871  0.000116  4.176401  0.0
C  C46  1  0.33054119  0.17232008  0.24254038  1  0.580344  -0.00011  3.875473  0.0  0.550991  -6.9e-05  4.168069  0.0  0.58599  -2.2e-05  4.154721  0.0  0.241655  0.526864  -0.000116  4.176174  0.0
C  C47  1  0.16946691  0.32768583  0.74254132  1  0.580206  -0.000109  3.875569  0.0  0.55085  -6.8e-05  4.16813  0.0  0.585857  -2.3e-05  4.154786  0.0  0.241556  0.526726  -0.000116  4.176235  0.0
C  C48  1  0.54892300  0.56369842  0.00985112  1  0.564281  -6.7e-05  3.910945  0.0  0.527248  -7.9e-05  4.217952  0.0  0.562169  -7.1e-05  4.205614  0.0  0.231075  0.502729  -7.7e-05  4.226294  0.0
C  C49  1  0.95107447  0.93630937  0.50984936  1  0.564169  -6.6e-05  3.911229  0.0  0.527072  -7.6e-05  4.218254  0.0  0.561994  -7.2e-05  4.205925  0.0  0.231004  0.50256  -7.7e-05  4.226598  0.0
C  C50  1  0.45108534  0.43631327  0.99014959  1  0.564302  6.7e-05  3.911035  0.0  0.527223  7.9e-05  4.218076  0.0  0.562144  6.9e-05  4.205741  0.0  0.231125  0.502705  7.6e-05  4.226413  0.0
C  C51  1  0.04893000  0.06369618  0.49014961  1  0.564255  6.8e-05  3.911168  0.0  0.527169  8.1e-05  4.218204  0.0  0.562092  6.7e-05  4.205871  0.0  0.231037  0.502643  7.7e-05  4.226558  0.0
C  C52  1  0.43956579  0.02147783  0.52544526  1  0.532477  0.001184  3.873075  0.002  0.496752  0.000471  4.163898  0.001  0.531036  0.000441  4.161601  0.001  0.220312  0.471629  0.000426  4.165161  0.001
C  C53  1  0.06043146  0.47851909  0.02544526  1  0.532565  0.001183  3.873046  0.002  0.496811  0.000468  4.163856  0.001  0.531094  0.000444  4.161571  0.001  0.220375  0.471686  0.000429  4.165125  0.001
C  C54  1  0.56043688  0.97851805  0.47455602  1  0.532572  -0.001183  3.872994  -0.002  0.496792  -0.000472  4.163856  -0.001  0.531075  -0.000446  4.16156  -0.001  0.220312  0.471669  -0.000431  4.16512  -0.001
C  C55  1  0.93956238  0.52147862  0.97455659  1  0.532561  -0.001184  3.87292  -0.002  0.496831  -0.000474  4.163735  -0.001  0.531113  -0.000441  4.161447  -0.001  0.220345  0.47171  -0.000428  4.165006  -0.001
C  C56  1  0.09445712  0.74145806  0.66183804  1  0.145956  -0.006072  3.644167  -0.007  0.116726  -0.000492  3.899046  -0.002  0.127481  -0.001608  3.916355  -0.003  0.065373  0.109446  0.000353  3.888523  -0.001
C  C57  1  0.40554013  0.75853908  0.16183857  1  0.145993  -0.00607  3.644148  -0.007  0.116767  -0.000492  3.899011  -0.002  0.127543  -0.001607  3.916332  -0.003  0.065378  0.109491  0.000354  3.888486  -0.001
C  C58  1  0.90554223  0.25854401  0.33816151  1  0.145947  0.006066  3.644218  0.007  0.116789  0.000494  3.899087  0.002  0.127499  0.001602  3.916378  0.003  0.065396  0.109486  -0.000354  3.888536  0.001
C  C59  1  0.59445611  0.24145861  0.83816098  1  0.145933  0.006065  3.644193  0.007  0.116703  0.000492  3.89907  0.002  0.127455  0.001606  3.91638  0.003  0.065327  0.109416  -0.000353  3.888539  0.001
C  C60  1  0.98964611  0.67008697  0.71621179  1  -0.088436  0.010004  3.663164  0.011  -0.101117  0.004764  3.909347  0.006  -0.109166  0.004219  3.929707  0.005  -0.059773  -0.096139  0.004641  3.896399  0.006
C  C61  1  0.51035032  0.82990797  0.21621395  1  -0.088619  0.009997  3.663304  0.011  -0.101323  0.004764  3.909556  0.006  -0.109371  0.004219  3.929903  0.005  -0.059824  -0.096331  0.004642  3.896596  0.006
C  C62  1  0.01035165  0.32991423  0.28378777  1  -0.088466  -0.009997  3.663161  -0.011  -0.101147  -0.004768  3.909318  -0.006  -0.1092  -0.004211  3.929694  -0.005  -0.059788  -0.096164  -0.004642  3.89637  -0.006
C  C63  1  0.48964161  0.17008535  0.78378848  1  -0.088544  -0.009995  3.663239  -0.011  -0.101227  -0.004766  3.909419  -0.006  -0.109276  -0.004216  3.929776  -0.005  -0.059818  -0.096239  -0.004642  3.896476  -0.006
C  C64  1  0.95071968  0.54857716  0.70871267  1  0.023138  -0.007461  3.667385  -0.007  0.004207  -0.002671  3.912711  -0.003  0.009611  -0.002872  3.92906  -0.003  -0.046874  0.000441  -0.002246  3.902349  -0.002
C  C65  1  0.54927444  0.95141520  0.20871391  1  0.023365  -0.007455  3.667229  -0.007  0.004377  -0.00267  3.912586  -0.003  0.009785  -0.002873  3.92894  -0.003  -0.046812  0.000612  -0.002246  3.902213  -0.002
C  C66  1  0.04927732  0.45142228  0.29128689  1  0.023165  0.007453  3.667437  0.007  0.004203  0.002674  3.912765  0.003  0.009609  0.002867  3.929118  0.003  -0.046924  0.000432  0.002246  3.902401  0.002
C  C67  1  0.45071552  0.04857637  0.79128910  1  0.023223  0.007453  3.667393  0.007  0.00429  0.002674  3.912696  0.003  0.009697  0.00287  3.929047  0.003  -0.046872  0.000522  0.002246  3.902332  0.002
C  C68  1  0.01705752  0.50176448  0.64724189  1  -0.128422  0.006182  3.684804  0.006  -0.14779  0.002725  3.931675  0.003  -0.155339  0.002501  3.953055  0.003  -0.06934  -0.143076  0.002608  3.917638  0.003
C  C69  1  0.48294017  0.99823363  0.14724287  1  -0.128361  0.006175  3.684764  0.006  -0.147777  0.002725  3.931622  0.003  -0.155331  0.002501  3.953014  0.003  -0.069347  -0.143063  0.002608  3.917575  0.003
C  C70  1  0.98294144  0.49823671  0.35275766  1  -0.128405  -0.006175  3.684859  -0.006  -0.147777  -0.002727  3.931736  -0.003  -0.155327  -0.002498  3.953115  -0.003  -0.069321  -0.143071  -0.002608  3.917709  -0.003
C  C71  1  0.51705487  0.00176407  0.85276013  1  -0.128412  -0.006172  3.684775  -0.006  -0.147786  -0.002728  3.931612  -0.003  -0.155328  -0.002499  3.95297  -0.003  -0.069326  -0.14308  -0.002608  3.917588  -0.003
C  C72  1  0.12594361  0.57762899  0.59610425  1  0.176661  -0.003159  3.759182  -0.004  0.172834  0.000251  4.006045  0.0  0.181987  -0.00081  4.025654  -0.002  0.121559  0.166993  0.000924  3.992862  0.0
C  C73  1  0.37405555  0.92236682  0.09610547  1  0.176417  -0.003154  3.759346  -0.004  0.172688  0.000252  4.00609  0.0  0.181837  -0.000809  4.025707  -0.002  0.121477  0.166843  0.000925  3.992909  0.0
C  C74  1  0.87405421  0.42236957  0.40389530  1  0.176647  0.003155  3.759165  0.004  0.172838  -0.000251  4.006  0.0  0.181992  0.000809  4.025607  0.002  0.121541  0.166988  -0.000925  3.992811  0.0
C  C75  1  0.62594390  0.07762996  0.90389581  1  0.176597  0.003152  3.759161  0.004  0.172842  -0.00025  4.005941  0.0  0.181995  0.000809  4.025555  0.002  0.121532  0.167  -0.000924  3.992755  0.0
C  C76  1  0.21392398  0.53953390  0.53222597  1  0.168824  -0.002447  3.753995  -0.003  0.165408  0.000416  4.00075  0.0  0.173074  -0.000532  4.021803  -0.001  0.11824  0.160388  0.00099  3.986715  0.001
C  C77  1  0.28607267  0.96046148  0.03222768  1  0.168994  -0.002457  3.75391  -0.003  0.165533  0.000417  4.000595  0.0  0.173202  -0.000535  4.021655  -0.001  0.118384  0.160506  0.000989  3.986573  0.001
C  C78  1  0.78607264  0.46046467  0.46777416  1  0.168863  0.002449  3.753969  0.003  0.165428  -0.000416  4.000717  0.0  0.173095  0.000534  4.021773  0.001  0.118276  0.160414  -0.00099  3.98667  -0.001
C  C79  1  0.71392563  0.03953267  0.96777359  1  0.168821  0.00246  3.754035  0.003  0.165332  -0.000417  4.000831  0.0  0.172996  0.000534  4.02189  0.001  0.118194  0.160313  -0.00099  3.986793  -0.001
C  C80  1  0.19486972  0.42286485  0.51243069  1  -0.124606  0.005465  3.661647  0.006  -0.145176  0.002469  3.912131  0.003  -0.151449  0.002264  3.930703  0.002  -0.069597  -0.141198  0.002351  3.90013  0.002
C  C81  1  0.30512753  0.07713479  0.01243175  1  -0.12467  0.005477  3.661546  0.006  -0.14518  0.00247  3.912003  0.003  -0.151458  0.002265  3.930585  0.002  -0.06966  -0.1412  0.002351  3.900005  0.002
C  C82  1  0.80512570  0.57713372  0.48756944  1  -0.124585  -0.005468  3.661555  -0.006  -0.145134  -0.00247  3.912045  -0.003  -0.15141  -0.002265  3.930623  -0.002  -0.069606  -0.141161  -0.002351  3.900055  -0.002
C  C83  1  0.69487105  0.92286552  0.98756953  1  -0.124577  -0.005482  3.661603  -0.006  -0.145103  -0.00247  3.912103  -0.003  -0.151375  -0.002264  3.930675  -0.002  -0.069545  -0.141129  -0.002351  3.900106  -0.002
C  C84  1  0.28587684  0.39872771  0.45040003  1  0.012573  -0.006942  3.666891  -0.007  -0.006628  -0.00259  3.916293  -0.003  -0.00154  -0.002717  3.933046  -0.003  -0.057193  -0.010246  -0.00225  3.905731  -0.002
C  C85  1  0.21411380  0.10126635  0.95039986  1  0.012422  -0.006954  3.666748  -0.007  -0.006771  -0.002593  3.916138  -0.003  -0.001684  -0.002716  3.93289  -0.003  -0.05727  -0.010392  -0.002251  3.905583  -0.002
C  C86  1  0.71411901  0.60126911  0.54960068  1  0.012547  0.006946  3.666842  0.007  -0.006662  0.002591  3.916267  0.003  -0.001576  0.002717  3.933025  0.003  -0.057216  -0.01029  0.002251  3.905723  0.002
C  C87  1  0.78588009  0.89872871  0.04960027  1  0.012624  0.006959  3.666862  0.007  -0.006622  0.002592  3.916297  0.003  -0.001534  0.002716  3.933051  0.003  -0.057212  -0.010244  0.00225  3.905736  0.002
C  C88  1  0.39321496  0.49138214  0.40934790  1  -0.107806  0.008959  3.693743  0.01  -0.120675  0.004354  3.943579  0.005  -0.128772  0.00384  3.965033  0.005  -0.072006  -0.11538  0.004223  3.929536  0.005
C  C89  1  0.10677237  0.00860694  0.90934917  1  -0.107835  0.008969  3.693709  0.01  -0.120694  0.004355  3.943513  0.005  -0.128791  0.003839  3.964964  0.005  -0.071973  -0.115411  0.004223  3.929496  0.005
C  C90  1  0.60677811  0.50861381  0.59065223  1  -0.107979  -0.008961  3.69372  -0.01  -0.120826  -0.004354  3.943503  -0.005  -0.128924  -0.003841  3.964948  -0.005  -0.072033  -0.115544  -0.004223  3.92949  -0.005
C  C91  1  0.89322043  0.99138285  0.09064923  1  -0.107918  -0.008978  3.693806  -0.01  -0.12076  -0.004354  3.943612  -0.005  -0.128858  -0.003841  3.965063  -0.005  -0.072014  -0.115467  -0.004223  3.92958  -0.005
C  C92  1  0.40890805  0.60587818  0.43268891  1  0.141074  -0.005549  3.669727  -0.007  0.114  -0.000557  3.922981  -0.002  0.123803  -0.001535  3.940748  -0.003  0.060404  0.107542  0.000174  3.911951  -0.001
C  C93  1  0.09109006  0.89411622  0.93269313  1  0.141062  -0.005556  3.669697  -0.007  0.113925  -0.000553  3.923011  -0.002  0.123727  -0.001536  3.940783  -0.003  0.060383  0.107434  0.000174  3.911973  -0.001
C  C94  1  0.59108862  0.39411775  0.56731007  1  0.141115  0.00555  3.66947  0.007  0.114041  0.000556  3.922746  0.002  0.123846  0.001535  3.940511  0.003  0.060394  0.107558  -0.000174  3.911706  0.001
C  C95  1  0.90891381  0.10587965  0.06730757  1  0.141104  0.005563  3.669696  0.007  0.114064  0.000555  3.922936  0.002  0.123869  0.001537  3.9407  0.003  0.060424  0.10758  -0.000174  3.911899  0.001
N  N96  1  0.16096613  0.69556925  0.60380125  1  -0.32251  0.08361  3.33259  0.104  -0.281849  0.060413  3.632216  0.08  -0.312785  0.051495  3.650785  0.071  -0.346383  -0.263406  0.058216  3.621996  0.075
N  N97  1  0.33903021  0.80442565  0.10380167  1  -0.322403  0.083602  3.332608  0.104  -0.281765  0.060411  3.632204  0.08  -0.31272  0.051495  3.650772  0.071  -0.346337  -0.263335  0.058217  3.621972  0.075
N  N98  1  0.83903168  0.30442931  0.39619945  1  -0.322533  -0.083599  3.332671  -0.104  -0.281875  -0.060412  3.632257  -0.08  -0.312826  -0.05149  3.650861  -0.071  -0.346362  -0.263424  -0.058216  3.622023  -0.075
N  N99  1  0.66096684  0.19557115  0.89619731  1  -0.322443  -0.083599  3.332552  -0.104  -0.281782  -0.060411  3.632132  -0.08  -0.312727  -0.051493  3.650706  -0.071  -0.346313  -0.26335  -0.058214  3.621914  -0.075
N  N100  1  0.32114958  0.62860268  0.49239218  1  -0.333873  0.078652  3.348684  0.098  -0.293842  0.056756  3.653459  0.075  -0.323861  0.048675  3.671402  0.068  -0.349909  -0.27609  0.054317  3.643762  0.07
N  N101  1  0.17885024  0.87139306  0.99239644  1  -0.333993  0.078657  3.34867  0.098  -0.293857  0.056752  3.653384  0.075  -0.323897  0.048678  3.671331  0.068  -0.350007  -0.276117  0.054316  3.643697  0.07
N  N102  1  0.67884906  0.37139500  0.50760622  1  -0.333989  -0.078655  3.348747  -0.098  -0.293911  -0.056759  3.653475  -0.075  -0.323942  -0.048676  3.671429  -0.068  -0.349968  -0.27615  -0.054318  3.643764  -0.07
N  N103  1  0.82115243  0.12860282  0.00760599  1  -0.333874  -0.078661  3.34868  -0.098  -0.293788  -0.056753  3.653401  -0.075  -0.323813  -0.048677  3.671345  -0.068  -0.349877  -0.27605  -0.054317  3.643715  -0.07
O  O104  1  0.27757441  0.63158861  0.85808823  1  -0.720414  -0.000283  1.531494  0.0  -0.741204  -0.000494  1.82001  0.0  -0.761889  -0.000487  1.806513  0.0  -0.770677  -0.729598  -0.000422  1.830276  0.0
O  O105  1  0.22242980  0.86841682  0.35809023  1  -0.720348  -0.000281  1.531521  0.0  -0.741196  -0.000495  1.820072  0.0  -0.761869  -0.000484  1.806578  0.0  -0.77066  -0.729583  -0.000423  1.830333  0.0
O  O106  1  0.72242772  0.36841432  0.14191017  1  -0.720471  0.000282  1.531238  0.0  -0.741318  0.000493  1.819767  0.0  -0.761966  0.000486  1.806283  0.0  -0.770655  -0.729699  0.000422  1.830038  0.0
O  O107  1  0.77758721  0.13160097  0.64191335  1  -0.720374  0.000281  1.531585  0.0  -0.741239  0.000494  1.820099  0.0  -0.761921  0.000485  1.806607  0.0  -0.770675  -0.729618  0.000422  1.830338  0.0
O  O108  1  0.62531114  0.52515738  0.80047428  1  -0.713245  -4.7e-05  1.586662  0.0  -0.725343  -0.000133  1.878102  0.0  -0.746015  -9.2e-05  1.865227  0.0  -0.761002  -0.713207  -0.00015  1.887773  0.0
O  O109  1  0.87469038  0.97484398  0.30047535  1  -0.713238  -4.6e-05  1.586641  0.0  -0.725379  -0.000133  1.878086  0.0  -0.746046  -9.2e-05  1.865225  0.0  -0.761039  -0.713238  -0.00015  1.887758  0.0
O  O110  1  0.37469256  0.47484641  0.19952413  1  -0.71328  4.6e-05  1.586872  0.0  -0.725419  0.000132  1.878337  0.0  -0.746052  9.3e-05  1.865483  0.0  -0.761118  -0.713264  0.00015  1.887997  0.0
O  O111  1  0.12531185  0.02515366  0.69952190  1  -0.713199  4.7e-05  1.586647  0.0  -0.725389  0.000133  1.878094  0.0  -0.746055  9.1e-05  1.865223  0.0  -0.761043  -0.713251  0.00015  1.887762  0.0
O  O112  1  0.45224655  0.66758873  0.70844912  1  -0.637024  -9e-06  2.086595  0.0  -0.629011  -0.000142  2.356248  0.0  -0.664724  -0.000141  2.35581  0.0  -0.370911  -0.602504  -0.000113  2.354518  0.0
O  O113  1  0.04776118  0.83241329  0.20844839  1  -0.636999  -7e-06  2.086696  0.0  -0.628983  -0.000141  2.356322  0.0  -0.664686  -0.000143  2.355889  0.0  -0.370852  -0.602476  -0.000113  2.354593  0.0
O  O114  1  0.54775715  0.33241507  0.29155044  1  -0.637031  6e-06  2.086444  0.0  -0.629043  0.000142  2.356107  0.0  -0.664736  0.000141  2.355677  0.0  -0.370924  -0.602534  0.000113  2.354373  0.0
O  O115  1  0.95226014  0.16758949  0.79155174  1  -0.637164  6e-06  2.086465  0.0  -0.629201  0.000141  2.356078  0.0  -0.664902  0.000142  2.355646  0.0  -0.371021  -0.602698  0.000113  2.354357  0.0
O  O116  1  0.54000005  0.82917359  0.63271330  1  -0.525324  0.000533  2.059002  0.002  -0.507151  0.000271  2.313663  0.001  -0.533892  -0.000201  2.305137  0.001  -0.275592  -0.487766  0.000737  2.318511  0.002
O  O117  1  0.95999380  0.67082899  0.13271061  1  -0.525408  0.000533  2.058874  0.002  -0.507229  0.000268  2.313532  0.001  -0.533984  -0.000196  2.304999  0.001  -0.275662  -0.487855  0.000738  2.31838  0.002
O  O118  1  0.45999335  0.17082589  0.36728395  1  -0.525334  -0.000532  2.058972  -0.002  -0.507162  -0.000268  2.313616  -0.001  -0.533903  0.000199  2.305084  -0.001  -0.275608  -0.487783  -0.000738  2.318462  -0.002
O  O119  1  0.04001340  0.32918007  0.86728492  1  -0.525561  -0.000532  2.058699  -0.002  -0.507427  -0.000268  2.313331  -0.001  -0.534158  0.000197  2.304795  -0.001  -0.275685  -0.488051  -0.000737  2.31819  -0.002
O  O120  1  0.64519791  0.77117877  0.82043792  1  -0.610386  0.000222  2.065469  0.0  -0.593161  5.1e-05  2.321911  0.0  -0.623725  2.1e-05  2.315088  0.0  -0.340897  -0.570698  9.3e-05  2.325354  0.0
O  O121  1  0.85480947  0.72882506  0.32043854  1  -0.61037  0.000223  2.065512  0.0  -0.593162  5.1e-05  2.321964  0.0  -0.623719  2.1e-05  2.315144  0.0  -0.340914  -0.570701  9.3e-05  2.325412  0.0
O  O122  1  0.35481098  0.22882587  0.17955761  1  -0.61043  -0.000223  2.065292  0.0  -0.593211  -5.1e-05  2.32175  0.0  -0.623753  -2.1e-05  2.314928  0.0  -0.340929  -0.570749  -9.2e-05  2.325198  0.0
O  O123  1  0.14520416  0.27118219  0.67955929  1  -0.610295  -0.000222  2.065408  0.0  -0.593088  -5e-05  2.321864  0.0  -0.623645  -2.1e-05  2.31504  0.0  -0.340838  -0.570628  -9.2e-05  2.325312  0.0
O  O124  1  0.78373761  0.92243669  0.74660267  1  -0.61511  2.3e-05  2.123073  0.0  -0.598682  -0.0  2.389599  0.0  -0.630271  -6e-06  2.381156  0.0  -0.358714  -0.575604  4e-06  2.394235  0.0
O  O125  1  0.71626132  0.57756683  0.24660377  1  -0.615102  2.3e-05  2.122994  0.0  -0.59868  -1e-06  2.389509  0.0  -0.63025  -6e-06  2.381072  0.0  -0.358706  -0.575595  4e-06  2.394144  0.0
O  O126  1  0.21625160  0.07757250  0.25339055  1  -0.615037  -2.2e-05  2.122971  0.0  -0.598611  1e-06  2.38954  0.0  -0.630194  6e-06  2.3811  0.0  -0.358692  -0.575536  -4e-06  2.394172  0.0
O  O127  1  0.28375073  0.42243955  0.75339349  1  -0.614945  -2.2e-05  2.122821  0.0  -0.598511  0.0  2.389375  0.0  -0.630102  6e-06  2.380933  0.0  -0.358606  -0.575433  -4e-06  2.394005  0.0
O  O128  1  0.56393180  0.63849584  0.95675881  1  -0.585005  -7.8e-05  2.047018  0.0  -0.568223  -0.000161  2.306792  0.0  -0.598371  -0.000153  2.299056  0.0  -0.332142  -0.546355  -0.000144  2.311517  0.0
O  O129  1  0.93606606  0.86151417  0.45675904  1  -0.585053  -7.9e-05  2.047161  0.0  -0.568073  -0.000162  2.306758  0.0  -0.598214  -0.000153  2.299024  0.0  -0.332081  -0.546205  -0.000144  2.311484  0.0
O  O130  1  0.43607376  0.36151499  0.04324074  1  -0.585146  8e-05  2.046896  0.0  -0.568202  0.00016  2.306511  0.0  -0.598328  0.000157  2.298779  0.0  -0.332139  -0.546326  0.000144  2.311237  0.0
O  O131  1  0.06394479  0.13849221  0.54324224  1  -0.584973  7.8e-05  2.047057  0.0  -0.568183  0.00016  2.306847  0.0  -0.59833  0.000156  2.299118  0.0  -0.332101  -0.546314  0.000144  2.31157  0.0
O  O132  1  0.60612157  0.58240248  0.07768010  1  -0.595334  -8.9e-05  2.061713  0.0  -0.583536  -3.6e-05  2.326989  0.0  -0.616457  -3.1e-05  2.32297  0.0  -0.335841  -0.559742  -3.6e-05  2.32887  0.0
O  O133  1  0.89386717  0.91760755  0.57767784  1  -0.595257  -8.8e-05  2.061783  0.0  -0.583473  -3.8e-05  2.327143  0.0  -0.616412  -3e-05  2.323126  0.0  -0.335764  -0.559669  -3.6e-05  2.328984  0.0
O  O134  1  0.39388721  0.41760744  0.92232003  1  -0.595239  8.7e-05  2.061887  0.0  -0.583452  3.6e-05  2.327223  0.0  -0.616412  3.2e-05  2.323251  0.0  -0.335817  -0.559675  3.6e-05  2.329132  0.0
O  O135  1  0.10613250  0.08239803  0.42232229  1  -0.595276  8.8e-05  2.061821  0.0  -0.583477  3.5e-05  2.327153  0.0  -0.616417  3.5e-05  2.323142  0.0  -0.33581  -0.559669  3.6e-05  2.329001  0.0
O  O136  1  0.31702986  0.94418513  0.55543483  1  -0.50305  0.051568  2.072854  0.068  -0.479899  0.039492  2.341288  0.057  -0.521759  0.033224  2.335453  0.05  -0.277923  -0.446966  0.036896  2.343652  0.051
O  O137  1  0.18296385  0.55581187  0.05543887  1  -0.503167  0.051571  2.072806  0.068  -0.479972  0.039495  2.34124  0.057  -0.521853  0.033223  2.335402  0.05  -0.277959  -0.44704  0.036891  2.343587  0.051
O  O138  1  0.68297041  0.05581077  0.44456415  1  -0.503108  -0.051568  2.072793  -0.068  -0.479887  -0.039497  2.341153  -0.057  -0.521757  -0.033218  2.335331  -0.05  -0.277906  -0.446942  -0.036886  2.343505  -0.051
O  O139  1  0.81702758  0.44418585  0.94456471  1  -0.503093  -0.051572  2.072746  -0.068  -0.479905  -0.039497  2.341127  -0.057  -0.521768  -0.033226  2.335289  -0.05  -0.277933  -0.446976  -0.036895  2.343489  -0.051
O  O140  1  0.46973506  0.13113090  0.53355414  1  -0.478355  -0.063542  2.059156  -0.084  -0.454255  -0.048375  2.317761  -0.069  -0.495974  -0.040141  2.311297  -0.06  -0.277617  -0.421408  -0.045879  2.320503  -0.064
O  O141  1  0.03026455  0.36886595  0.03355331  1  -0.478381  -0.063542  2.059208  -0.084  -0.454234  -0.048375  2.317784  -0.069  -0.495952  -0.040146  2.311316  -0.06  -0.277627  -0.421401  -0.045891  2.32053  -0.064
O  O142  1  0.53026761  0.86886498  0.46644714  1  -0.478412  0.063541  2.05918  0.084  -0.454287  0.048378  2.31779  0.069  -0.495999  0.040144  2.311321  0.06  -0.277632  -0.421442  0.045893  2.320537  0.064
O  O143  1  0.96973087  0.63113263  0.96644797  1  -0.478327  0.063544  2.059096  0.084  -0.454227  0.048378  2.317718  0.069  -0.495958  0.040144  2.311246  0.06  -0.277607  -0.421397  0.045885  2.320462  0.064
