# generated using pymatgen
data_Zn4H64C86N20O9
_symmetry_space_group_name_H-M   'P 1'
_cell_length_a   20.26915207
_cell_length_b   20.72896320
_cell_length_c   20.32786274
_cell_angle_alpha   108.30911366
_cell_angle_beta   106.21319706
_cell_angle_gamma   112.91285675
_symmetry_Int_Tables_number   1
_chemical_formula_structural   Zn4H64C86N20O9
_chemical_formula_sum   'Zn4 H64 C86 N20 O9'
_cell_volume   6634.91605835
_cell_formula_units_Z   1
loop_
 _symmetry_equiv_pos_site_id
 _symmetry_equiv_pos_as_xyz
  1  'x, y, z'
loop_
 _atom_site_type_symbol
 _atom_site_label
 _atom_site_symmetry_multiplicity
 _atom_site_fract_x
 _atom_site_fract_y
 _atom_site_fract_z
 _atom_site_occupancy
 _atom_site_pbe_bader_charge
 _atom_site_pbe_bader_spin_density
 _atom_site_pbe_cm5_charge
 _atom_site_pbe_ddec_charge
 _atom_site_pbe_ddec_spin_density
 _atom_site_pbe_ddec_sum_bond_order
 _atom_site_pbe_magmom
Zn  Zn0  1  0.58885262  0.60299688  0.48276005  1  1.195193  0  0.742186  0.632518  0  2.414197  0
Zn  Zn1  1  0.39153849  0.38472897  0.50398497  1  1.191176  0  0.751512  0.599158  0  2.542376  0
Zn  Zn2  1  0.48643205  0.58460425  0.58521532  1  1.207197  0  0.750645  0.671474  0  2.361587  0
Zn  Zn3  1  0.47307758  0.34899990  0.37848788  1  1.252489  0  0.727181  0.670866  0  2.392127  0
H  H4  1  0.75425623  0.77875208  0.61292505  1  0.077054  0  0.114746  0.107023  0  1.002414  0
H  H5  1  0.21943349  0.33966866  0.50301858  1  0.100807  0  0.122673  0.115024  0  0.983571  0
H  H6  1  0.24346547  0.38939670  0.38679146  1  0.115989  0  0.121484  0.113731  0  1.026145  0
H  H7  1  0.54623678  0.70001518  0.41879637  1  0.105412  0  0.123326  0.117446  0  0.984543  0
H  H8  1  0.49974954  0.43972573  0.21156387  1  0.096535  0  0.107386  0.096519  0  1.010349  0
H  H9  1  0.32831374  0.58982496  0.56612120  1  0.15022  0  0.122139  0.114476  0  1.041852  0
H  H10  1  0.06707431  0.57428054  0.43657890  1  0.074335  0  0.106975  0.109928  0  0.986256  0
H  H11  1  0.36192916  0.23533871  0.54106455  1  0.086031  0  0.126329  0.119329  0  0.978004  0
H  H12  1  0.90309957  0.46600459  0.32783176  1  0.062887  0  0.105417  0.096706  0  0.981469  0
H  H13  1  0.91844116  0.34063309  0.34366511  1  0.057365  0  0.100435  0.090267  0  0.990083  0
H  H14  1  0.86991801  0.36556751  0.46267649  1  0.05761  0  0.100811  0.099207  0  0.995651  0
H  H15  1  0.66311348  0.14231791  0.64143879  1  0.080947  0  0.101234  0.090321  0  0.991672  0
H  H16  1  0.59052167  0.03419157  0.69281669  1  0.048018  0  0.100423  0.090065  0  0.98928  0
H  H17  1  0.61701504  0.01124852  0.50094996  1  0.056903  0  0.102134  0.092698  0  0.987802  0
H  H18  1  0.46964296  0.00375128  0.43147620  1  0.075055  0  0.103348  0.095424  0  0.985291  0
H  H19  1  0.44341206  0.02649537  0.62474847  1  0.073874  0  0.106356  0.101352  0  0.982576  0
H  H20  1  0.68353584  0.62734041  0.84756354  1  0.041099  0  0.095344  0.094783  0  1.011882  0
H  H21  1  0.64049860  0.62707407  0.72476036  1  0.068685  0  0.115533  0.102793  0  1.023913  0
H  H22  1  0.72216357  0.62283126  0.97257188  1  0.079631  0  0.102279  0.103064  0  1.01681  0
H  H23  1  0.82044323  0.63001074  0.19804363  1  0.070959  0  0.1051  0.111759  0  0.987482  0
H  H24  1  0.77903625  0.63658706  0.30311758  1  0.142893  0  0.100019  0.118292  0  1.040102  0
H  H25  1  0.61941058  0.38319547  0.72484049  1  0.060901  0  0.099575  0.102437  0  1.005385  0
H  H26  1  0.65478901  0.37895999  0.85014644  1  0.074684  0  0.106463  0.110671  0  0.990682  0
H  H27  1  0.53289974  0.46283929  0.12675223  1  0.031586  0  0.102298  0.112719  0  1.021235  0
H  H28  1  0.22595035  0.34097016  0.13762770  1  0.072969  0  0.104552  0.105056  0  0.99514  0
H  H29  1  0.09408201  0.24222315  0.01740715  1  0.100283  0  0.10837  0.114969  0  0.995216  0
H  H30  1  0.95723106  0.00099515  0.91863408  1  0.09726  0  0.1061  0.112493  0  0.997876  0
H  H31  1  0.85719828  0.86383270  0.80616040  1  0.081945  0  0.102399  0.105611  0  0.991627  0
H  H32  1  0.12159503  0.25543176  0.27310364  1  0.056983  0  0.104793  0.106985  0  0.995791  0
H  H33  1  0.80270917  0.08328287  0.83716880  1  0.091463  0  0.106844  0.114083  0  0.98903  0
H  H34  1  0.99184221  0.15473474  0.15232114  1  0.078127  0  0.110292  0.115809  0  0.984542  0
H  H35  1  0.69949993  0.94445020  0.72801736  1  0.073827  0  0.101258  0.103933  0  1.004904  0
H  H36  1  0.52264999  0.36976814  0.61796305  1  0.096237  0  0.112448  0.096311  0  1.05231  0
H  H37  1  0.74954097  0.61697529  0.54720877  1  0.110273  0  0.128112  0.123615  0  0.982883  0
H  H38  1  0.51782514  0.23713896  0.43216043  1  0.120877  0  0.123028  0.117266  0  1.000135  0
H  H39  1  0.41450211  0.79442037  0.58455521  1  0.078249  0  0.102689  0.075746  0  0.983533  0
H  H40  1  0.50666680  0.81722285  0.65677391  1  0.055917  0  0.101055  0.065282  0  0.984781  0
H  H41  1  0.43013005  0.75091671  0.71772944  1  0.032181  0  0.091791  0.123466  0  1.009136  0
H  H42  1  0.41506378  0.82940482  0.71478571  1  0.03605  0  0.097397  0.130257  0  0.990361  0
H  H43  1  0.33817794  0.72864242  0.64608330  1  0.05411  0  0.094289  0.12789  0  0.992817  0
H  H44  1  0.31507024  0.28680692  0.16284341  1  0.07546  0  0.117712  0.062953  0  0.956794  0
H  H45  1  0.13264144  0.67826660  0.56935301  1  0.036808  0  0.097347  0.052052  0  0.977461  0
H  H46  1  0.13641506  0.64439052  0.64016275  1  0.033179  0  0.097209  0.054503  0  0.973731  0
H  H47  1  0.10446883  0.74287924  0.71116803  1  0.034112  0  0.091061  0.122257  0  0.997921  0
H  H48  1  0.19261487  0.79258919  0.70157555  1  0.015608  0  0.093232  0.122975  0  0.997663  0
H  H49  1  0.09890583  0.77504030  0.63920069  1  0.043538  0  0.096326  0.131315  0  0.986922  0
H  H50  1  0.94560405  0.42943407  0.60609968  1  0.039932  0  0.094426  0.047747  0  0.978311  0
H  H51  1  0.01453800  0.53453687  0.66259397  1  0.042642  0  0.097576  0.056151  0  0.971936  0
H  H52  1  0.11872842  0.51092958  0.73545942  1  0.041673  0  0.092901  0.126  0  0.993736  0
H  H53  1  0.02896860  0.46652210  0.74446169  1  0.024999  0  0.09418  0.124891  0  0.998162  0
H  H54  1  0.04921490  0.40618090  0.67854933  1  0.041193  0  0.092406  0.125552  0  0.994076  0
H  H55  1  0.36234486  0.83866510  0.41225961  1  0.041654  0  0.098979  0.029825  0  0.949689  0
H  H56  1  0.53971790  0.52660548  0.98810374  1  0.032488  0  0.095541  0.053579  0  0.965065  0
H  H57  1  0.47520907  0.47103875  0.01917561  1  0.026601  0  0.092769  0.046461  0  0.985263  0
H  H58  1  0.40258868  0.42312980  0.87556796  1  0.022551  0  0.091094  0.119579  0  0.999969  0
H  H59  1  0.47632733  0.40195282  0.86135281  1  0.026218  0  0.093377  0.131106  0  0.990524  0
H  H60  1  0.41124061  0.34658061  0.89205952  1  0.046172  0  0.09116  0.123521  0  0.994357  0
H  H61  1  0.65307982  0.32900213  0.35864652  1  0.106696  0  0.121659  0.07067  0  0.945741  0
H  H62  1  0.70009387  0.86391686  0.85444178  1  0.073416  0  0.098886  0.062669  0  0.980594  0
H  H63  1  0.68336830  0.76640180  0.82902861  1  0.039026  0  0.096539  0.050712  0  0.981912  0
H  H64  1  0.55307667  0.72305655  0.83753646  1  0.01754  0  0.093362  0.126211  0  0.995589  0
H  H65  1  0.63512507  0.80684596  0.92732209  1  0.065611  0  0.097443  0.131452  0  0.988707  0
H  H66  1  0.56851338  0.82004849  0.86213534  1  0.040291  0  0.094548  0.128301  0  0.99315  0
H  H67  1  0.72701726  0.71223381  0.47261493  1  -0.00744  0  0.081136  0.002711  0  1.007612  0
C  C68  1  0.71007227  0.76332458  0.63453351  1  0.415012  0  0.000659  -0.05264  0  4.024906  0
C  C69  1  0.45061799  0.21791307  0.50251123  1  0.125585  0  -0.03063  0.036549  0  4.203365  0
C  C70  1  0.60535620  0.50137489  0.70262845  1  0.024262  0  -0.035582  -0.041251  0  4.068496  0
C  C71  1  0.71862703  0.49489450  0.46666699  1  0.127599  0  -0.00149  0.062252  0  4.147203  0
C  C72  1  0.65448129  0.61017772  0.35966845  1  0.353779  0  0.057714  0.022052  0  4.026355  0
C  C73  1  0.25914233  0.40269614  0.52352788  1  0.435218  0  0.01031  -0.061795  0  3.977362  0
C  C74  1  0.45590726  0.68526184  0.52911038  1  1.048961  0  0.192364  0.304284  0  4.068931  0
C  C75  1  0.33239477  0.34394273  0.28290441  1  0.408621  0  0.078198  0.035958  0  4.041305  0
C  C76  1  0.27954245  0.37696458  0.36000307  1  0.407537  0  0.017265  -0.047869  0  3.905008  0
C  C77  1  0.51487651  0.68613838  0.45249706  1  0.436703  0  0.016009  -0.026129  0  3.953927  0
C  C78  1  0.54502224  0.49550200  0.26466714  1  0.412034  0  -0.004613  -0.064147  0  4.020685  0
C  C79  1  0.39624079  0.24300874  0.50861756  1  0.453189  0  0.017385  -0.050184  0  3.96063  0
C  C80  1  0.31498493  0.53063825  0.55609896  1  0.425644  0  0.020376  -0.029189  0  3.921337  0
C  C81  1  0.62224954  0.55256919  0.28060156  1  -0.031497  0  -0.021353  -0.036826  0  3.987831  0
C  C82  1  0.23939435  0.46057827  0.52300862  1  0.060065  0  -0.029275  0.042576  0  4.200195  0
C  C83  1  0.49539839  0.73403173  0.50022323  1  0.135806  0  -0.041145  -0.081379  0  4.194803  0
C  C84  1  0.26217116  0.34491483  0.28121348  1  0.016337  0  -0.008507  -0.031756  0  3.994174  0
C  C85  1  0.00582110  0.47337728  0.52084971  1  0.581809  0  0.082079  0.140165  0  3.755228  0
C  C86  1  0.99890007  0.54447851  0.51151105  1  0.58927  0  0.084546  0.146389  0  3.751794  0
C  C87  1  0.78808717  0.49835904  0.46363854  1  -0.279113  0  -0.056461  -0.123523  0  4.180766  0
C  C88  1  0.16378143  0.45328677  0.49330212  1  -0.356211  0  -0.062751  -0.110633  0  4.19519  0
C  C89  1  0.91531418  0.41212947  0.45826537  1  -0.047336  0  -0.082435  -0.152411  0  3.660893  0
C  C90  1  0.60338505  0.56287467  0.68807446  1  0.436032  0  0.008691  -0.039483  0  3.943991  0
C  C91  1  0.90707642  0.48263211  0.45041948  1  0.124964  0  0.001877  0.080378  0  3.820212  0
C  C92  1  0.94089464  0.39856963  0.39184039  1  -0.014295  0  -0.073207  -0.070178  0  3.642497  0
C  C93  1  0.03273739  0.45982573  0.45416901  1  0.103358  0  0.000352  0.091803  0  3.821025  0
C  C94  1  0.93323823  0.46801265  0.38284910  1  -0.008317  0  -0.067324  -0.05975  0  3.623106  0
C  C95  1  0.02367900  0.52896889  0.44385611  1  -0.062969  0  -0.08079  -0.153972  0  3.644746  0
C  C96  1  0.84287998  0.49251618  0.45425328  1  -0.07085  0  -0.037612  -0.073102  0  4.097139  0
C  C97  1  0.10143134  0.45277452  0.46686890  1  0.034573  0  -0.064184  -0.125308  0  4.133335  0
C  C98  1  0.56350286  0.02797459  0.63475154  1  -0.012237  0  -0.070806  -0.079242  0  3.638826  0
C  C99  1  0.60390779  0.08722871  0.60597400  1  -0.050759  0  -0.072653  -0.083991  0  3.625319  0
C  C100  1  0.47659911  0.17668066  0.53582379  1  -0.478853  0  -0.06169  -0.108816  0  4.199536  0
C  C101  1  0.63999664  0.42548435  0.42379445  1  0.42836  0  0.074198  0.020733  0  4.057906  0
C  C102  1  0.51637882  0.81296055  0.51994858  1  -0.426001  0  -0.04988  -0.061678  0  4.220577  0
C  C103  1  0.48205049  0.02324701  0.59718759  1  -0.000545  0  -0.066795  -0.09604  0  3.623944  0
C  C104  1  0.52124458  0.08256791  0.56697340  1  0.107978  0  0.007875  0.14189  0  3.795507  0
C  C105  1  0.45409880  0.95224509  0.51853954  1  -0.043345  0  -0.006961  0.011265  0  3.646619  0
C  C106  1  0.53822792  0.95503154  0.55645857  1  0.101108  0  0.019982  0.140153  0  3.765439  0
C  C107  1  0.49658281  0.00938645  0.48922867  1  -0.038688  0  -0.067216  -0.09904  0  3.629971  0
C  C108  1  0.57817409  0.01533593  0.52804050  1  -0.007455  0  -0.073931  -0.084187  0  3.666494  0
C  C109  1  0.50364910  0.14071455  0.55992731  1  0.098346  0  -0.06439  -0.141888  0  4.12053  0
C  C110  1  0.53641314  0.88293718  0.54269533  1  0.067413  0  -0.075048  -0.182094  0  4.139101  0
C  C111  1  0.65275024  0.54951431  0.22328614  1  -0.017566  0  -0.008208  0.110602  0  4.033766  0
C  C112  1  0.54379557  0.43166815  0.63287180  1  0.391435  0  0.008628  -0.039123  0  3.94704  0
C  C113  1  0.59684142  0.49839069  0.14386399  1  0.015752  0  -0.106222  -0.25487  0  3.993584  0
C  C114  1  0.61952050  0.49200584  0.08473719  1  0.46436  0  0.081932  0.188949  0  4.037005  0
C  C115  1  0.70186857  0.54059403  0.10395557  1  0.409827  0  0.078889  0.0691  0  4.068737  0
C  C116  1  0.75770542  0.59194641  0.18355721  1  -0.046362  0  -0.090451  -0.135916  0  4.003708  0
C  C117  1  0.73469496  0.59576495  0.24215540  1  -0.029594  0  -0.098974  -0.138242  0  3.968604  0
C  C118  1  0.70150843  0.57161253  0.91796053  1  -0.051217  0  -0.090264  -0.140208  0  3.971662  0
C  C119  1  0.67992832  0.57351936  0.84792880  1  -0.037048  0  -0.096695  -0.131688  0  4.00072  0
C  C120  1  0.69024163  0.50041452  0.91885150  1  0.385216  0  0.079075  0.158557  0  4.054452  0
C  C121  1  0.64662628  0.50500668  0.77643419  1  -0.005437  0  -0.008496  0.088746  0  4.034503  0
C  C122  1  0.64273654  0.43639149  0.77893945  1  -0.00265  0  -0.097502  -0.137494  0  3.992599  0
C  C123  1  0.70612381  0.55398349  0.50725820  1  0.392335  0  0.019382  -0.063034  0  3.894685  0
C  C124  1  0.66304492  0.43368005  0.84874091  1  -0.109512  0  -0.083836  -0.137096  0  3.980264  0
C  C125  1  0.77106711  0.89475555  0.76081015  1  0.023383  0  -0.005639  0.10953  0  4.024425  0
C  C126  1  0.75638874  0.95724757  0.76963162  1  -0.023756  0  -0.090838  -0.129094  0  3.978852  0
C  C127  1  0.81358918  0.03455477  0.83018618  1  -0.087521  0  -0.087057  -0.145962  0  3.974249  0
C  C128  1  0.88461314  0.04923346  0.88531527  1  0.356527  0  0.080508  0.160274  0  4.075794  0
C  C129  1  0.90072869  0.98777494  0.87615123  1  -0.052622  0  -0.089156  -0.148711  0  3.987331  0
C  C130  1  0.84505827  0.91184273  0.81360719  1  -0.090422  0  -0.091561  -0.129515  0  3.994343  0
C  C131  1  0.10092530  0.24661417  0.07406105  1  -0.013504  0  -0.083633  -0.138426  0  3.955397  0
C  C132  1  0.17434315  0.30089366  0.14111038  1  -0.045922  0  -0.089363  -0.130125  0  3.995844  0
C  C133  1  0.03575913  0.19212688  0.07792473  1  0.334203  0  0.084561  0.164332  0  4.069357  0
C  C134  1  0.47663975  0.24485963  0.45360151  1  0.434119  0  0.022958  -0.031605  0  3.933288  0
C  C135  1  0.18360029  0.30329765  0.21330343  1  -0.024519  0  -0.004772  0.086871  0  4.021262  0
C  C136  1  0.11525898  0.25375830  0.21744114  1  0.000202  0  -0.086566  -0.119676  0  3.978801  0
C  C137  1  0.04295642  0.19762794  0.15054210  1  -0.041913  0  -0.08145  -0.13693  0  3.976044  0
C  C138  1  0.63723375  0.76082619  0.69747772  1  1.004989  0  0.175557  0.270602  0  4.135061  0
C  C139  1  0.70975034  0.81195938  0.70026300  1  0.007698  0  -0.047233  -0.15725  0  4.100639  0
C  C140  1  0.44095613  0.77583789  0.62441917  1  0.390008  0  -0.062376  0.090963  0  3.865277  0
C  C141  1  0.40375855  0.77044544  0.67889664  1  -0.059052  0  -0.24103  -0.394844  0  3.977384  0
C  C142  1  0.35403345  0.30975005  0.22513023  1  0.890665  0  0.106155  0.254468  0  3.949933  0
C  C143  1  0.10914711  0.67100985  0.61108564  1  0.413283  0  -0.067133  0.091246  0  3.927604  0
C  C144  1  0.12718067  0.74999109  0.66922573  1  -0.020747  0  -0.242762  -0.395221  0  3.988116  0
C  C145  1  0.01022825  0.47646297  0.63921426  1  0.423682  0  -0.068335  0.090182  0  3.930598  0
C  C146  1  0.05444054  0.46432112  0.70324846  1  -0.067804  0  -0.243529  -0.397261  0  3.991949  0
C  C147  1  0.37766335  0.87505812  0.47415948  1  0.956237  0  0.097336  0.272235  0  3.990708  0
C  C148  1  0.50551287  0.46671746  0.98192976  1  0.423277  0  -0.066532  0.094077  0  3.921431  0
C  C149  1  0.44537329  0.40582885  0.89766734  1  -0.039252  0  -0.242486  -0.391662  0  3.980963  0
C  C150  1  0.61025506  0.34453743  0.37175644  1  0.836836  0  0.101202  0.244806  0  3.948541  0
C  C151  1  0.65316752  0.80048717  0.82675539  1  0.386622  0  -0.063708  0.095699  0  3.90142  0
C  C152  1  0.59904952  0.78666375  0.86550088  1  -0.071392  0  -0.241832  -0.398319  0  3.983398  0
C  C153  1  0.72966823  0.68382959  0.41702634  1  0.960434  0  0.074313  0.236101  0  4.097475  0
N  N154  1  0.64293933  0.68972042  0.59552946  1  -0.806036  0  -0.279888  -0.191872  0  3.581886  0
N  N155  1  0.33985013  0.43558884  0.55325983  1  -0.827626  0  -0.289774  -0.198066  0  3.558396  0
N  N156  1  0.45412605  0.61602570  0.50199628  1  -0.803065  0  -0.300624  -0.313759  0  3.504395  0
N  N157  1  0.38495498  0.37244412  0.35764484  1  -0.731202  0  -0.253512  -0.181708  0  3.594069  0
N  N158  1  0.35337394  0.39228332  0.40436939  1  -0.720338  0  -0.246403  -0.130223  0  3.548806  0
N  N159  1  0.49164894  0.61689266  0.45486000  1  -0.777797  0  -0.285006  -0.183312  0  3.508397  0
N  N160  1  0.53037101  0.51554655  0.32638493  1  -0.68466  0  -0.255122  -0.206537  0  3.299337  0
N  N161  1  0.37435442  0.51542947  0.57350571  1  -0.795134  0  -0.270581  -0.187167  0  3.533345  0
N  N162  1  0.72502853  0.55035522  0.04769451  1  -0.520486  0  -0.162525  -0.139889  0  3.338162  0
N  N163  1  0.69037346  0.48749341  0.98276175  1  -0.441174  0  -0.15611  -0.136977  0  3.295306  0
N  N164  1  0.94126715  0.12652634  0.94977038  1  -0.434243  0  -0.148633  -0.134589  0  3.233372  0
N  N165  1  0.39146742  0.28249260  0.46747920  1  -0.817078  0  -0.283912  -0.193877  0  3.55365  0
N  N166  1  0.96756928  0.12317999  0.01209524  1  -0.498451  0  -0.146208  -0.134002  0  3.33782  0
N  N167  1  0.54392984  0.53128594  0.61605861  1  -0.770947  0  -0.282378  -0.193787  0  3.62468  0
N  N168  1  0.58652687  0.44458691  0.43784322  1  -0.739924  0  -0.243537  -0.173372  0  3.54295  0
N  N169  1  0.50722280  0.45054722  0.58223238  1  -0.82036  0  -0.289579  -0.18735  0  3.623388  0
N  N170  1  0.62636421  0.52247921  0.48807338  1  -0.663832  0  -0.224113  -0.116053  0  3.484674  0
N  N171  1  0.44181205  0.28367629  0.43373827  1  -0.790472  0  -0.268563  -0.181494  0  3.565379  0
N  N172  1  0.59843789  0.68835026  0.63559155  1  -0.789629  0  -0.272659  -0.276624  0  3.535806  0
N  N173  1  0.59618552  0.58560919  0.38348852  1  -0.748899  0  -0.268679  -0.219975  0  3.639092  0
O  O174  1  0.42450829  0.69649424  0.57906280  1  -1.090533  0  -0.173251  -0.217217  0  2.567263  0
O  O175  1  0.41493517  0.30437835  0.24448537  1  -1.078048  0  -0.252547  -0.339815  0  2.208451  0
O  O176  1  0.02254735  0.61755983  0.56869740  1  -1.082814  0  -0.207225  -0.24108  0  2.498919  0
O  O177  1  0.04628178  0.47287966  0.58719287  1  -1.077028  0  -0.203411  -0.234255  0  2.519176  0
O  O178  1  0.33405677  0.84883395  0.50227575  1  -1.085779  0  -0.277768  -0.375495  0  2.085477  0
O  O179  1  0.56166669  0.44279752  0.00796021  1  -1.063274  0  -0.197918  -0.227648  0  2.523776  0
O  O180  1  0.53728318  0.29153666  0.34123983  1  -1.093646  0  -0.260391  -0.345261  0  2.250661  0
O  O181  1  0.60298931  0.77327389  0.74536026  1  -1.086357  0  -0.198718  -0.250723  0  2.514237  0
O  O182  1  0.79221066  0.71618063  0.41210646  1  -1.087789  0  -0.286614  -0.372901  0  2.125401  0
