# generated using pymatgen
data_DyH6C6NO8
_symmetry_space_group_name_H-M   'P 1'
_cell_length_a   6.71754864
_cell_length_b   7.85629193
_cell_length_c   9.20411909
_cell_angle_alpha   95.73228602
_cell_angle_beta   111.16754590
_cell_angle_gamma   94.07069526
_symmetry_Int_Tables_number   1
_chemical_formula_structural   DyH6C6NO8
_chemical_formula_sum   'Dy2 H12 C12 N2 O16'
_cell_volume   447.69845402
_cell_formula_units_Z   2
loop_
 _symmetry_equiv_pos_site_id
 _symmetry_equiv_pos_as_xyz
  1  'x, y, z'
loop_
 _atom_site_type_symbol
 _atom_site_label
 _atom_site_symmetry_multiplicity
 _atom_site_fract_x
 _atom_site_fract_y
 _atom_site_fract_z
 _atom_site_occupancy
 _atom_site_hle17_bader_spin_density
 _atom_site_hle17_ddec_charge
 _atom_site_hle17_ddec_spin_density
 _atom_site_hle17_ddec_sum_bond_order
 _atom_site_hle17_magmom
 _atom_site_hse06_10hf_bader_spin_density
 _atom_site_hse06_10hf_ddec_charge
 _atom_site_hse06_10hf_ddec_spin_density
 _atom_site_hse06_10hf_ddec_sum_bond_order
 _atom_site_hse06_10hf_magmom
 _atom_site_hse06_bader_spin_density
 _atom_site_hse06_ddec_charge
 _atom_site_hse06_ddec_spin_density
 _atom_site_hse06_ddec_sum_bond_order
 _atom_site_hse06_magmom
 _atom_site_pbe_bader_spin_density
 _atom_site_pbe_cm5_charge
 _atom_site_pbe_ddec_charge
 _atom_site_pbe_ddec_spin_density
 _atom_site_pbe_ddec_sum_bond_order
 _atom_site_pbe_magmom
Dy  Dy0  1  0.37365167  0.76330379  0.21594988  1  0  2.266364  0  1.660322  0  0  2.122601  0  2.13708  0  0  2.244831  0  1.951427  0  0  1.525161  2.088878  0  2.166169  0
Dy  Dy1  1  0.62634925  0.23669677  0.78405136  1  0  2.26636  0  1.660262  0  0  2.122579  0  2.137038  0  0  2.244826  0  1.951368  0  0  1.52508  2.088841  0  2.166125  0
H  H2  1  0.75493990  0.26406039  0.38481307  1  0  0.126246  0  0.882943  0  0  0.138931  0  0.939142  0  0  0.141771  0  0.936701  0  0  0.132649  0.137004  0  0.940685  0
H  H3  1  0.24505157  0.73594139  0.61518037  1  0  0.126287  0  0.882978  0  0  0.13895  0  0.939199  0  0  0.141792  0  0.936759  0  0  0.13266  0.137025  0  0.940739  0
H  H4  1  0.96615822  0.22934660  0.55839898  1  0  0.128701  0  0.92169  0  0  0.13912  0  0.981966  0  0  0.142052  0  0.980289  0  0  0.131092  0.136988  0  0.983258  0
H  H5  1  0.03382460  0.77064999  0.44159721  1  0  0.128793  0  0.92167  0  0  0.139162  0  0.982006  0  0  0.142096  0  0.980328  0  0  0.131108  0.137031  0  0.983299  0
H  H6  1  0.03353144  0.83716805  0.76977592  1  0  0.129135  0  0.916871  0  0  0.138442  0  0.979938  0  0  0.140761  0  0.978069  0  0  0.125724  0.13689  0  0.980906  0
H  H7  1  0.96646867  0.16282608  0.23023108  1  0  0.12921  0  0.916739  0  0  0.138452  0  0.979932  0  0  0.140752  0  0.978053  0  0  0.12573  0.136899  0  0.980897  0
H  H8  1  0.78873935  0.71502989  0.74116591  1  0  0.140013  0  0.903978  0  0  0.151955  0  0.960257  0  0  0.155505  0  0.957017  0  0  0.136438  0.149347  0  0.962644  0
H  H9  1  0.21125983  0.28496938  0.25883802  1  0  0.140015  0  0.903985  0  0  0.151974  0  0.960261  0  0  0.155501  0  0.957017  0  0  0.136444  0.149367  0  0.962641  0
H  H10  1  0.92876292  0.57452398  0.09232786  1  0  0.432267  0  0.862794  0  0  0.407243  0  0.917245  0  0  0.416517  0  0.903984  0  0  0.310517  0.400765  0  0.926715  0
H  H11  1  0.07124240  0.42548561  0.90767419  1  0  0.43223  0  0.86272  0  0  0.407204  0  0.917276  0  0  0.416477  0  0.904016  0  0  0.310497  0.400726  0  0.926747  0
H  H12  1  0.88851937  0.76960529  0.11598361  1  0  0.452602  0  0.835774  0  0  0.422582  0  0.896644  0  0  0.434694  0  0.878951  0  0  0.305882  0.414306  0  0.908781  0
H  H13  1  0.11148063  0.23040040  0.88401564  1  0  0.452582  0  0.835794  0  0  0.422573  0  0.896653  0  0  0.434686  0  0.878959  0  0  0.30586  0.414297  0  0.908793  0
C  C14  1  0.84510219  0.46736510  0.57143246  1  0  0.576346  0  3.746557  0  0  0.526155  0  4.041884  0  0  0.557672  0  4.040125  0  0  0.273648  0.505056  0  4.044116  0
C  C15  1  0.15489300  0.53264057  0.42856445  1  0  0.576438  0  3.746256  0  0  0.526288  0  4.041495  0  0  0.557807  0  4.039732  0  0  0.273678  0.5052  0  4.04371  0
C  C16  1  0.90480648  0.32526274  0.47880675  1  0  -0.13425  0  3.636125  0  0  -0.193836  0  3.893417  0  0  -0.193734  0  3.898423  0  0  -0.037403  -0.19385  0  3.889572  0
C  C17  1  0.09518659  0.67473905  0.52118929  1  0  -0.134415  0  3.636183  0  0  -0.193986  0  3.893535  0  0  -0.193888  0  3.898534  0  0  -0.037453  -0.194002  0  3.889688  0
C  C18  1  0.88603542  0.76856198  0.67943641  1  0  -0.161362  0  3.582517  0  0  -0.218085  0  3.827662  0  0  -0.217549  0  3.830065  0  0  -0.046088  -0.217978  0  3.824597  0
C  C19  1  0.11396536  0.23143730  0.32056793  1  0  -0.161459  0  3.582448  0  0  -0.218215  0  3.827735  0  0  -0.217588  0  3.830049  0  0  -0.046137  -0.218099  0  3.82467  0
C  C20  1  0.75978438  0.89584197  0.57675294  1  0  0.775436  0  3.795764  0  0  0.731369  0  4.090879  0  0  0.766955  0  4.081938  0  0  0.249548  0.707475  0  4.098709  0
C  C21  1  0.24021778  0.10415602  0.42324731  1  0  0.775585  0  3.795293  0  0  0.731476  0  4.090508  0  0  0.767032  0  4.081576  0  0  0.249561  0.707557  0  4.098374  0
C  C22  1  0.60953252  0.96488371  0.01661798  1  0  0.555673  0  3.939328  0  0  0.509918  0  4.241673  0  0  0.539634  0  4.238934  0  0  0.215882  0.489336  0  4.247996  0
C  C23  1  0.39049508  0.03510157  0.98338781  1  0  0.555722  0  3.939101  0  0  0.509877  0  4.241463  0  0  0.539596  0  4.238725  0  0  0.215941  0.489285  0  4.247795  0
C  C24  1  0.58567041  0.47354287  0.07401876  1  0  0.544436  0  3.964985  0  0  0.501427  0  4.263464  0  0  0.530605  0  4.261493  0  0  0.205685  0.481271  0  4.26938  0
C  C25  1  0.41431872  0.52646532  0.92597462  1  0  0.544453  0  3.965299  0  0  0.501382  0  4.263854  0  0  0.530559  0  4.261887  0  0  0.205645  0.481221  0  4.269775  0
N  N26  1  0.93904597  0.62744683  0.59010579  1  0  -0.130396  0  3.437767  0  0  -0.053865  0  3.675601  0  0  -0.072053  0  3.694479  0  0  -0.253677  -0.041384  0  3.661504  0
N  N27  1  0.06095143  0.37255113  0.40989648  1  0  -0.130561  0  3.437734  0  0  -0.053979  0  3.67555  0  0  -0.072196  0  3.694406  0  0  -0.253722  -0.041499  0  3.661443  0
O  O28  1  0.70881529  0.42940749  0.63130881  1  0  -0.683133  0  2.058749  0  0  -0.64016  0  2.324475  0  0  -0.674894  0  2.31073  0  0  -0.381012  -0.623611  0  2.330724  0
O  O29  1  0.29117279  0.57059297  0.36868147  1  0  -0.683118  0  2.058702  0  0  -0.640166  0  2.324415  0  0  -0.674898  0  2.310673  0  0  -0.381028  -0.623626  0  2.330662  0
O  O30  1  0.75019371  0.03976314  0.64662334  1  0  -0.748531  0  2.078591  0  0  -0.698817  0  2.344138  0  0  -0.73603  0  2.327377  0  0  -0.406044  -0.680488  0  2.352024  0
O  O31  1  0.24981055  0.96023871  0.35337453  1  0  -0.74854  0  2.078505  0  0  -0.698788  0  2.344074  0  0  -0.735998  0  2.327332  0  0  -0.406044  -0.680457  0  2.351976  0
O  O32  1  0.67587946  0.85112335  0.42947138  1  0  -0.747188  0  2.064845  0  0  -0.700804  0  2.331809  0  0  -0.737504  0  2.314451  0  0  -0.416252  -0.683113  0  2.340025  0
O  O33  1  0.32411889  0.14886948  0.57053614  1  0  -0.747227  0  2.064533  0  0  -0.700824  0  2.331532  0  0  -0.737526  0  2.314187  0  0  -0.41622  -0.683123  0  2.339759  0
O  O34  1  0.72099942  0.01406999  0.94091578  1  0  -0.633696  0  2.048762  0  0  -0.58928  0  2.295978  0  0  -0.6208  0  2.284126  0  0  -0.364737  -0.573888  0  2.302037  0
O  O35  1  0.27901295  0.98592036  0.05909410  1  0  -0.633767  0  2.0488  0  0  -0.589322  0  2.296023  0  0  -0.620842  0  2.284171  0  0  -0.364883  -0.573931  0  2.302092  0
O  O36  1  0.65976237  0.86172634  0.11902995  1  0  -0.668905  0  2.089335  0  0  -0.613139  0  2.324281  0  0  -0.646492  0  2.314849  0  0  -0.337476  -0.595572  0  2.329354  0
O  O37  1  0.34025504  0.13826659  0.88096950  1  0  -0.668917  0  2.089147  0  0  -0.613074  0  2.324069  0  0  -0.646434  0  2.314637  0  0  -0.337381  -0.595497  0  2.329135  0
O  O38  1  0.72396565  0.38344600  0.04964180  1  0  -0.691101  0  2.089511  0  0  -0.640407  0  2.333038  0  0  -0.673198  0  2.323607  0  0  -0.367459  -0.623301  0  2.337428  0
O  O39  1  0.27603182  0.61656481  0.95035397  1  0  -0.691158  0  2.089759  0  0  -0.640418  0  2.333242  0  0  -0.673207  0  2.323811  0  0  -0.367444  -0.62331  0  2.337632  0
O  O40  1  0.57869018  0.52646758  0.20554552  1  0  -0.625012  0  2.031098  0  0  -0.585  0  2.281329  0  0  -0.614925  0  2.269865  0  0  -0.356606  -0.570332  0  2.287271  0
O  O41  1  0.42130395  0.47354194  0.79445362  1  0  -0.62503  0  2.031209  0  0  -0.585012  0  2.281492  0  0  -0.614938  0  2.270034  0  0  -0.356613  -0.570341  0  2.287434  0
O  O42  1  0.99559077  0.69306963  0.10398048  1  0  -0.903611  0  1.863367  0  0  -0.856282  0  2.055984  0  0  -0.883749  0  2.017593  0  0  -0.645408  -0.84372  0  2.078412  0
O  O43  1  0.00441508  0.30693224  0.89601780  1  0  -0.903516  0  1.863299  0  0  -0.856202  0  2.055963  0  0  -0.883678  0  2.017582  0  0  -0.645342  -0.843645  0  2.078393  0
