# generated using pymatgen
data_ZnH8C14(NO2)2
_symmetry_space_group_name_H-M   'P 1'
_cell_length_a   9.50955494
_cell_length_b   10.51287441
_cell_length_c   14.56965436
_cell_angle_alpha   83.38245111
_cell_angle_beta   75.22089978
_cell_angle_gamma   63.10802409
_symmetry_Int_Tables_number   1
_chemical_formula_structural   ZnH8C14(NO2)2
_chemical_formula_sum   'Zn4 H32 C56 N8 O16'
_cell_volume   1256.07913231
_cell_formula_units_Z   4
loop_
 _symmetry_equiv_pos_site_id
 _symmetry_equiv_pos_as_xyz
  1  'x, y, z'
loop_
 _atom_site_type_symbol
 _atom_site_label
 _atom_site_symmetry_multiplicity
 _atom_site_fract_x
 _atom_site_fract_y
 _atom_site_fract_z
 _atom_site_occupancy
 _atom_site_pbe_bader_spin_density
 _atom_site_pbe_cm5_charge
 _atom_site_pbe_ddec_charge
 _atom_site_pbe_ddec_spin_density
 _atom_site_pbe_ddec_sum_bond_order
 _atom_site_pbe_magmom
Zn  Zn0  1  0.95727760  0.08545411  0.75005957  1  0  0.686428  0.943779  0  2.332246  0
Zn  Zn1  1  0.04272156  0.91454781  0.24993943  1  0  0.686428  0.943783  0  2.332264  0
Zn  Zn2  1  0.49954520  0.00067397  0.74999926  1  0  0.717455  0.805618  0  2.354966  0
Zn  Zn3  1  0.50045395  0.99932795  0.25000043  1  0  0.717437  0.805594  0  2.354984  0
H  H4  1  0.22901174  0.85297668  0.96630004  1  0  0.105171  0.109068  0  1.018466  0
H  H5  1  0.91786423  0.85308265  0.53349590  1  0  0.105246  0.109569  0  1.018883  0
H  H6  1  0.77098739  0.14702311  0.03370052  1  0  0.105173  0.109098  0  1.01844  0
H  H7  1  0.08213545  0.14691821  0.46650379  1  0  0.105229  0.10954  0  1.01891  0
H  H8  1  0.98003953  0.59281859  0.01216877  1  0  0.101595  0.097415  0  1.055324  0
H  H9  1  0.42703379  0.59286136  0.48778515  1  0  0.101407  0.097627  0  1.055292  0
H  H10  1  0.01995959  0.40718120  0.98783178  1  0  0.101616  0.097447  0  1.055327  0
H  H11  1  0.57296588  0.40713737  0.51221472  1  0  0.101407  0.097616  0  1.05531  0
H  H12  1  0.02343668  0.57056110  0.83666463  1  0  0.101505  0.113285  0  1.006733  0
H  H13  1  0.40562187  0.57055493  0.66331804  1  0  0.101809  0.113901  0  1.007188  0
H  H14  1  0.97656136  0.42943869  0.16333610  1  0  0.101512  0.113303  0  1.006759  0
H  H15  1  0.59437832  0.42944273  0.33668320  1  0  0.101842  0.113944  0  1.007193  0
H  H16  1  0.29525580  0.04808414  0.97257305  1  0  0.126397  0.127015  0  0.983698  0
H  H17  1  0.65688309  0.04820278  0.52741361  1  0  0.126565  0.126818  0  0.98436  0
H  H18  1  0.70474443  0.95191778  0.02742714  1  0  0.126398  0.127008  0  0.983673  0
H  H19  1  0.34311657  0.95179594  0.47258625  1  0  0.126565  0.126797  0  0.984372  0
H  H20  1  0.29199055  0.24818207  0.08035684  1  0  0.1285  0.130468  0  1.01077  0
H  H21  1  0.46005358  0.24836329  0.41969729  1  0  0.128618  0.13112  0  1.010182  0
H  H22  1  0.70801023  0.75181879  0.91964267  1  0  0.128495  0.130427  0  1.010819  0
H  H23  1  0.53994717  0.75163543  0.58030240  1  0  0.128611  0.131097  0  1.010162  0
H  H24  1  0.56559967  0.25059688  0.79909898  1  0  0.136809  0.113379  0  1.048008  0
H  H25  1  0.18378127  0.25039475  0.70080230  1  0  0.136778  0.11272  0  1.047274  0
H  H26  1  0.43440002  0.74940398  0.20090070  1  0  0.136813  0.113385  0  1.047974  0
H  H27  1  0.81621895  0.74960504  0.29919739  1  0  0.136777  0.112703  0  1.047266  0
H  H28  1  0.39191441  0.36569707  0.12530933  1  0  0.110725  0.122474  0  1.003877  0
H  H29  1  0.24244751  0.36566963  0.37466990  1  0  0.111111  0.122337  0  1.004401  0
H  H30  1  0.60808527  0.63430379  0.87469173  1  0  0.110724  0.122487  0  1.003872  0
H  H31  1  0.75755270  0.63433016  0.62532979  1  0  0.1111  0.122325  0  1.004429  0
H  H32  1  0.55687392  0.44608468  0.82878699  1  0  0.114069  0.127853  0  1.001019  0
H  H33  1  0.99699067  0.44604095  0.67119484  1  0  0.1139  0.127277  0  1.002035  0
H  H34  1  0.44312631  0.55391724  0.17121321  1  0  0.114045  0.127823  0  1.001054  0
H  H35  1  0.00300955  0.55395884  0.32880485  1  0  0.113894  0.127282  0  1.002026  0
C  C36  1  0.13836359  0.71203932  0.80183986  1  0  0.000808  0.058223  0  3.973297  0
C  C37  1  0.14929944  0.71205493  0.69808968  1  0  0.001688  0.059788  0  3.972758  0
C  C38  1  0.86163715  0.28795940  0.19816052  1  0  0.00079  0.058198  0  3.973292  0
C  C39  1  0.85070025  0.28794592  0.30191000  1  0  0.001707  0.059854  0  3.972746  0
C  C40  1  0.20078904  0.78806355  0.83967013  1  0  -0.02005  -0.099481  0  3.975833  0
C  C41  1  0.01092329  0.78811120  0.66020890  1  0  -0.020807  -0.101649  0  3.976819  0
C  C42  1  0.79921171  0.21193517  0.16033025  1  0  -0.02007  -0.099479  0  3.975685  0
C  C43  1  0.98907532  0.21188966  0.33979028  1  0  -0.020827  -0.101785  0  3.976892  0
C  C44  1  0.18328972  0.79202130  0.93750336  1  0  -0.076154  -0.09086  0  3.949719  0
C  C45  1  0.02452718  0.79214190  0.56234692  1  0  -0.076175  -0.090968  0  3.949844  0
C  C46  1  0.81671050  0.20797849  0.06249633  1  0  -0.076141  -0.090878  0  3.949665  0
C  C47  1  0.97547198  0.20786002  0.43765208  1  0  -0.076184  -0.090907  0  3.949849  0
C  C48  1  0.10062186  0.72430877  0.99991865  1  0  -0.020962  -0.037796  0  3.985058  0
C  C49  1  0.17496139  0.72424788  0.49998329  1  0  -0.020976  -0.037304  0  3.986036  0
C  C50  1  0.89937781  0.27569208  0.00008241  1  0  -0.020983  -0.037857  0  3.985029  0
C  C51  1  0.82503992  0.27575191  0.50001623  1  0  -0.02096  -0.037326  0  3.986171  0
C  C52  1  0.04465556  0.64435108  0.96246978  1  0  -0.08246  -0.085703  0  3.993621  0
C  C53  1  0.31084624  0.64429874  0.53747202  1  0  -0.0832  -0.08722  0  3.997275  0
C  C54  1  0.95534573  0.35564871  0.03753110  1  0  -0.082452  -0.085669  0  3.993584  0
C  C55  1  0.68915557  0.35569785  0.46252904  1  0  -0.083196  -0.087166  0  3.997226  0
C  C56  1  0.06521568  0.63605779  0.86472975  1  0  -0.092273  -0.1363  0  3.957045  0
C  C57  1  0.29841622  0.63600290  0.63521127  1  0  -0.092476  -0.136796  0  3.959125  0
C  C58  1  0.93478291  0.36394307  0.13527080  1  0  -0.092259  -0.136304  0  3.957117  0
C  C59  1  0.70158342  0.36399369  0.36478946  1  0  -0.092499  -0.136843  0  3.959051  0
C  C60  1  0.27497904  0.87786152  0.78088566  1  0  0.222693  0.601315  0  4.171887  0
C  C61  1  0.84696265  0.87794708  0.71906583  1  0  0.222493  0.599974  0  4.170941  0
C  C62  1  0.72502062  0.12213721  0.21911421  1  0  0.22271  0.60131  0  4.171849  0
C  C63  1  0.15303651  0.12205485  0.28093386  1  0  0.222487  0.600015  0  4.170904  0
C  C64  1  0.06557388  0.74477150  0.10509436  1  0  0.201242  0.573371  0  4.235243  0
C  C65  1  0.18977997  0.74469179  0.39478709  1  0  0.200162  0.572899  0  4.237496  0
C  C66  1  0.93442633  0.25522829  0.89490601  1  0  0.201231  0.573294  0  4.235282  0
C  C67  1  0.81022025  0.25530800  0.60521259  1  0  0.200148  0.572872  0  4.237527  0
C  C68  1  0.35126743  0.11994869  0.95237714  1  0  0.007571  -0.014372  0  3.994118  0
C  C69  1  0.52896278  0.11997165  0.54761013  1  0  0.007813  -0.013397  0  3.990996  0
C  C70  1  0.64873063  0.88005323  0.04762341  1  0  0.007618  -0.014236  0  3.994121  0
C  C71  1  0.47103745  0.88002814  0.45238887  1  0  0.007819  -0.013309  0  3.991021  0
C  C72  1  0.34929601  0.21860384  0.00680467  1  0  0.008852  -0.090812  0  3.893712  0
C  C73  1  0.43230816  0.21868077  0.49321345  1  0  0.008286  -0.092464  0  3.892413  0
C  C74  1  0.65070422  0.78139808  0.99319552  1  0  0.008835  -0.090887  0  3.893873  0
C  C75  1  0.56769150  0.78131795  0.50678642  1  0  0.008278  -0.092496  0  3.892428  0
C  C76  1  0.49082108  0.22313748  0.86028133  1  0  0.155369  0.121769  0  3.838955  0
C  C77  1  0.28608174  0.22298973  0.63964595  1  0  0.155948  0.124067  0  3.835574  0
C  C78  1  0.50917751  0.77686338  0.13971922  1  0  0.155409  0.121816  0  3.838919  0
C  C79  1  0.71391848  0.77700793  0.36035254  1  0  0.155904  0.124072  0  3.835568  0
C  C80  1  0.46814265  0.39393194  0.97392474  1  0  0.09929  0.162831  0  4.002396  0
C  C81  1  0.13797694  0.39391270  0.52604099  1  0  0.09783  0.161413  0  4.002639  0
C  C82  1  0.53185868  0.60606998  0.02607460  1  0  0.099336  0.162958  0  4.002205  0
C  C83  1  0.86202276  0.60608816  0.47395801  1  0  0.09786  0.161472  0  4.002619  0
C  C84  1  0.43622586  0.42591859  0.06979359  1  0  -0.082324  -0.14229  0  3.972681  0
C  C85  1  0.13785896  0.42588086  0.43018347  1  0  -0.082325  -0.141556  0  3.973979  0
C  C86  1  0.56377652  0.57408120  0.93020643  1  0  -0.082322  -0.142327  0  3.972696  0
C  C87  1  0.86214073  0.57412000  0.56981622  1  0  -0.082314  -0.141578  0  3.974021  0
C  C88  1  0.53203686  0.46841859  0.90395849  1  0  -0.080503  -0.137283  0  3.954469  0
C  C89  1  0.99955671  0.46838057  0.59602301  1  0  -0.079623  -0.135975  0  3.955084  0
C  C90  1  0.46796662  0.53158120  0.09604135  1  0  -0.080499  -0.1373  0  3.954338  0
C  C91  1  0.00044405  0.53161816  0.40397668  1  0  -0.079645  -0.13604  0  3.95507  0
N  N92  1  0.44019951  0.12344140  0.86158506  1  0  -0.358919  -0.297974  0  3.624771  0
N  N93  1  0.43641940  0.12332620  0.63835487  1  0  -0.359174  -0.298372  0  3.622084  0
N  N94  1  0.55979853  0.87655839  0.13841567  1  0  -0.358943  -0.29806  0  3.624741  0
N  N95  1  0.56358027  0.87667253  0.36164500  1  0  -0.359156  -0.298399  0  3.622137  0
N  N96  1  0.43762947  0.28395304  0.94780637  1  0  -0.214369  0.021511  0  3.765723  0
N  N97  1  0.27850601  0.28391664  0.55216268  1  0  -0.213802  0.021315  0  3.762853  0
N  N98  1  0.56236967  0.71604888  0.05219469  1  0  -0.214388  0.021556  0  3.765724  0
N  N99  1  0.72149368  0.71608422  0.44783700  1  0  -0.213801  0.021313  0  3.762905  0
O  O100  1  0.20066377  0.97071258  0.72443022  1  0  -0.309763  -0.553501  0  2.343144  0
O  O101  1  0.82843617  0.97095095  0.77540024  1  0  -0.309877  -0.552089  0  2.344407  0
O  O102  1  0.79933589  0.02928614  0.27556964  1  0  -0.309767  -0.553509  0  2.343136  0
O  O103  1  0.17156457  0.02904778  0.22460082  1  0  -0.309884  -0.552095  0  2.344359  0
O  O104  1  0.41090805  0.85989163  0.79408174  1  0  -0.315383  -0.527625  0  2.31473  0
O  O105  1  0.72897048  0.85976306  0.70613313  1  0  -0.31531  -0.527227  0  2.313575  0
O  O106  1  0.58909161  0.14010709  0.20591813  1  0  -0.315412  -0.52763  0  2.314746  0
O  O107  1  0.27102921  0.14023779  0.29386587  1  0  -0.315287  -0.527218  0  2.313602  0
O  O108  1  0.11410988  0.83302941  0.12620625  1  0  -0.339753  -0.580789  0  2.382829  0
O  O109  1  0.05299221  0.83278267  0.37361392  1  0  -0.340542  -0.581978  0  2.383148  0
O  O110  1  0.88589033  0.16697038  0.87379413  1  0  -0.339711  -0.580707  0  2.382856  0
O  O111  1  0.94700855  0.16721606  0.62638508  1  0  -0.340526  -0.581974  0  2.383163  0
O  O112  1  0.99295237  0.68454547  0.16289536  1  0  -0.329384  -0.559894  0  2.11477  0
O  O113  1  0.32274923  0.68455555  0.33705886  1  0  -0.327541  -0.558526  0  2.118307  0
O  O114  1  0.00704514  0.31545539  0.83710468  1  0  -0.329426  -0.55989  0  2.114782  0
O  O115  1  0.67724990  0.31544424  0.66294100  1  0  -0.32755  -0.558516  0  2.118318  0
