# generated using pymatgen
data_Cu3H32C16S4(Br3O2)2
_symmetry_space_group_name_H-M   'P 1'
_cell_length_a   8.24611804
_cell_length_b   9.41202969
_cell_length_c   11.53513620
_cell_angle_alpha   115.05705166
_cell_angle_beta   95.39454385
_cell_angle_gamma   107.00536340
_symmetry_Int_Tables_number   1
_chemical_formula_structural   Cu3H32C16S4(Br3O2)2
_chemical_formula_sum   'Cu3 H32 C16 S4 Br6 O4'
_cell_volume   750.62588200
_cell_formula_units_Z   1
loop_
 _symmetry_equiv_pos_site_id
 _symmetry_equiv_pos_as_xyz
  1  'x, y, z'
loop_
 _atom_site_type_symbol
 _atom_site_label
 _atom_site_symmetry_multiplicity
 _atom_site_fract_x
 _atom_site_fract_y
 _atom_site_fract_z
 _atom_site_occupancy
 _atom_site_pbe_cm5_charge
 _atom_site_pbe_ddec_charge
 _atom_site_pbe_ddec_spin_density
 _atom_site_pbe_ddec_sum_bond_order
 _atom_site_pbe_magmom
Cu  Cu0  1  0.01532722  0.94468825  0.33639463  1  0.346829  0.489881  -0.53934  2.572648  -0.411
Cu  Cu1  1  0.98465110  0.05529442  0.66360160  1  0.346826  0.489874  -0.539309  2.572585  -0.411
Cu  Cu2  1  0.00001048  0.49999416  0.99999538  1  0.642939  0.894667  0.67529  2.212964  0.535
H  H3  1  0.68438943  0.62401743  0.83375982  1  0.092227  0.115509  -0.000556  1.038078  0.0
H  H4  1  0.31560105  0.37596168  0.16624810  1  0.092244  0.115526  -0.000556  1.037949  0.0
H  H5  1  0.46059915  0.53296741  0.83173273  1  0.09267  0.124023  -0.000338  1.014262  0.0
H  H6  1  0.53939060  0.46699663  0.16827171  1  0.092657  0.124074  -0.000338  1.014248  0.0
H  H7  1  0.58098286  0.51743747  0.60134897  1  0.089322  0.095374  -5.6e-05  1.003503  0.0
H  H8  1  0.41898782  0.48255397  0.39865586  1  0.089313  0.095342  -5.6e-05  1.003625  0.0
H  H9  1  0.37345389  0.38885581  0.59922323  1  0.079107  0.082252  0.000175  1.039327  0.0
H  H10  1  0.62653250  0.61112205  0.40078833  1  0.07905  0.082191  0.000175  1.03912  0.0
H  H11  1  0.48287775  0.18062214  0.47418746  1  0.084083  0.091929  -0.000241  1.032551  0.0
H  H12  1  0.51710850  0.81936559  0.52580495  1  0.084099  0.091934  -0.00024  1.032605  0.0
H  H13  1  0.70083364  0.29882427  0.57437032  1  0.08151  0.083449  -0.00039  1.03011  0.0
H  H14  1  0.29915047  0.70117092  0.42561757  1  0.081507  0.083412  -0.00039  1.029872  0.0
H  H15  1  0.38515079  0.13699494  0.66014978  1  0.092801  0.112316  0.000741  1.029166  0.001
H  H16  1  0.61486797  0.86298185  0.33984786  1  0.092757  0.11225  0.000741  1.029193  0.001
H  H17  1  0.58504872  0.09529145  0.65760294  1  0.100206  0.125043  -3.8e-05  1.012232  0.0
H  H18  1  0.41497319  0.90469405  0.34238315  1  0.100214  0.125125  -3.8e-05  1.012372  0.0
H  H19  1  0.33631012  0.96324567  0.00101841  1  0.101207  0.136005  -0.000387  0.989687  0.0
H  H20  1  0.66367789  0.03677604  0.99899011  1  0.101176  0.135965  -0.000388  0.98969  0.0
H  H21  1  0.19461964  0.03359573  0.93109216  1  0.08415  0.111105  0.000734  1.057936  0.001
H  H22  1  0.80535163  0.96640070  0.06890835  1  0.084162  0.111074  0.000734  1.057929  0.001
H  H23  1  0.45122430  0.92318612  0.80769854  1  0.08373  0.09318  -0.001041  1.012876  0.0
H  H24  1  0.54877839  0.07685208  0.19231657  1  0.083653  0.093128  -0.001041  1.012839  0.0
H  H25  1  0.26326420  0.93175414  0.72718714  1  0.075153  0.069345  -0.000142  1.051728  0.0
H  H26  1  0.73673568  0.06827650  0.27282693  1  0.075161  0.069371  -0.000142  1.051658  0.0
H  H27  1  0.22996262  0.63899406  0.59981698  1  0.093241  0.101056  -0.000388  0.989329  0.0
H  H28  1  0.77006429  0.36105056  0.40018799  1  0.093289  0.101206  -0.000388  0.989269  0.0
H  H29  1  0.29760207  0.62484987  0.74384367  1  0.091565  0.098974  0.000159  0.998874  0.0
H  H30  1  0.70241889  0.37518211  0.25615485  1  0.091606  0.099067  0.000159  0.998913  0.0
H  H31  1  0.95748325  0.67600210  0.66958202  1  0.086912  0.117782  -0.000574  1.026774  0.0
H  H32  1  0.04252433  0.32401346  0.33041782  1  0.086915  0.117777  -0.000574  1.026738  0.0
H  H33  1  0.97327241  0.50027331  0.68968937  1  0.095929  0.13787  -0.000979  1.017972  0.0
H  H34  1  0.02675174  0.49973475  0.31029334  1  0.095936  0.137905  -0.000978  1.017959  0.0
C  C35  1  0.56671260  0.50821255  0.78562564  1  -0.158449  -0.26084  0.000203  3.786017  0.001
C  C36  1  0.43329290  0.49177422  0.21438240  1  -0.158415  -0.260874  0.000203  3.785832  0.001
C  C37  1  0.51550355  0.42639591  0.63375474  1  -0.170844  -0.131832  3.1e-05  3.888795  0.0
C  C38  1  0.48446919  0.57358801  0.36624764  1  -0.170807  -0.131751  3.1e-05  3.888978  0.0
C  C39  1  0.56215973  0.26802354  0.57603104  1  -0.170561  -0.133428  -0.000492  3.913803  -0.001
C  C40  1  0.43785463  0.73197081  0.42397235  1  -0.170537  -0.133283  -0.000492  3.913734  -0.001
C  C41  1  0.52567361  0.18838905  0.66613364  1  -0.151119  -0.244656  0.00366  3.810816  0.004
C  C42  1  0.47433300  0.81159766  0.33386403  1  -0.15113  -0.244769  0.003661  3.811025  0.004
C  C43  1  0.24217845  0.93008595  0.91149005  1  -0.156845  -0.251717  0.006506  3.781364  0.007
C  C44  1  0.75781213  0.06992953  0.08851909  1  -0.156808  -0.251605  0.006507  3.781293  0.007
C  C45  1  0.30744135  0.87616534  0.78478718  1  -0.169595  -0.123603  -0.001527  3.890403  -0.002
C  C46  1  0.69256066  0.12386782  0.21522442  1  -0.16955  -0.123581  -0.001527  3.890394  -0.002
C  C47  1  0.22706512  0.68345663  0.70401749  1  -0.168529  -0.126944  -0.000123  3.916948  0.0
C  C48  1  0.77295107  0.31656903  0.29598204  1  -0.168653  -0.127336  -0.000124  3.917399  0.0
C  C49  1  0.04014242  0.63362565  0.71802714  1  -0.162858  -0.267221  -0.002092  3.827952  -0.002
C  C50  1  0.95987349  0.36638620  0.28196848  1  -0.162812  -0.267095  -0.002092  3.827872  -0.002
S  S51  1  0.05855647  0.75097181  0.89381831  1  0.282748  0.583564  0.005526  3.861622  0.0
S  S52  1  0.94144113  0.24902355  0.10617397  1  0.282701  0.583476  0.005528  3.862027  0.0
S  S53  1  0.62522335  0.36317606  0.83215185  1  0.290066  0.614268  -0.000767  3.778124  -0.003
S  S54  1  0.37478899  0.63680316  0.16784363  1  0.290103  0.614257  -0.000769  3.777988  -0.003
Br  Br55  1  0.80716308  0.72086101  0.13985142  1  -0.226076  -0.444282  -0.12561  1.576378  -0.121
Br  Br56  1  0.19283284  0.27913309  0.86014205  1  -0.226079  -0.444322  -0.125608  1.576419  -0.121
Br  Br57  1  0.21265106  0.08413290  0.24996026  1  -0.239404  -0.39968  -0.122673  1.364981  -0.117
Br  Br58  1  0.78733279  0.91586754  0.75005716  1  -0.239411  -0.399665  -0.122674  1.364877  -0.117
Br  Br59  1  0.99071527  0.80495381  0.47263150  1  -0.168459  -0.31166  -0.156215  1.702466  -0.149
Br  Br60  1  0.00927273  0.19503524  0.52736667  1  -0.16846  -0.311629  -0.156235  1.702303  -0.149
O  O61  1  0.15034534  0.66928136  0.95719004  1  -0.364518  -0.570784  0.053889  2.359626  0.075
O  O62  1  0.84968131  0.33071679  0.04280417  1  -0.364501  -0.570753  0.053871  2.360111  0.075
O  O63  1  0.82301671  0.40850698  0.83434549  1  -0.357662  -0.563622  0.044698  2.377406  0.062
O  O64  1  0.17699456  0.59149230  0.16565160  1  -0.357687  -0.563613  0.044706  2.377445  0.062
