# generated using pymatgen
data_Zn2H20C19(NO5)2
_symmetry_space_group_name_H-M   'P 1'
_cell_length_a   9.64924975
_cell_length_b   11.16475770
_cell_length_c   10.90765503
_cell_angle_alpha   88.03736398
_cell_angle_beta   91.87670682
_cell_angle_gamma   79.90358404
_symmetry_Int_Tables_number   1
_chemical_formula_structural   Zn2H20C19(NO5)2
_chemical_formula_sum   'Zn2 H20 C19 N2 O10'
_cell_volume   1155.32523856
_cell_formula_units_Z   1
loop_
 _symmetry_equiv_pos_site_id
 _symmetry_equiv_pos_as_xyz
  1  'x, y, z'
loop_
 _atom_site_type_symbol
 _atom_site_label
 _atom_site_symmetry_multiplicity
 _atom_site_fract_x
 _atom_site_fract_y
 _atom_site_fract_z
 _atom_site_occupancy
 _atom_site_pbe_bader_charge
 _atom_site_pbe_bader_spin_density
 _atom_site_pbe_cm5_charge
 _atom_site_pbe_ddec_charge
 _atom_site_pbe_ddec_spin_density
 _atom_site_pbe_ddec_sum_bond_order
 _atom_site_pbe_magmom
Zn  Zn0  1  0.64498951  0.46922647  0.48504307  1  1.284063  0  0.664103  0.842051  0  2.454899  0
Zn  Zn1  1  0.35303534  0.51831496  0.47244304  1  1.28362  0  0.663549  0.845303  0  2.413623  0
H  H2  1  0.73472649  0.43966529  0.10717438  1  0.032242  0  0.089223  0.090983  0  0.99114  0
H  H3  1  0.32006337  0.62720725  0.85135762  1  0.10489  0  0.098526  0.116153  0  0.980424  0
H  H4  1  0.36733801  0.36576127  0.09892271  1  0.024084  0  0.09325  0.093657  0  0.99321  0
H  H5  1  0.33218911  0.40100080  0.88711781  1  0.042922  0  0.088118  0.085343  0  0.994554  0
H  H6  1  0.59319153  0.07194721  0.43171520  1  0.092716  0  0.113806  0.137303  0  0.982638  0
H  H7  1  0.27889024  0.91938479  0.45272768  1  0.109461  0  0.11306  0.120931  0  0.982978  0
H  H8  1  0.59634302  0.88296882  0.52397121  1  0.07799  0  0.107042  0.123088  0  0.993494  0
H  H9  1  0.88685978  0.47686159  0.66994962  1  0.163347  0  0.147411  0.120378  0  0.941826  0
H  H10  1  0.91200555  0.43594132  0.40727738  1  0.439844  0  0.323152  0.292406  0  0.901155  0
H  H11  1  0.16072380  0.43442370  0.64922925  1  0.165073  0  0.144309  0.114502  0  0.9534  0
H  H12  1  0.68050121  0.59572841  0.07011151  1  0.015913  0  0.087702  0.082701  0  0.98391  0
H  H13  1  0.06493825  0.57069716  0.41944118  1  0.453429  0  0.322809  0.290206  0  0.90374  0
H  H14  1  0.71751001  0.54289930  0.86604862  1  0.019087  0  0.086143  0.081579  0  0.993525  0
H  H15  1  0.72042408  0.38695593  0.90052093  1  0.024908  0  0.087525  0.085911  0  0.984194  0
H  H16  1  0.54748632  0.30232118  0.08719506  1  0.007754  0  0.091378  0.090167  0  0.973625  0
H  H17  1  0.49356691  0.29808300  0.87620207  1  0.019255  0  0.089091  0.084799  0  0.981253  0
H  H18  1  0.42984668  0.69236396  0.07689314  1  0.012907  0  0.09131  0.023096  0  0.961425  0
H  H19  1  0.47772283  0.68686030  0.87118735  1  0.007972  0  0.092582  0.095147  0  0.975073  0
H  H20  1  0.25187794  0.20370385  0.60367244  1  0.072348  0  0.098226  0.030421  0  0.975184  0
H  H21  1  0.26057138  0.57755286  0.14765944  1  0.631474  0  0.291373  0.33452  0  0.978202  0
C  C22  1  0.49189155  0.72823614  0.48838883  1  1.567556  0  0.204506  0.632261  0  4.189339  0
C  C23  1  0.51152170  0.49009950  0.85946345  1  0.061484  0  -0.017999  0.027888  0  3.801872  0
C  C24  1  0.44480198  0.38471675  0.91432214  1  -0.031522  0  -0.157209  -0.170993  0  3.865526  0
C  C25  1  0.42433758  0.61120070  0.89830776  1  -0.057755  0  -0.16029  -0.240751  0  3.835675  0
C  C26  1  0.38118816  0.07673812  0.48239466  1  -0.075847  0  2.5e-05  0.070633  0  3.97286  0
C  C27  1  0.49585282  0.12745796  0.46007607  1  -0.010041  0  -0.078742  -0.249195  0  3.828855  0
C  C28  1  0.37995082  0.94686134  0.47435519  1  -0.043295  0  -0.069327  -0.062551  0  3.953609  0
C  C29  1  0.49463874  0.86000146  0.49683210  1  -0.015738  0  -0.089469  -0.21657  0  3.894619  0
C  C30  1  0.93649578  0.46753745  0.58079325  1  0.717672  0  0.129838  0.175653  0  3.835313  0
C  C31  1  0.08760629  0.47525317  0.57391896  1  0.688549  0  0.130525  0.186207  0  3.833438  0
C  C32  1  0.50381912  0.50254266  0.23798000  1  1.522119  0  0.223929  0.596118  0  4.089274  0
C  C33  1  0.49671538  0.25913859  0.46842462  1  1.557923  0  0.206195  0.627759  0  4.197862  0
C  C34  1  0.51011319  0.48370147  0.71996003  1  1.522684  0  0.221894  0.594571  0  4.096694  0
C  C35  1  0.65614084  0.50493567  0.05291436  1  -0.001398  0  -0.165002  -0.174957  0  3.911565  0
C  C36  1  0.66209710  0.47886060  0.91497545  1  -0.033296  0  -0.16631  -0.180519  0  3.904499  0
C  C37  1  0.46480079  0.37905771  0.05572795  1  0.012265  0  -0.159062  -0.166197  0  3.864619  0
C  C38  1  0.40443234  0.60812810  0.03800908  1  0.479251  0  -0.000569  0.208803  0  3.828844  0
C  C39  1  0.50862454  0.49826672  0.09863657  1  0.031146  0  -0.022541  -0.051558  0  3.801347  0
C  C40  1  0.24531856  0.15377499  0.51766609  1  0.963679  0  0.10227  0.297019  0  3.958772  0
N  N41  1  0.85997230  0.44961652  0.48773776  1  -1.18725  0  -0.426041  -0.370611  0  3.256106  0
N  N42  1  0.13827423  0.52953525  0.48521110  1  -1.20561  0  -0.430014  -0.37928  0  3.228255  0
O  O43  1  0.61050975  0.65736959  0.50533657  1  -1.161284  0  -0.328418  -0.565638  0  2.267963  0
O  O44  1  0.37355033  0.69563299  0.46557584  1  -1.165703  0  -0.32646  -0.551982  0  2.290541  0
O  O45  1  0.61864731  0.49838267  0.29928135  1  -1.173407  0  -0.313245  -0.537641  0  2.34047  0
O  O46  1  0.38231599  0.50955044  0.28469857  1  -1.169943  0  -0.315007  -0.560512  0  2.320341  0
O  O47  1  0.61579055  0.29265324  0.46298157  1  -1.144583  0  -0.317462  -0.535107  0  2.26181  0
O  O48  1  0.37786499  0.32905759  0.47971160  1  -1.148555  0  -0.310309  -0.559798  0  2.337085  0
O  O49  1  0.62808392  0.45321104  0.67006843  1  -1.165972  0  -0.318504  -0.553036  0  2.346433  0
O  O50  1  0.39092306  0.50820387  0.66214505  1  -1.182753  0  -0.320938  -0.570477  0  2.3364  0
O  O51  1  0.13295586  0.15506989  0.46185968  1  -1.08738  0  -0.278011  -0.371465  0  2.085191  0
O  O52  1  0.26076463  0.60057417  0.05978010  1  -1.148295  0  -0.431941  -0.528715  0  2.169051  0
