# generated using pymatgen
data_Zn2H3C43Br20(NO5)2
_symmetry_space_group_name_H-M   'P 1'
_cell_length_a   17.01449467
_cell_length_b   17.78130853
_cell_length_c   28.59317022
_cell_angle_alpha   90.21061435
_cell_angle_beta   89.80215379
_cell_angle_gamma   91.30761992
_symmetry_Int_Tables_number   1
_chemical_formula_structural   Zn2H3C43Br20(NO5)2
_chemical_formula_sum   'Zn4 H6 C86 Br40 N4 O20'
_cell_volume   8648.21682418
_cell_formula_units_Z   2
loop_
 _symmetry_equiv_pos_site_id
 _symmetry_equiv_pos_as_xyz
  1  'x, y, z'
loop_
 _atom_site_type_symbol
 _atom_site_label
 _atom_site_symmetry_multiplicity
 _atom_site_fract_x
 _atom_site_fract_y
 _atom_site_fract_z
 _atom_site_occupancy
 _atom_site_pbe_bader_charge
 _atom_site_pbe_bader_spin_density
 _atom_site_pbe_cm5_charge
 _atom_site_pbe_ddec_charge
 _atom_site_pbe_ddec_spin_density
 _atom_site_pbe_ddec_sum_bond_order
 _atom_site_pbe_magmom
Zn  Zn0  1  0.59214154  0.48814555  0.48784784  1  1.309599  0  0.666657  0.90512  0  2.208293  0
Zn  Zn1  1  0.41272306  0.48362744  0.50436840  1  1.313856  0  0.670094  0.913846  0  2.269557  0
Zn  Zn2  1  0.41139454  0.48301176  0.87780697  1  1.320294  0  0.671707  0.915113  0  2.281813  0
Zn  Zn3  1  0.59276141  0.48884757  0.88581954  1  1.31689  0  0.674872  0.925719  0  2.180607  0
H  H4  1  0.62103013  0.40432496  0.77510272  1  0.127696  0  0.095227  0.106495  0  1.073098  0
H  H5  1  0.60325994  0.38750498  0.60220941  1  0.121024  0  0.098093  0.10894  0  1.055037  0
H  H6  1  0.37909063  0.52677070  0.64870473  1  0.089525  0  0.106588  0.11504  0  0.992228  0
H  H7  1  0.38206043  0.52627302  0.73619796  1  0.072838  0  0.101416  0.107447  0  1.013784  0
H  H8  1  0.66784801  0.28160353  0.77975985  1  0.585074  0  0.306238  0.338682  0  0.952559  0
H  H9  1  0.72960455  0.37729933  0.58723101  1  0.594423  0  0.297284  0.32695  0  0.982601  0
C  C10  1  0.52131008  0.62806139  0.50138178  1  1.642324  0  0.211248  0.617623  0  4.173042  0
C  C11  1  0.48164991  0.47344888  0.58896470  1  1.588663  0  0.204808  0.591037  0  4.170007  0
C  C12  1  0.53452681  0.34429549  0.49758730  1  1.618474  0  0.208569  0.614287  0  4.162651  0
C  C13  1  0.46654657  0.49817451  0.41063264  1  1.63514  0  0.214042  0.623766  0  4.139682  0
C  C14  1  0.51999152  0.62831496  0.88193880  1  1.643767  0  0.209643  0.615607  0  4.161727  0
C  C15  1  0.48788084  0.47360358  0.79270368  1  1.514206  0  0.213246  0.602872  0  4.147522  0
C  C16  1  0.52976228  0.34356613  0.88661287  1  1.64412  0  0.204151  0.605495  0  4.205903  0
C  C17  1  0.46440594  0.49585807  0.96937220  1  1.620986  0  0.206988  0.613957  0  4.17074  0
C  C18  1  0.24227968  0.57221022  0.51170191  1  0.549747  0  0.112656  0.203606  0  3.980675  0
C  C19  1  0.16669582  0.58614536  0.49464538  1  -0.030659  0  -0.01354  -0.017831  0  3.901583  0
C  C20  1  0.12430601  0.52708691  0.47213533  1  0.1682  0  0.009706  0.103591  0  4.059602  0
C  C21  1  0.16102180  0.45690423  0.46660272  1  0.015621  0  -0.012949  -0.013983  0  3.906892  0
C  C22  1  0.23650896  0.44908411  0.48491314  1  0.553765  0  0.108366  0.188833  0  4.008008  0
C  C23  1  0.04432242  0.53417085  0.46048589  1  0.188105  0  -0.027552  -0.051867  0  4.079276  0
C  C24  1  0.97299955  0.53289763  0.45646381  1  -0.364266  0  -0.030616  -0.061947  0  4.083296  0
C  C25  1  0.89058705  0.52417889  0.45928047  1  0.15626  0  0.010454  0.106924  0  4.06268  0
C  C26  1  0.85235315  0.53367663  0.50295083  1  0.01281  0  -0.011626  -0.012189  0  3.907286  0
C  C27  1  0.77180623  0.51711929  0.50560826  1  0.497494  0  0.108177  0.187775  0  3.993233  0
C  C28  1  0.76373705  0.48617956  0.42708206  1  0.5159  0  0.111505  0.201381  0  3.981045  0
C  C29  1  0.84469397  0.50028179  0.42068398  1  0.011389  0  -0.011784  -0.015344  0  3.901075  0
C  C30  1  0.51807474  0.71309110  0.50319611  1  0.059132  0  -0.019411  -0.085503  0  3.922759  0
C  C31  1  0.55835252  0.75338568  0.53840655  1  0.009919  0  -0.02285  0.040732  0  3.953143  0
C  C32  1  0.55714471  0.83201219  0.53998962  1  -0.054838  0  -0.018077  0.024493  0  3.917718  0
C  C33  1  0.51532113  0.87234007  0.50582829  1  0.197613  0  -0.009616  0.066301  0  4.084257  0
C  C34  1  0.47168013  0.83123991  0.47181781  1  -0.065281  0  -0.017758  0.024867  0  3.911785  0
C  C35  1  0.47205180  0.75247475  0.47105239  1  0.00308  0  -0.024051  0.034268  0  3.953834  0
C  C36  1  0.51726920  0.95174360  0.50581751  1  -0.038226  0  -0.048574  -0.078635  0  4.135646  0
C  C37  1  0.52137093  0.02028471  0.50549143  1  -0.262185  0  -0.044639  -0.069531  0  4.129564  0
C  C38  1  0.52683991  0.09959839  0.50448672  1  0.172654  0  -0.007722  0.067303  0  4.08208  0
C  C39  1  0.56956992  0.13715886  0.46862455  1  0.003626  0  -0.015616  0.027921  0  3.904322  0
C  C40  1  0.57351531  0.21587634  0.46711238  1  -0.029986  0  -0.01873  0.049914  0  3.935314  0
C  C41  1  0.53543473  0.25915744  0.50129005  1  0.064415  0  -0.016705  -0.081442  0  3.904716  0
C  C42  1  0.49444310  0.22201666  0.53764143  1  0.0125  0  -0.020904  0.036464  0  3.949171  0
C  C43  1  0.48970588  0.14339465  0.53921457  1  -0.090582  0  -0.016643  0.026804  0  3.914813  0
C  C44  1  0.49172825  0.47074194  0.74022665  1  0.023948  0  -0.010912  -0.064315  0  3.902522  0
C  C45  1  0.55383122  0.43612544  0.71475868  1  -0.044441  0  -0.003053  0.070493  0  3.93177  0
C  C46  1  0.42968623  0.50166984  0.71616860  1  -0.040121  0  -0.079674  -0.079686  0  3.97485  0
C  C47  1  0.61707267  0.40003325  0.73724961  1  -0.09858  0  -0.103412  -0.178579  0  4.011202  0
C  C48  1  0.67334519  0.36151372  0.71259455  1  0.021078  0  -0.015761  -0.061535  0  4.001303  0
C  C49  1  0.48699513  0.46889205  0.64120028  1  0.000602  0  -0.009559  -0.05777  0  3.9107  0
C  C50  1  0.42769948  0.50141617  0.66716229  1  0.003872  0  -0.080109  -0.085242  0  3.972802  0
C  C51  1  0.55072619  0.43395678  0.66449687  1  0.003313  0  -0.00163  0.066187  0  3.933439  0
C  C52  1  0.60892017  0.39291412  0.64000298  1  -0.043034  0  -0.094083  -0.162997  0  3.976397  0
C  C53  1  0.66857468  0.35673912  0.66292375  1  -0.04954  0  -0.016507  -0.065197  0  3.994901  0
C  C54  1  0.45742556  0.50734017  0.02185228  1  0.13358  0  -0.017847  -0.079032  0  3.905777  0
C  C55  1  0.41296847  0.45607567  0.04907891  1  -0.028813  0  -0.023003  0.041813  0  3.94724  0
C  C56  1  0.40546395  0.46604797  0.09743384  1  -0.056546  0  -0.018841  0.028331  0  3.912048  0
C  C57  1  0.44114094  0.52914285  0.12010084  1  0.200279  0  -0.010258  0.061485  0  4.081362  0
C  C58  1  0.48549076  0.58076687  0.09232232  1  -0.017236  0  -0.018042  0.027078  0  3.909458  0
C  C59  1  0.49524055  0.56885761  0.04417734  1  -0.075767  0  -0.023185  0.034434  0  3.949163  0
C  C60  1  0.43560945  0.53794846  0.16909854  1  0.031064  0  -0.044001  -0.064442  0  4.105891  0
C  C61  1  0.43366249  0.54124688  0.21178868  1  -0.27298  0  -0.046889  -0.074697  0  4.108522  0
C  C62  1  0.43675343  0.53710690  0.26105442  1  0.067079  0  -0.007655  0.06897  0  4.078722  0
C  C63  1  0.38450312  0.48855400  0.28603950  1  0.052345  0  -0.018779  0.02638  0  3.907335  0
C  C64  1  0.39526202  0.47515379  0.33376749  1  -0.020641  0  -0.020245  0.049038  0  3.931248  0
C  C65  1  0.45521800  0.51336217  0.35894527  1  0.04098  0  -0.020714  -0.093116  0  3.899343  0
C  C66  1  0.50402619  0.56592364  0.33501896  1  -0.037663  0  -0.0226  0.039778  0  3.941175  0
C  C67  1  0.49515206  0.57735337  0.28683939  1  -0.025976  0  -0.018719  0.024405  0  3.907328  0
C  C68  1  0.77264530  0.53212571  0.85493190  1  0.521265  0  0.110299  0.19485  0  3.988167  0
C  C69  1  0.85179996  0.55455513  0.85938479  1  -0.027172  0  -0.010583  -0.011656  0  3.898972  0
C  C70  1  0.88970737  0.54318280  0.90268931  1  0.190986  0  0.010123  0.105611  0  4.064363  0
C  C71  1  0.84433981  0.51373395  0.94013918  1  0.053092  0  -0.013564  -0.014368  0  3.904471  0
C  C72  1  0.76489366  0.49498735  0.93244166  1  0.514037  0  0.109852  0.197615  0  3.9863  0
C  C73  1  0.97185759  0.55366513  0.90626274  1  -0.240856  0  -0.028555  -0.054788  0  4.074303  0
C  C74  1  0.04344057  0.55304636  0.90440294  1  0.061008  0  -0.029218  -0.055725  0  4.075801  0
C  C75  1  0.12400260  0.54112456  0.89632187  1  0.168849  0  0.010456  0.105359  0  4.056339  0
C  C76  1  0.17116100  0.59355496  0.87103187  1  -0.016296  0  -0.013871  -0.019338  0  3.903979  0
C  C77  1  0.24775042  0.57387726  0.85818685  1  0.551623  0  0.112149  0.200796  0  3.985546  0
C  C78  1  0.23390366  0.45750843  0.89395769  1  0.52201  0  0.108794  0.193155  0  3.99777  0
C  C79  1  0.15709025  0.47150095  0.90861438  1  -0.024737  0  -0.011243  -0.010107  0  3.897581  0
C  C80  1  0.51368165  0.71320300  0.88323352  1  0.05997  0  -0.020266  -0.091001  0  3.905707  0
C  C81  1  0.45534602  0.74811905  0.91044930  1  -0.026805  0  -0.022407  0.035931  0  3.950201  0
C  C82  1  0.45116491  0.82671284  0.91198571  1  -0.040922  0  -0.018738  0.023374  0  3.9134  0
C  C83  1  0.50404071  0.87240450  0.88570540  1  0.19859  0  -0.008901  0.068531  0  4.087429  0
C  C84  1  0.56023475  0.83700679  0.85691674  1  -0.011858  0  -0.018065  0.02629  0  3.908435  0
C  C85  1  0.56465936  0.75856793  0.85580243  1  -0.067609  0  -0.021667  0.046877  0  3.940439  0
C  C86  1  0.50173648  0.95155892  0.88785913  1  -0.018535  0  -0.048542  -0.076349  0  4.135179  0
C  C87  1  0.50459060  0.02010191  0.88879622  1  -0.256006  0  -0.045855  -0.071411  0  4.132541  0
C  C88  1  0.51130847  0.09927425  0.88843266  1  0.162762  0  -0.010306  0.062464  0  4.08596  0
C  C89  1  0.50471406  0.13936874  0.84592525  1  -0.049261  0  -0.016831  0.026482  0  3.923183  0
C  C90  1  0.51309942  0.21772556  0.84572806  1  0.005973  0  -0.023715  0.028577  0  3.958662  0
C  C91  1  0.52800046  0.25814254  0.88708877  1  0.025925  0  -0.017181  -0.076755  0  3.929416  0
C  C92  1  0.53589220  0.21869552  0.92914062  1  0.01404  0  -0.021021  0.042513  0  3.950901  0
C  C93  1  0.52704853  0.14023229  0.93008254  1  -0.036501  0  -0.016255  0.027523  0  3.911179  0
C  C94  1  0.74239003  0.33158058  0.73867697  1  1.559908  0  0.22385  0.575508  0  4.134396  0
C  C95  1  0.72071501  0.30389238  0.63689744  1  1.552591  0  0.226748  0.578552  0  4.108405  0
Br  Br96  1  0.29601394  0.64489470  0.54815361  1  0.051178  0  0.084275  0.016232  0  1.511042  0
Br  Br97  1  0.28643323  0.35577162  0.48505058  1  0.049652  0  0.104305  0.030657  0  1.627733  0
Br  Br98  1  0.10678420  0.37662112  0.43730879  1  0.028685  0  0.068308  0.006689  0  1.463782  0
Br  Br99  1  0.11903330  0.67971684  0.50233648  1  0.028966  0  0.064069  -0.003307  0  1.468383  0
Br  Br100  1  0.91017817  0.56474149  0.55566876  1  0.03477  0  0.075324  0.012284  0  1.465624  0
Br  Br101  1  0.89477011  0.48657099  0.36271098  1  0.027415  0  0.067913  0.003102  0  1.453248  0
Br  Br102  1  0.70198844  0.45020640  0.37721293  1  0.05895  0  0.090312  0.022515  0  1.607388  0
Br  Br103  1  0.71775288  0.52059425  0.56319355  1  0.041914  0  0.130676  0.040661  0  1.751311  0
Br  Br104  1  0.61041583  0.69950055  0.58575102  1  -0.019897  0  0.033405  -0.030067  0  1.524586  0
Br  Br105  1  0.40878837  0.69915839  0.42715405  1  -0.000351  0  0.043091  -0.016773  0  1.628482  0
Br  Br106  1  0.41294383  0.88599270  0.42818189  1  -0.011279  0  0.038301  -0.029304  0  1.458474  0
Br  Br107  1  0.61083216  0.88720663  0.58693599  1  0.007195  0  0.046187  -0.019369  0  1.457133  0
Br  Br108  1  0.62047430  0.07795394  0.42325419  1  -0.005796  0  0.038128  -0.029512  0  1.455931  0
Br  Br109  1  0.43284618  0.09249007  0.58676844  1  -0.001083  0  0.039696  -0.031973  0  1.458078  0
Br  Br110  1  0.44603492  0.27905669  0.58534158  1  -0.0005  0  0.059917  0.002903  0  1.590296  0
Br  Br111  1  0.62799649  0.26478613  0.41755746  1  -0.013226  0  0.024362  -0.043444  0  1.555576  0
Br  Br112  1  0.36539623  0.37061762  0.02032066  1  -0.008046  0  0.032763  -0.036289  0  1.631364  0
Br  Br113  1  0.56038493  0.63591678  0.00931674  1  -0.005513  0  0.044319  -0.012866  0  1.623307  0
Br  Br114  1  0.53116581  0.66558367  0.12234430  1  -0.008007  0  0.036583  -0.03375  0  1.529336  0
Br  Br115  1  0.34905479  0.39523635  0.13406612  1  -0.007697  0  0.034866  -0.034545  0  1.569013  0
Br  Br116  1  0.29984214  0.44319524  0.25326820  1  -0.004597  0  0.035991  -0.033218  0  1.566396  0
Br  Br117  1  0.56110078  0.64550113  0.25381934  1  -2.1e-05  0  0.036841  -0.032486  0  1.535121  0
Br  Br118  1  0.58131147  0.62383485  0.36745980  1  -0.001988  0  0.040297  -0.020866  0  1.657279  0
Br  Br119  1  0.33116200  0.40059735  0.36326032  1  -0.007671  0  0.027669  -0.039901  0  1.60909  0
Br  Br120  1  0.72390114  0.53490041  0.79628821  1  0.058176  0  0.113137  0.049446  0  1.671271  0
Br  Br121  1  0.70340466  0.45162993  0.98018267  1  0.060044  0  0.092889  0.021196  0  1.604784  0
Br  Br122  1  0.89282224  0.49901225  0.99825110  1  0.023371  0  0.06338  -0.003723  0  1.469602  0
Br  Br123  1  0.90926331  0.59549462  0.80900962  1  0.032562  0  0.069218  0.002438  0  1.480733  0
Br  Br124  1  0.12830420  0.68605898  0.85424557  1  0.030966  0  0.065018  -0.002516  0  1.480085  0
Br  Br125  1  0.09671414  0.39947986  0.94159128  1  0.030378  0  0.068754  0.00374  0  1.469882  0
Br  Br126  1  0.27895580  0.36291140  0.90218791  1  0.050697  0  0.103278  0.032903  0  1.601514  0
Br  Br127  1  0.30756677  0.63655520  0.81811653  1  0.051079  0  0.08824  0.019293  0  1.532505  0
Br  Br128  1  0.38190514  0.69036642  0.94602481  1  -0.000689  0  0.042177  -0.014809  0  1.648233  0
Br  Br129  1  0.63728485  0.71323123  0.81466074  1  -0.00756  0  0.024367  -0.047744  0  1.598374  0
Br  Br130  1  0.62886496  0.89865237  0.82095265  1  -0.001257  0  0.042816  -0.0233  0  1.483761  0
Br  Br131  1  0.37498674  0.87577283  0.94854343  1  -0.002136  0  0.035947  -0.032827  0  1.466828  0
Br  Br132  1  0.48417174  0.08486220  0.79038660  1  0.000162  0  0.045594  -0.025514  0  1.472698  0
Br  Br133  1  0.53597522  0.08594196  0.98633241  1  -0.005673  0  0.040409  -0.027708  0  1.452981  0
Br  Br134  1  0.55739857  0.27354827  0.98463657  1  -0.009551  0  0.040602  -0.01909  0  1.556336  0
Br  Br135  1  0.50647557  0.27149546  0.78873841  1  -0.022263  0  0.080692  0.007585  0  1.627545  0
N  N136  1  0.27640345  0.50586306  0.50538354  1  -1.190724  0  -0.301413  -0.265798  0  3.446343  0
N  N137  1  0.72846096  0.49562273  0.46866482  1  -1.183394  0  -0.297496  -0.266832  0  3.430204  0
N  N138  1  0.73001511  0.50443584  0.89083746  1  -1.198713  0  -0.296984  -0.269977  0  3.42704  0
N  N139  1  0.27844697  0.50840818  0.87098631  1  -1.195818  0  -0.303092  -0.270772  0  3.454048  0
O  O140  1  0.58738828  0.59986224  0.49034750  1  -1.13505  0  -0.319122  -0.545685  0  2.35295  0
O  O141  1  0.45832933  0.59310896  0.51065641  1  -1.172296  0  -0.305698  -0.544558  0  2.449821  0
O  O142  1  0.41161547  0.46805203  0.57196799  1  -1.134095  0  -0.328852  -0.556251  0  2.343115  0
O  O143  1  0.54361740  0.48387087  0.56532821  1  -1.184096  0  -0.316147  -0.574502  0  2.355921  0
O  O144  1  0.46865218  0.37343311  0.49174043  1  -1.166681  0  -0.308422  -0.561656  0  2.371577  0
O  O145  1  0.60112103  0.37926334  0.50012366  1  -1.132081  0  -0.317996  -0.533866  0  2.33603  0
O  O146  1  0.53513385  0.48333856  0.42389290  1  -1.164227  0  -0.310827  -0.549616  0  2.419099  0
O  O147  1  0.40511950  0.50184220  0.43609400  1  -1.146034  0  -0.31464  -0.539656  0  2.413023  0
O  O148  1  0.45811889  0.59184526  0.87185302  1  -1.175251  0  -0.310567  -0.554611  0  2.46335  0
O  O149  1  0.58701594  0.60097009  0.89090212  1  -1.138896  0  -0.316529  -0.539793  0  2.363043  0
O  O150  1  0.55078231  0.48307107  0.81586863  1  -1.182619  0  -0.316137  -0.573237  0  2.410486  0
O  O151  1  0.41842567  0.46746574  0.80994705  1  -1.128146  0  -0.320255  -0.545784  0  2.359961  0
O  O152  1  0.59719898  0.37648575  0.88519726  1  -1.133431  0  -0.316241  -0.53394  0  2.312471  0
O  O153  1  0.46331336  0.37319501  0.88754141  1  -1.15921  0  -0.308161  -0.558037  0  2.375576  0
O  O154  1  0.40002389  0.49855275  0.94656574  1  -1.145872  0  -0.319357  -0.545021  0  2.375663  0
O  O155  1  0.53185310  0.48505941  0.95300926  1  -1.169458  0  -0.308504  -0.560548  0  2.414112  0
O  O156  1  0.72490452  0.29043637  0.77758755  1  -1.091412  0  -0.342554  -0.458652  0  2.209545  0
O  O157  1  0.81020373  0.34652382  0.72806591  1  -1.111923  0  -0.290515  -0.456293  0  2.042541  0
O  O158  1  0.74583660  0.32580044  0.59364701  1  -1.102021  0  -0.34652  -0.463232  0  2.223759  0
O  O159  1  0.73766371  0.24271191  0.65229896  1  -1.107885  0  -0.280465  -0.439625  0  2.035601  0
