# generated using pymatgen
data_LaH8C9NO7
_symmetry_space_group_name_H-M   'P 1'
_cell_length_a   8.36689763
_cell_length_b   9.56953061
_cell_length_c   17.06010000
_cell_angle_alpha   105.10381472
_cell_angle_beta   90.00000000
_cell_angle_gamma   90.00000000
_symmetry_Int_Tables_number   1
_chemical_formula_structural   LaH8C9NO7
_chemical_formula_sum   'La4 H32 C36 N4 O28'
_cell_volume   1318.76929773
_cell_formula_units_Z   4
loop_
 _symmetry_equiv_pos_site_id
 _symmetry_equiv_pos_as_xyz
  1  'x, y, z'
loop_
 _atom_site_type_symbol
 _atom_site_label
 _atom_site_symmetry_multiplicity
 _atom_site_fract_x
 _atom_site_fract_y
 _atom_site_fract_z
 _atom_site_occupancy
 _atom_site_pbe_bader_charge
 _atom_site_pbe_bader_spin_density
 _atom_site_pbe_cm5_charge
 _atom_site_pbe_ddec_charge
 _atom_site_pbe_ddec_spin_density
 _atom_site_pbe_ddec_sum_bond_order
 _atom_site_pbe_magmom
La  La0  1  0.42597987  0.33713016  0.90273334  1  2.256402  0  1.406106  1.856181  0  2.446049  0
La  La1  1  0.92598480  0.16287342  0.59726252  1  2.256455  0  1.40608  1.856199  0  2.446094  0
La  La2  1  0.57402041  0.66287158  0.09726580  1  2.256381  0  1.40606  1.85614  0  2.446127  0
La  La3  1  0.07401788  0.83712724  0.40273646  1  2.256404  0  1.406104  1.856192  0  2.446069  0
H  H4  1  0.68610496  0.16601555  0.78341881  1  0.667903  0  0.300377  0.392262  0  0.946718  0
H  H5  1  0.18610482  0.33398153  0.71658021  1  0.667903  0  0.30037  0.392254  0  0.946736  0
H  H6  1  0.31389412  0.83398728  0.21658049  1  0.66799  0  0.300323  0.392184  0  0.946838  0
H  H7  1  0.81389188  0.66601804  0.28342331  1  0.668009  0  0.30035  0.392244  0  0.946742  0
H  H8  1  0.74168710  0.13441024  0.86645182  1  0.621267  0  0.331321  0.412025  0  0.870595  0
H  H9  1  0.24168337  0.36559117  0.63354724  1  0.621258  0  0.331265  0.411973  0  0.870634  0
H  H10  1  0.25832155  0.86559150  0.13354556  1  0.621295  0  0.331263  0.411986  0  0.870672  0
H  H11  1  0.75831333  0.63441057  0.36645542  1  0.621205  0  0.331283  0.411938  0  0.870619  0
H  H12  1  0.45243771  0.99258532  0.94856140  1  0.103074  0  0.122278  0.08674  0  1.04254  0
H  H13  1  0.95243307  0.50742866  0.55143897  1  0.103111  0  0.122293  0.086825  0  1.042576  0
H  H14  1  0.54756735  0.00741751  0.05143790  1  0.102907  0  0.122274  0.086785  0  1.042579  0
H  H15  1  0.04755526  0.49257525  0.44855580  1  0.10296  0  0.122299  0.086758  0  1.042629  0
H  H16  1  0.03127802  0.86343433  0.74183162  1  0.090147  0  0.114628  0.125279  0  1.007256  0
H  H17  1  0.53128294  0.63656341  0.75817400  1  0.09014  0  0.114635  0.125288  0  1.007176  0
H  H18  1  0.96872107  0.13656308  0.25817099  1  0.090121  0  0.11464  0.125287  0  1.007251  0
H  H19  1  0.46872332  0.36344050  0.24182839  1  0.09018  0  0.114629  0.12523  0  1.007233  0
H  H20  1  0.14032441  0.66792519  0.80440416  1  0.131933  0  0.118116  0.120143  0  0.997381  0
H  H21  1  0.64032456  0.83207905  0.69560709  1  0.13192  0  0.11816  0.120191  0  0.997452  0
H  H22  1  0.85967587  0.33207656  0.19560260  1  0.131924  0  0.11816  0.120188  0  0.997426  0
H  H23  1  0.35968051  0.16792377  0.30439689  1  0.131897  0  0.118146  0.120206  0  0.997425  0
H  H24  1  0.02750004  0.56027122  0.89986214  1  0.098363  0  0.100658  0.158721  0  1.024004  0
H  H25  1  0.52749779  0.93972219  0.60013464  1  0.098403  0  0.100658  0.158706  0  1.024018  0
H  H26  1  0.97250503  0.43973160  0.10013423  1  0.098423  0  0.100651  0.15869  0  1.023905  0
H  H27  1  0.47251086  0.06026548  0.39985951  1  0.098574  0  0.100654  0.158703  0  1.023799  0
H  H28  1  0.86310366  0.53008923  0.82988075  1  0.054592  0  0.098116  0.146502  0  1.01059  0
H  H29  1  0.36310352  0.96990418  0.67011720  1  0.054566  0  0.098125  0.146496  0  1.010595  0
H  H30  1  0.13690020  0.46991143  0.17011530  1  0.05465  0  0.098137  0.146507  0  1.010604  0
H  H31  1  0.63690632  0.03008025  0.32987824  1  0.054481  0  0.09812  0.1465  0  1.010477  0
H  H32  1  0.92639953  0.39069358  0.87341473  1  0.05404  0  0.106863  0.161715  0  0.995425  0
H  H33  1  0.42639580  0.10930242  0.62658178  1  0.054106  0  0.106867  0.161709  0  0.995346  0
H  H34  1  0.07360195  0.60931141  0.12658371  1  0.053955  0  0.106863  0.161696  0  0.995393  0
H  H35  1  0.57361524  0.89068634  0.37341487  1  0.053894  0  0.106882  0.161642  0  0.995419  0
C  C36  1  0.36037730  0.71017348  0.92716763  1  1.620664  0  0.233277  0.613882  0  4.203398  0
C  C37  1  0.86038342  0.78983184  0.57283793  1  1.620487  0  0.233344  0.613926  0  4.203042  0
C  C38  1  0.63961820  0.28982718  0.07283546  1  1.620653  0  0.233303  0.613776  0  4.203208  0
C  C39  1  0.13962164  0.21016990  0.42716180  1  1.620161  0  0.233353  0.613932  0  4.203004  0
C  C40  1  0.29920290  0.81756983  0.88370335  1  0.05449  0  -0.004645  -0.074844  0  3.932493  0
C  C41  1  0.79920423  0.68244090  0.61630593  1  0.054798  0  -0.004553  -0.074717  0  3.932377  0
C  C42  1  0.70079500  0.18243407  0.11630080  1  0.054521  0  -0.004589  -0.074703  0  3.932454  0
C  C43  1  0.20079247  0.31756301  0.38369588  1  0.055115  0  -0.004612  -0.07469  0  3.9323  0
C  C44  1  0.35781721  0.95951231  0.90379916  1  0.476409  0  0.068611  0.100201  0  3.914404  0
C  C45  1  0.85781736  0.54050059  0.59620457  1  0.477201  0  0.068532  0.100014  0  3.914738  0
C  C46  1  0.64218546  0.04049051  0.09620190  1  0.477026  0  0.068567  0.100086  0  3.914515  0
C  C47  1  0.14217695  0.45950332  0.40379196  1  0.476196  0  0.068596  0.100097  0  3.914524  0
C  C48  1  0.18719722  0.02514570  0.81378253  1  0.442884  0  0.120765  0.099343  0  3.994441  0
C  C49  1  0.68720573  0.47485463  0.68621931  1  0.442402  0  0.120846  0.099444  0  3.994434  0
C  C50  1  0.81279828  0.97485279  0.18621965  1  0.44277  0  0.120707  0.099284  0  3.99452  0
C  C51  1  0.31279216  0.52514712  0.31377866  1  0.442624  0  0.120724  0.099207  0  3.994566  0
C  C52  1  0.12375794  0.88553857  0.78835757  1  0.016251  0  -0.071942  -0.128825  0  3.932736  0
C  C53  1  0.62376645  0.61446026  0.71165114  1  0.016594  0  -0.071989  -0.128792  0  3.932754  0
C  C54  1  0.87624235  0.11445776  0.21164547  1  0.016588  0  -0.071989  -0.128854  0  3.932779  0
C  C55  1  0.37623742  0.38554040  0.28835136  1  0.016594  0  -0.07197  -0.128696  0  3.93271  0
C  C56  1  0.18265671  0.77941292  0.82304104  1  -0.030605  0  -0.055112  -0.037894  0  3.918482  0
C  C57  1  0.68265924  0.72059240  0.67696979  1  -0.030466  0  -0.055143  -0.038059  0  3.918566  0
C  C58  1  0.81734238  0.22058774  0.17696498  1  -0.03048  0  -0.055136  -0.037996  0  3.91851  0
C  C59  1  0.31734224  0.27941042  0.32303244  1  -0.030394  0  -0.05513  -0.038112  0  3.918514  0
C  C60  1  0.13268239  0.14328462  0.77671955  1  1.609192  0  0.234986  0.568314  0  4.215276  0
C  C61  1  0.63268851  0.35671463  0.72328154  1  1.6086  0  0.234977  0.568238  0  4.215263  0
C  C62  1  0.86730355  0.85671496  0.22328631  1  1.608131  0  0.235157  0.568579  0  4.215255  0
C  C63  1  0.36730460  0.64328820  0.27671659  1  1.608321  0  0.234963  0.568304  0  4.215433  0
C  C64  1  0.91102824  0.50816143  0.88545385  1  -0.089686  0  -0.238291  -0.518511  0  3.863759  0
C  C65  1  0.41102690  0.99183415  0.61454384  1  -0.089703  0  -0.238287  -0.518449  0  3.863687  0
C  C66  1  0.08897563  0.49184356  0.11454342  1  -0.089636  0  -0.238313  -0.518494  0  3.863777  0
C  C67  1  0.58898175  0.00815460  0.38545165  1  -0.089603  0  -0.23832  -0.518416  0  3.863464  0
C  C68  1  0.79414501  0.56068469  0.95364441  1  1.540146  0  0.220037  0.726075  0  4.087858  0
C  C69  1  0.29414128  0.93930331  0.54635451  1  1.540092  0  0.220053  0.725962  0  4.087982  0
C  C70  1  0.20585527  0.43931597  0.04635281  1  1.539823  0  0.219966  0.726041  0  4.088091  0
C  C71  1  0.70586498  0.06068869  0.45364145  1  1.53972  0  0.220105  0.726111  0  4.087653  0
N  N72  1  0.30471868  0.06091491  0.86927759  1  -1.253839  0  -0.348486  -0.299287  0  3.453541  0
N  N73  1  0.80472838  0.43909084  0.63072328  1  -1.254382  0  -0.348474  -0.299253  0  3.453645  0
N  N74  1  0.69528160  0.93908576  0.13072257  1  -1.254385  0  -0.348464  -0.299252  0  3.453533  0
N  N75  1  0.19527071  0.56091199  0.36927250  1  -1.253494  0  -0.348478  -0.299177  0  3.453551  0
O  O76  1  0.32053458  0.57915323  0.89808915  1  -1.183552  0  -0.363897  -0.597598  0  2.277603  0
O  O77  1  0.82053472  0.92085209  0.60191230  1  -1.183632  0  -0.363932  -0.597642  0  2.27748  0
O  O78  1  0.67946332  0.42084743  0.10191276  1  -1.183547  0  -0.363919  -0.597559  0  2.277427  0
O  O79  1  0.17946556  0.07914965  0.39808626  1  -1.183608  0  -0.36389  -0.597591  0  2.277489  0
O  O80  1  0.44564069  0.76062075  0.99007648  1  -1.202888  0  -0.372511  -0.619671  0  2.257317  0
O  O81  1  0.94564202  0.73937916  0.50992887  1  -1.20298  0  -0.372575  -0.619694  0  2.257103  0
O  O82  1  0.55435243  0.23937992  0.00992836  1  -1.202796  0  -0.37253  -0.619634  0  2.257192  0
O  O83  1  0.05435946  0.26062042  0.49007113  1  -1.202959  0  -0.372585  -0.619721  0  2.257041  0
O  O84  1  0.01493744  0.11778606  0.72913711  1  -1.190489  0  -0.363655  -0.585431  0  2.295635  0
O  O85  1  0.51493877  0.38220561  0.77086287  1  -1.190125  0  -0.363685  -0.58542  0  2.295707  0
O  O86  1  0.98505926  0.88220486  0.27086397  1  -1.190112  0  -0.363715  -0.585499  0  2.295544  0
O  O87  1  0.48505673  0.61779938  0.22913674  1  -1.190076  0  -0.36364  -0.585411  0  2.295687  0
O  O88  1  0.21267620  0.26133478  0.79469662  1  -1.190733  0  -0.349142  -0.584973  0  2.307332  0
O  O89  1  0.71267873  0.23866338  0.70530139  1  -1.190768  0  -0.349194  -0.584942  0  2.307275  0
O  O90  1  0.78730257  0.73866913  0.20531222  1  -1.190364  0  -0.349212  -0.585094  0  2.307557  0
O  O91  1  0.28731438  0.76133728  0.29469584  1  -1.190694  0  -0.349168  -0.584908  0  2.307521  0
O  O92  1  0.64786498  0.14717900  0.83554457  1  -1.284782  0  -0.608295  -0.804966  0  2.006287  0
O  O93  1  0.14786484  0.35282458  0.66445657  1  -1.284786  0  -0.608244  -0.804902  0  2.006284  0
O  O94  1  0.35213888  0.85282599  0.16445622  1  -1.284794  0  -0.608192  -0.804861  0  2.006418  0
O  O95  1  0.85213425  0.64717067  0.33554631  1  -1.284776  0  -0.608253  -0.804856  0  2.006252  0
O  O96  1  0.83075476  0.66157598  0.01531255  1  -1.182586  0  -0.36868  -0.602328  0  2.107539  0
O  O97  1  0.33074147  0.83840228  0.48469081  1  -1.182618  0  -0.368766  -0.602338  0  2.107535  0
O  O98  1  0.16924553  0.33843009  0.98468429  1  -1.182615  0  -0.368621  -0.602268  0  2.107727  0
O  O99  1  0.66925762  0.16157998  0.51530900  1  -1.182354  0  -0.36868  -0.602288  0  2.107493  0
O  O100  1  0.65472774  0.50035102  0.94801823  1  -1.228588  0  -0.431438  -0.713081  0  2.335261  0
O  O101  1  0.15472999  0.99964997  0.55197673  1  -1.228593  0  -0.43138  -0.713  0  2.335368  0
O  O102  1  0.34527493  0.49965181  0.05197814  1  -1.228365  0  -0.431417  -0.71306  0  2.335184  0
O  O103  1  0.84528463  0.00035285  0.44801847  1  -1.228434  0  -0.431478  -0.713141  0  2.335157  0
