# generated using pymatgen
data_ZnH20C20S2(NO2)2
_symmetry_space_group_name_H-M   'P 1'
_cell_length_a   9.23491051
_cell_length_b   9.23494952
_cell_length_c   15.41556175
_cell_angle_alpha   97.54139416
_cell_angle_beta   97.54095881
_cell_angle_gamma   106.29920316
_symmetry_Int_Tables_number   1
_chemical_formula_structural   ZnH20C20S2(NO2)2
_chemical_formula_sum   'Zn2 H40 C40 S4 N4 O8'
_cell_volume   1231.27703967
_cell_formula_units_Z   2
loop_
 _symmetry_equiv_pos_site_id
 _symmetry_equiv_pos_as_xyz
  1  'x, y, z'
loop_
 _atom_site_type_symbol
 _atom_site_label
 _atom_site_symmetry_multiplicity
 _atom_site_fract_x
 _atom_site_fract_y
 _atom_site_fract_z
 _atom_site_occupancy
 _atom_site_hle17_bader_spin_density
 _atom_site_hle17_ddec_charge
 _atom_site_hle17_ddec_spin_density
 _atom_site_hle17_ddec_sum_bond_order
 _atom_site_hle17_magmom
 _atom_site_hse06_10hf_bader_spin_density
 _atom_site_hse06_10hf_ddec_charge
 _atom_site_hse06_10hf_ddec_spin_density
 _atom_site_hse06_10hf_ddec_sum_bond_order
 _atom_site_hse06_10hf_magmom
 _atom_site_hse06_bader_spin_density
 _atom_site_hse06_ddec_charge
 _atom_site_hse06_ddec_spin_density
 _atom_site_hse06_ddec_sum_bond_order
 _atom_site_hse06_magmom
 _atom_site_pbe_bader_spin_density
 _atom_site_pbe_cm5_charge
 _atom_site_pbe_ddec_charge
 _atom_site_pbe_ddec_spin_density
 _atom_site_pbe_ddec_sum_bond_order
 _atom_site_pbe_magmom
Zn  Zn0  1  0.67287842  0.32711849  0.75000115  1  0  1.011862  0  1.933392  0  0  0.836195  0  2.389914  0  0  0.881739  0  2.337163  0  0  0.684183  0.804703  0  2.425841  0
Zn  Zn1  1  0.32712368  0.67288406  0.25000088  1  0  1.011822  0  1.933457  0  0  0.836183  0  2.389978  0  0  0.881726  0  2.337227  0  0  0.684181  0.80469  0  2.425903  0
H  H2  1  0.32972479  0.57341053  0.81984779  1  0  0.127496  0  0.934264  0  0  0.150978  0  0.989418  0  0  0.152988  0  0.988935  0  0  0.096847  0.149584  0  0.989752  0
H  H3  1  0.42659401  0.67027428  0.68014765  1  0  0.127547  0  0.934284  0  0  0.151047  0  0.989404  0  0  0.153066  0  0.98891  0  0  0.096877  0.149652  0  0.989739  0
H  H4  1  0.67027812  0.42660229  0.18015186  1  0  0.127544  0  0.93423  0  0  0.151001  0  0.989409  0  0  0.153016  0  0.988922  0  0  0.096853  0.149605  0  0.989743  0
H  H5  1  0.57340719  0.32972140  0.31985312  1  0  0.127478  0  0.934207  0  0  0.150949  0  0.989373  0  0  0.152968  0  0.98888  0  0  0.096834  0.149554  0  0.989709  0
H  H6  1  0.38220465  0.62769148  0.93732430  1  0  0.107055  0  1.007933  0  0  0.121377  0  1.079591  0  0  0.123535  0  1.079211  0  0  0.080264  0.119867  0  1.079833  0
H  H7  1  0.37232183  0.61777700  0.56266853  1  0  0.107091  0  1.007974  0  0  0.121393  0  1.079639  0  0  0.12355  0  1.07926  0  0  0.08029  0.119887  0  1.079877  0
H  H8  1  0.61779115  0.37232695  0.06267329  1  0  0.107126  0  1.007953  0  0  0.121429  0  1.079601  0  0  0.123586  0  1.079221  0  0  0.08031  0.119922  0  1.079842  0
H  H9  1  0.62767846  0.38221181  0.43732904  1  0  0.107095  0  1.00792  0  0  0.121363  0  1.079621  0  0  0.123519  0  1.079241  0  0  0.080286  0.119852  0  1.079863  0
H  H10  1  0.28543125  0.43159151  0.88723865  1  0  0.126311  0  0.952731  0  0  0.146234  0  1.014192  0  0  0.148749  0  1.012812  0  0  0.091948  0.144425  0  1.015212  0
H  H11  1  0.56841905  0.71455963  0.61275508  1  0  0.126326  0  0.952818  0  0  0.146248  0  1.014265  0  0  0.148763  0  1.012887  0  0  0.092016  0.144439  0  1.015283  0
H  H12  1  0.71456574  0.56842351  0.11275876  1  0  0.126284  0  0.952842  0  0  0.146204  0  1.014285  0  0  0.148715  0  1.01291  0  0  0.092003  0.144395  0  1.015301  0
H  H13  1  0.43158148  0.28543375  0.38724286  1  0  0.126264  0  0.952866  0  0  0.146188  0  1.014305  0  0  0.148701  0  1.012929  0  0  0.091993  0.14438  0  1.015321  0
H  H14  1  0.05407175  0.67838566  0.93619656  1  0  0.129215  0  0.938573  0  0  0.151035  0  0.992169  0  0  0.153363  0  0.991117  0  0  0.093304  0.14938  0  0.992922  0
H  H15  1  0.32161001  0.94592527  0.56380285  1  0  0.129266  0  0.938608  0  0  0.151066  0  0.992222  0  0  0.153393  0  0.991169  0  0  0.093317  0.149412  0  0.992973  0
H  H16  1  0.94592716  0.32161341  0.06380170  1  0  0.12923  0  0.938584  0  0  0.151052  0  0.99218  0  0  0.15338  0  0.991127  0  0  0.093306  0.1494  0  0.992932  0
H  H17  1  0.67840052  0.05407623  0.43619262  1  0  0.129202  0  0.938642  0  0  0.151016  0  0.992245  0  0  0.153344  0  0.991192  0  0  0.093316  0.149361  0  0.992997  0
H  H18  1  0.96185160  0.72913969  0.02568244  1  0  0.122807  0  0.950136  0  0  0.139949  0  1.013837  0  0  0.142385  0  1.012954  0  0  0.090748  0.138259  0  1.014432  0
H  H19  1  0.27086254  0.03814921  0.47432275  1  0  0.122823  0  0.950266  0  0  0.139993  0  1.013918  0  0  0.142431  0  1.013033  0  0  0.090745  0.138304  0  1.014512  0
H  H20  1  0.03815699  0.27086636  0.97431972  1  0  0.122866  0  0.950131  0  0  0.14002  0  1.013816  0  0  0.142459  0  1.012928  0  0  0.090764  0.138331  0  1.014414  0
H  H21  1  0.72914633  0.96184656  0.52567474  1  0  0.122724  0  0.950403  0  0  0.139907  0  1.014054  0  0  0.142343  0  1.01317  0  0  0.090667  0.138218  0  1.01465  0
H  H22  1  0.96502906  0.82725929  0.93485623  1  0  0.125553  0  0.942399  0  0  0.145797  0  1.000488  0  0  0.148132  0  0.999928  0  0  0.093768  0.144174  0  1.00088  0
H  H23  1  0.17273731  0.03496982  0.56514607  1  0  0.125599  0  0.942331  0  0  0.145806  0  1.000459  0  0  0.148134  0  0.999906  0  0  0.093762  0.144182  0  1.000853  0
H  H24  1  0.03497995  0.17274448  0.06514384  1  0  0.125573  0  0.942453  0  0  0.145837  0  1.000511  0  0  0.148163  0  0.99996  0  0  0.0938  0.144213  0  1.000903  0
H  H25  1  0.82726593  0.96501788  0.43485035  1  0  0.125506  0  0.942366  0  0  0.14575  0  1.00047  0  0  0.148078  0  0.999917  0  0  0.093779  0.144128  0  1.000861  0
H  H26  1  0.67789995  0.77671644  0.79599367  1  0  0.11965  0  0.965128  0  0  0.126412  0  1.02841  0  0  0.130052  0  1.027873  0  0  0.105165  0.123778  0  1.028984  0
H  H27  1  0.22328000  0.32209720  0.70400582  1  0  0.119693  0  0.965239  0  0  0.126452  0  1.028516  0  0  0.130091  0  1.027977  0  0  0.10519  0.12382  0  1.029087  0
H  H28  1  0.32209325  0.22327800  0.20400703  1  0  0.119674  0  0.96507  0  0  0.126461  0  1.028325  0  0  0.130106  0  1.027789  0  0  0.105147  0.123826  0  1.028899  0
H  H29  1  0.77671747  0.67790071  0.29599354  1  0  0.11969  0  0.965224  0  0  0.126453  0  1.028499  0  0  0.130092  0  1.02796  0  0  0.105198  0.123818  0  1.029072  0
H  H30  1  0.68268346  0.99169545  0.71225462  1  0  0.078858  0  0.932076  0  0  0.087372  0  0.995818  0  0  0.090351  0  0.99248  0  0  0.116289  0.085102  0  0.998346  0
H  H31  1  0.00830553  0.31731562  0.78774719  1  0  0.078909  0  0.932121  0  0  0.087458  0  0.995822  0  0  0.090417  0  0.992507  0  0  0.116309  0.08519  0  0.998352  0
H  H32  1  0.31731208  0.00830701  0.28774884  1  0  0.078906  0  0.932098  0  0  0.087464  0  0.995788  0  0  0.090412  0  0.992484  0  0  0.116322  0.085195  0  0.998318  0
H  H33  1  0.99168952  0.68267769  0.21225162  1  0  0.078862  0  0.932119  0  0  0.087411  0  0.995821  0  0  0.09037  0  0.992507  0  0  0.116289  0.085141  0  0.99835  0
H  H34  1  0.67199531  0.28386504  0.93700500  1  0  0.075023  0  0.966209  0  0  0.081345  0  1.0361  0  0  0.083765  0  1.033845  0  0  0.112581  0.079493  0  1.03786  0
H  H35  1  0.71612712  0.32799129  0.56299537  1  0  0.075118  0  0.966238  0  0  0.081474  0  1.03606  0  0  0.083894  0  1.03381  0  0  0.112623  0.07962  0  1.037817  0
H  H36  1  0.32800690  0.71613408  0.06299742  1  0  0.075028  0  0.966216  0  0  0.081355  0  1.036095  0  0  0.083775  0  1.033844  0  0  0.112582  0.079502  0  1.037854  0
H  H37  1  0.28387103  0.67200891  0.43700357  1  0  0.075053  0  0.966268  0  0  0.081407  0  1.036104  0  0  0.083827  0  1.033851  0  0  0.112598  0.079554  0  1.037864  0
H  H38  1  0.66578894  0.08327753  0.03132670  1  0  0.111142  0  0.936692  0  0  0.124368  0  0.990177  0  0  0.127732  0  0.989427  0  0  0.107333  0.121881  0  0.991018  0
H  H39  1  0.91671788  0.33420970  0.46867434  1  0  0.111167  0  0.93658  0  0  0.124381  0  0.990092  0  0  0.127727  0  0.989359  0  0  0.107327  0.121893  0  0.990932  0
H  H40  1  0.33421250  0.91672272  0.96867510  1  0  0.111137  0  0.936631  0  0  0.124357  0  0.990138  0  0  0.1277  0  0.989405  0  0  0.107317  0.121867  0  0.99098  0
H  H41  1  0.08328379  0.66579512  0.53132589  1  0  0.11112  0  0.936659  0  0  0.124357  0  0.990151  0  0  0.1277  0  0.989422  0  0  0.107326  0.121878  0  0.990982  0
C  C42  1  0.37134098  0.53744986  0.88121318  1  0  -0.414893  0  3.697753  0  0  -0.495239  0  3.936567  0  0  -0.500731  0  3.940189  0  0  -0.254094  -0.491284  0  3.933838  0
C  C43  1  0.46256007  0.62865201  0.61878461  1  0  -0.415066  0  3.69773  0  0  -0.495429  0  3.936543  0  0  -0.500926  0  3.940159  0  0  -0.254241  -0.491474  0  3.933818  0
C  C44  1  0.62866007  0.46256408  0.11878706  1  0  -0.415027  0  3.697799  0  0  -0.495354  0  3.936627  0  0  -0.500845  0  3.940243  0  0  -0.254233  -0.491399  0  3.933901  0
C  C45  1  0.53743784  0.37134362  0.38121590  1  0  -0.414866  0  3.697722  0  0  -0.495177  0  3.93652  0  0  -0.500677  0  3.940142  0  0  -0.254152  -0.491222  0  3.933795  0
C  C46  1  0.52002792  0.50293239  0.87166636  1  0  0.491683  0  3.743099  0  0  0.471465  0  4.017579  0  0  0.497835  0  4.022498  0  0  0.124608  0.453785  0  4.013673  0
C  C47  1  0.49707075  0.47996209  0.62833410  1  0  0.491857  0  3.742884  0  0  0.471679  0  4.017282  0  0  0.498043  0  4.02221  0  0  0.124669  0.453988  0  4.013395  0
C  C48  1  0.47997147  0.49707583  0.12833395  1  0  0.49181  0  3.743078  0  0  0.471598  0  4.017403  0  0  0.497958  0  4.022337  0  0  0.124635  0.453907  0  4.01352  0
C  C49  1  0.50292935  0.52003357  0.37166464  1  0  0.491718  0  3.742867  0  0  0.471591  0  4.017177  0  0  0.497962  0  4.02209  0  0  0.124684  0.453903  0  4.013288  0
C  C50  1  0.66460499  0.60985886  0.91538901  1  0  -0.36162  0  3.705749  0  0  -0.34327  0  3.978495  0  0  -0.365545  0  4.003832  0  0  -0.07926  -0.328561  0  3.961081  0
C  C51  1  0.39013375  0.33538437  0.58460919  1  0  -0.361644  0  3.705752  0  0  -0.343323  0  3.978426  0  0  -0.365597  0  4.003767  0  0  -0.079245  -0.328604  0  3.960999  0
C  C52  1  0.33539602  0.39014368  0.08461552  1  0  -0.361745  0  3.705765  0  0  -0.343246  0  3.978317  0  0  -0.36552  0  4.003664  0  0  -0.079293  -0.328518  0  3.960864  0
C  C53  1  0.60986482  0.66461355  0.41538766  1  0  -0.361564  0  3.705666  0  0  -0.343243  0  3.978262  0  0  -0.365521  0  4.0036  0  0  -0.079233  -0.32851  0  3.960816  0
C  C54  1  0.81137380  0.59428177  0.90367448  1  0  0.49824  0  3.733914  0  0  0.481285  0  4.000456  0  0  0.507982  0  4.004589  0  0  0.130156  0.463415  0  3.996985  0
C  C55  1  0.40571858  0.18861662  0.59632596  1  0  0.4982  0  3.734052  0  0  0.481354  0  4.000382  0  0  0.508047  0  4.004515  0  0  0.130146  0.463485  0  3.996911  0
C  C56  1  0.18862306  0.40572528  0.09632814  1  0  0.498299  0  3.733759  0  0  0.481275  0  4.000325  0  0  0.507968  0  4.00446  0  0  0.130217  0.463407  0  3.996856  0
C  C57  1  0.59428690  0.81138253  0.40367283  1  0  0.498153  0  3.733999  0  0  0.481371  0  4.000254  0  0  0.508066  0  4.004383  0  0  0.130166  0.463482  0  3.99682  0
C  C58  1  0.95662881  0.71447506  0.95334061  1  0  -0.417085  0  3.715858  0  0  -0.493432  0  3.947459  0  0  -0.499343  0  3.951678  0  0  -0.250562  -0.489236  0  3.94431  0
C  C59  1  0.28551752  0.04336460  0.54666004  1  0  -0.417246  0  3.71599  0  0  -0.493602  0  3.947537  0  0  -0.499506  0  3.95176  0  0  -0.250616  -0.489405  0  3.944389  0
C  C60  1  0.04337043  0.28552516  0.04665842  1  0  -0.417181  0  3.715911  0  0  -0.493557  0  3.947518  0  0  -0.499459  0  3.951741  0  0  -0.25061  -0.489362  0  3.944371  0
C  C61  1  0.71448586  0.95663110  0.45333636  1  0  -0.416983  0  3.716177  0  0  -0.493392  0  3.94765  0  0  -0.499294  0  3.951873  0  0  -0.250539  -0.489193  0  3.944507  0
C  C62  1  0.67154222  0.91250161  0.92132227  1  0  0.086025  0  3.797873  0  0  0.099548  0  4.054522  0  0  0.107832  0  4.07506  0  0  0.003848  0.093943  0  4.040604  0
C  C63  1  0.08749859  0.32845391  0.57868037  1  0  0.086068  0  3.797967  0  0  0.099604  0  4.054593  0  0  0.107919  0  4.075082  0  0  0.003857  0.093999  0  4.040677  0
C  C64  1  0.32845527  0.08749631  0.07868098  1  0  0.086101  0  3.79791  0  0  0.099708  0  4.054438  0  0  0.108023  0  4.074928  0  0  0.003878  0.094103  0  4.040524  0
C  C65  1  0.91250757  0.67154755  0.42132124  1  0  0.086128  0  3.79789  0  0  0.099691  0  4.05448  0  0  0.107988  0  4.074998  0  0  0.003878  0.094085  0  4.040567  0
C  C66  1  0.67697833  0.88764661  0.83002699  1  0  -0.189513  0  3.739441  0  0  -0.203468  0  3.983538  0  0  -0.213304  0  4.005465  0  0  -0.097965  -0.197158  0  3.968977  0
C  C67  1  0.11235503  0.32302063  0.66997398  1  0  -0.189538  0  3.739584  0  0  -0.203493  0  3.983681  0  0  -0.213333  0  4.005591  0  0  -0.097974  -0.197186  0  3.969125  0
C  C68  1  0.32301773  0.11235015  0.16997671  1  0  -0.189619  0  3.739414  0  0  -0.203632  0  3.983517  0  0  -0.213481  0  4.005432  0  0  -0.097945  -0.197322  0  3.968961  0
C  C69  1  0.88764531  0.67697960  0.33002514  1  0  -0.189598  0  3.739538  0  0  -0.203572  0  3.983639  0  0  -0.213406  0  4.005552  0  0  -0.097996  -0.197263  0  3.969078  0
C  C70  1  0.68026672  0.00704430  0.78338107  1  0  0.139669  0  3.729669  0  0  0.108022  0  3.983692  0  0  0.116745  0  3.999996  0  0  0.045342  0.102402  0  3.972664  0
C  C71  1  0.99295452  0.31973305  0.71662080  1  0  0.139532  0  3.729722  0  0  0.107856  0  3.983755  0  0  0.116595  0  4.000059  0  0  0.045291  0.102234  0  3.972734  0
C  C72  1  0.31972901  0.99295131  0.21662251  1  0  0.139614  0  3.729795  0  0  0.107936  0  3.983825  0  0  0.116682  0  4.000134  0  0  0.045261  0.102313  0  3.972798  0
C  C73  1  0.00704295  0.68026486  0.28337856  1  0  0.139654  0  3.729652  0  0  0.107986  0  3.983683  0  0  0.116724  0  3.999988  0  0  0.045299  0.102366  0  3.972656  0
C  C74  1  0.67377252  0.17002177  0.90877332  1  0  0.138419  0  3.726415  0  0  0.104581  0  3.984794  0  0  0.113633  0  4.001156  0  0  0.043005  0.098676  0  3.973772  0
C  C75  1  0.82997049  0.32621973  0.59122916  1  0  0.138156  0  3.726663  0  0  0.104306  0  3.985029  0  0  0.113352  0  4.001393  0  0  0.042903  0.098405  0  3.974  0
C  C76  1  0.32622506  0.82997272  0.09123032  1  0  0.138391  0  3.726275  0  0  0.104562  0  3.984633  0  0  0.113608  0  4.000993  0  0  0.042972  0.098657  0  3.97361  0
C  C77  1  0.17002833  0.67378277  0.40877196  1  0  0.138313  0  3.726582  0  0  0.104464  0  3.984944  0  0  0.113512  0  4.001305  0  0  0.042971  0.098558  0  3.973925  0
C  C78  1  0.67007020  0.05819570  0.96077600  1  0  -0.182679  0  3.749157  0  0  -0.200544  0  4.004798  0  0  -0.20954  0  4.024574  0  0  -0.095764  -0.194774  0  3.991726  0
C  C79  1  0.94180078  0.32992219  0.53922915  1  0  -0.182599  0  3.7491  0  0  -0.20046  0  4.004723  0  0  -0.209447  0  4.024496  0  0  -0.095686  -0.194689  0  3.991643  0
C  C80  1  0.32992939  0.94180568  0.03922768  1  0  -0.18264  0  3.749098  0  0  -0.200521  0  4.004695  0  0  -0.209503  0  4.02446  0  0  -0.095688  -0.19475  0  3.99162  0
C  C81  1  0.05820099  0.67007920  0.46077276  1  0  -0.1826  0  3.749292  0  0  -0.200486  0  4.004928  0  0  -0.209463  0  4.024702  0  0  -0.095693  -0.194724  0  3.99185  0
S  S82  1  0.66538578  0.77346385  0.98865428  1  0  0.031346  0  2.60391  0  0  0.029514  0  2.933201  0  0  0.022907  0  2.942168  0  0  0.033821  0.03465  0  2.926808  0
S  S83  1  0.22653450  0.33461018  0.51134788  1  0  0.031311  0  2.604157  0  0  0.029448  0  2.933462  0  0  0.022832  0  2.942416  0  0  0.033783  0.034582  0  2.927069  0
S  S84  1  0.33461853  0.22653874  0.01135311  1  0  0.031351  0  2.604047  0  0  0.029425  0  2.933258  0  0  0.022809  0  2.942211  0  0  0.033789  0.034559  0  2.926866  0
S  S85  1  0.77346340  0.66538545  0.48865003  1  0  0.031244  0  2.604062  0  0  0.02936  0  2.933349  0  0  0.02275  0  2.94231  0  0  0.033738  0.034494  0  2.926954  0
N  N86  1  0.67905563  0.14648437  0.82126971  1  0  -0.33194  0  3.276462  0  0  -0.259077  0  3.547825  0  0  -0.276465  0  3.561537  0  0  -0.332219  -0.2475  0  3.538431  0
N  N87  1  0.85351136  0.32093484  0.67873154  1  0  -0.33185  0  3.276447  0  0  -0.258999  0  3.547822  0  0  -0.27638  0  3.561526  0  0  -0.332242  -0.247424  0  3.538427  0
N  N88  1  0.32094252  0.85351584  0.17873248  1  0  -0.331942  0  3.276452  0  0  -0.259087  0  3.547813  0  0  -0.276463  0  3.561508  0  0  -0.332238  -0.247508  0  3.538417  0
N  N89  1  0.14648741  0.67905624  0.32126803  1  0  -0.331929  0  3.276357  0  0  -0.259076  0  3.547731  0  0  -0.276457  0  3.561434  0  0  -0.332236  -0.247498  0  3.538335  0
O  O90  1  0.50533069  0.37696391  0.82193188  1  0  -0.559207  0  2.046919  0  0  -0.499135  0  2.297554  0  0  -0.524452  0  2.289807  0  0  -0.301895  -0.48165  0  2.302393  0
O  O91  1  0.62303729  0.49466076  0.67806828  1  0  -0.559261  0  2.047016  0  0  -0.49919  0  2.297608  0  0  -0.524506  0  2.289862  0  0  -0.30191  -0.481703  0  2.302453  0
O  O92  1  0.49466659  0.62304085  0.17806735  1  0  -0.559269  0  2.047049  0  0  -0.499192  0  2.297668  0  0  -0.524505  0  2.289923  0  0  -0.301894  -0.481704  0  2.302513  0
O  O93  1  0.37696061  0.50533487  0.32192834  1  0  -0.559217  0  2.046822  0  0  -0.499213  0  2.297475  0  0  -0.52453  0  2.289726  0  0  -0.301942  -0.481726  0  2.302318  0
O  O94  1  0.83107148  0.48484528  0.85239938  1  0  -0.557466  0  2.063558  0  0  -0.493208  0  2.311371  0  0  -0.519472  0  2.30292  0  0  -0.299338  -0.474991  0  2.3165  0
O  O95  1  0.51514742  0.16892626  0.64759877  1  0  -0.557402  0  2.063746  0  0  -0.493164  0  2.311478  0  0  -0.519422  0  2.303028  0  0  -0.299289  -0.474958  0  2.316626  0
O  O96  1  0.16892437  0.51515832  0.14760095  1  0  -0.557461  0  2.063526  0  0  -0.493205  0  2.311371  0  0  -0.519464  0  2.30292  0  0  -0.299364  -0.475  0  2.316517  0
O  O97  1  0.48485040  0.83107280  0.35240265  1  0  -0.55733  0  2.063603  0  0  -0.493189  0  2.311376  0  0  -0.519448  0  2.302922  0  0  -0.299317  -0.474977  0  2.316534  0
