# generated using pymatgen
data_ZnH12C18(NO)6
_symmetry_space_group_name_H-M   'P 1'
_cell_length_a   11.10932147
_cell_length_b   15.98655015
_cell_length_c   17.22461462
_cell_angle_alpha   97.75183190
_cell_angle_beta   89.46979709
_cell_angle_gamma   93.72166472
_symmetry_Int_Tables_number   1
_chemical_formula_structural   ZnH12C18(NO)6
_chemical_formula_sum   'Zn2 H24 C36 N12 O12'
_cell_volume   3024.73901521
_cell_formula_units_Z   2
loop_
 _symmetry_equiv_pos_site_id
 _symmetry_equiv_pos_as_xyz
  1  'x, y, z'
loop_
 _atom_site_type_symbol
 _atom_site_label
 _atom_site_symmetry_multiplicity
 _atom_site_fract_x
 _atom_site_fract_y
 _atom_site_fract_z
 _atom_site_occupancy
 _atom_site_pbe_bader_charge
 _atom_site_pbe_bader_spin_density
 _atom_site_pbe_cm5_charge
 _atom_site_pbe_ddec_charge
 _atom_site_pbe_ddec_spin_density
 _atom_site_pbe_ddec_sum_bond_order
 _atom_site_pbe_magmom
Zn  Zn0  1  0.49317709  0.40788407  0.49901219  1  1.278573  0  0.671133  0.829806  0  2.401131  0
Zn  Zn1  1  0.50706244  0.59061850  0.50593859  1  1.286767  0  0.673434  0.82738  0  2.407344  0
H  H2  1  0.39670390  0.70939124  0.42304313  1  0.126318  0  0.122637  0.096097  0  0.995405  0
H  H3  1  0.39031838  0.86577824  0.42184328  1  0.126038  0  0.113405  0.130681  0  1.015007  0
H  H4  1  0.67209502  0.90071073  0.59635514  1  0.103328  0  0.115677  0.133631  0  0.989409  0
H  H5  1  0.32990904  0.09792792  0.40262632  1  0.098522  0  0.118942  0.140094  0  0.982677  0
H  H6  1  0.61799958  0.12969406  0.57226023  1  0.122712  0  0.110269  0.124169  0  1.019937  0
H  H7  1  0.61087005  0.28717650  0.57409149  1  0.129004  0  0.125779  0.101228  0  0.973872  0
H  H8  1  0.51230019  0.61512981  0.26774468  1  0.139946  0  0.105019  0.112952  0  0.996846  0
H  H9  1  0.50943009  0.61346107  0.12212521  1  0.107819  0  0.103706  0.111276  0  1.020007  0
H  H10  1  0.49328466  0.34173985  0.09289047  1  0.063504  0  0.103252  0.11361  0  1.006426  0
H  H11  1  0.51181407  0.65818033  0.91181854  1  0.056865  0  0.105935  0.117104  0  1.001515  0
H  H12  1  0.49393483  0.38665148  0.88285103  1  0.093552  0  0.098473  0.104223  0  1.03408  0
H  H13  1  0.49045739  0.38513077  0.73677563  1  0.09075  0  0.100157  0.105352  0  1.00428  0
H  H14  1  0.77579146  0.60252714  0.40279700  1  0.171339  0  0.120947  0.145212  0  1.003035  0
H  H15  1  0.22446938  0.61057400  0.39339360  1  0.164371  0  0.120355  0.137107  0  1.021675  0
H  H16  1  0.11112005  0.40417066  0.56349062  1  0.084835  0  0.112772  0.118892  0  0.979876  0
H  H17  1  0.88544232  0.39993848  0.56844673  1  0.099972  0  0.113447  0.117857  0  0.978177  0
H  H18  1  0.70255655  0.67097803  0.58247878  1  0.525214  0  0.307143  0.329059  0  0.973197  0
H  H19  1  0.75243734  0.77063333  0.62839116  1  0.449585  0  0.325939  0.322256  0  0.91452  0
H  H20  1  0.29871803  0.32815959  0.42127330  1  0.534213  0  0.307737  0.327837  0  0.972931  0
H  H21  1  0.24906431  0.22911784  0.37282665  1  0.457792  0  0.327599  0.32491  0  0.909823  0
H  H22  1  0.49569641  0.32694701  0.30237755  1  0.477316  0  0.293562  0.308092  0  1.006004  0
H  H23  1  0.50220240  0.27151405  0.20699990  1  0.433571  0  0.310392  0.306172  0  0.939971  0
H  H24  1  0.50126906  0.67284781  0.70254475  1  0.493825  0  0.293394  0.308045  0  1.005531  0
H  H25  1  0.50258508  0.72848462  0.79806493  1  0.434647  0  0.31027  0.306125  0  0.938739  0
C  C26  1  0.50730241  0.48717357  0.34978863  1  1.453995  0  0.20762  0.596471  0  4.164821  0
C  C27  1  0.26230561  0.50202458  0.49206551  1  1.572898  0  0.219903  0.599398  0  4.170984  0
C  C28  1  0.49515049  0.51266675  0.65464501  1  1.469717  0  0.208424  0.599342  0  4.153966  0
C  C29  1  0.73756124  0.49360537  0.50361235  1  1.573615  0  0.219496  0.600819  0  4.176748  0
C  C30  1  0.45530797  0.75436855  0.46092833  1  0.483754  0  0.052128  0.13434  0  3.950378  0
C  C31  1  0.45153253  0.84022142  0.46010024  1  0.002896  0  -0.098027  -0.239649  0  3.9592  0
C  C32  1  0.53076915  0.89359487  0.51121743  1  0.376084  0  0.100344  0.22361  0  4.061907  0
C  C33  1  0.61000651  0.85903156  0.55794549  1  -0.008091  0  -0.081888  -0.292873  0  3.864522  0
C  C34  1  0.61013311  0.77011808  0.55413609  1  0.991612  0  0.23685  0.463031  0  4.073987  0
C  C35  1  0.39276133  0.13905924  0.44095470  1  0.015669  0  -0.081152  -0.294503  0  3.861127  0
C  C36  1  0.47351119  0.10369427  0.48592738  1  0.308669  0  0.098775  0.221272  0  4.068284  0
C  C37  1  0.55468202  0.15637074  0.53625252  1  -0.003302  0  -0.103891  -0.248027  0  3.98466  0
C  C38  1  0.55027095  0.24245833  0.53727275  1  0.429244  0  0.048462  0.12428  0  3.970531  0
C  C39  1  0.39192843  0.22818463  0.44666586  1  1.024642  0  0.235665  0.462829  0  4.071799  0
C  C40  1  0.50350119  0.48018714  0.26344252  1  0.01517  0  -0.038299  -0.177368  0  3.927713  0
C  C41  1  0.50782324  0.55552968  0.22858797  1  -0.020052  0  -0.082739  -0.050462  0  4.006482  0
C  C42  1  0.50668786  0.55527057  0.14847469  1  -0.050573  0  -0.105649  -0.187765  0  3.987464  0
C  C43  1  0.50208206  0.47643291  0.10002714  1  0.370818  0  0.087198  0.198702  0  4.072417  0
C  C44  1  0.49743976  0.40116085  0.13255396  1  -0.011604  0  -0.099008  -0.272811  0  3.912551  0
C  C45  1  0.49678745  0.40057608  0.21437160  1  0.433185  0  0.10759  0.31801  0  4.079497  0
C  C46  1  0.50701291  0.59874911  0.87213499  1  -0.003786  0  -0.096792  -0.267681  0  3.90522  0
C  C47  1  0.50274579  0.52357598  0.90474025  1  0.400352  0  0.087358  0.198209  0  4.07728  0
C  C48  1  0.49713445  0.44473699  0.85628249  1  -0.001176  0  -0.113238  -0.199482  0  4.016664  0
C  C49  1  0.49541887  0.44459988  0.77617610  1  -0.065168  0  -0.088444  -0.061929  0  4.033212  0
C  C50  1  0.49906758  0.51980963  0.74117331  1  0.038642  0  -0.036812  -0.172542  0  3.923708  0
C  C51  1  0.50576098  0.59932614  0.79028687  1  0.425555  0  0.10694  0.31634  0  4.079917  0
C  C52  1  0.87220822  0.49633620  0.49501880  1  0.057548  0  -0.003159  -0.057845  0  3.919895  0
C  C53  1  0.93525115  0.55207814  0.44821650  1  0.055679  0  0.008391  0.07106  0  3.934079  0
C  C54  1  0.93554603  0.44306815  0.53417825  1  -0.036109  0  -0.074147  -0.084984  0  3.982182  0
C  C55  1  0.87395069  0.60412848  0.40287957  1  0.02741  0  -0.067153  -0.14731  0  3.897129  0
C  C56  1  0.93707510  0.65579441  0.35710421  1  0.153258  0  0.082462  0.029065  0  3.9507  0
C  C57  1  0.12710716  0.50007673  0.48832451  1  -0.006735  0  -0.003608  -0.062308  0  3.915375  0
C  C58  1  0.06199674  0.44515046  0.53112697  1  -0.036747  0  -0.074691  -0.084488  0  3.98003  0
C  C59  1  0.06475366  0.55341417  0.44439680  1  -0.026282  0  0.008966  0.072172  0  3.94017  0
C  C60  1  0.12652080  0.60714010  0.39588657  1  0.046937  0  -0.066714  -0.142919  0  3.912147  0
C  C61  1  0.06470845  0.65786816  0.35410292  1  0.229837  0  0.082379  0.028329  0  3.944195  0
N  N62  1  0.53024657  0.71926694  0.50733604  1  -1.26572  0  -0.336037  -0.324064  0  3.426195  0
N  N63  1  0.53863871  0.98331806  0.51958323  1  -0.480963  0  -0.131752  -0.116528  0  3.23625  0
N  N64  1  0.46545249  0.01387641  0.47705236  1  -0.475081  0  -0.131873  -0.112738  0  3.22416  0
N  N65  1  0.47234365  0.27850379  0.49364002  1  -1.231166  0  -0.3372  -0.323821  0  3.424915  0
N  N66  1  0.50106267  0.46577592  0.01715244  1  -0.511199  0  -0.148856  -0.135357  0  3.277215  0
N  N67  1  0.50420784  0.53426616  0.98762863  1  -0.503963  0  -0.14711  -0.129856  0  3.269929  0
N  N68  1  0.68727197  0.73352316  0.59780563  1  -1.271511  0  -0.569856  -0.622718  0  3.303909  0
N  N69  1  0.31310435  0.26558497  0.40507241  1  -1.282907  0  -0.568255  -0.621715  0  3.305629  0
N  N70  1  0.48772361  0.32498031  0.24335563  1  -1.244072  0  -0.598592  -0.626608  0  3.366512  0
N  N71  1  0.51395445  0.67483235  0.76121369  1  -1.261137  0  -0.595691  -0.624239  0  3.365377  0
N  N72  1  0.86686968  0.70101139  0.30560066  1  0.401291  0  0.060043  0.519903  0  4.239192  0
N  N73  1  0.13683425  0.72061177  0.31496755  1  0.390697  0  0.056296  0.517114  0  4.226147  0
O  O74  1  0.49686414  0.41890114  0.38206145  1  -1.173795  0  -0.318328  -0.557401  0  2.383229  0
O  O75  1  0.52134120  0.56116384  0.38861713  1  -1.17486  0  -0.322057  -0.555781  0  2.362435  0
O  O76  1  0.32028849  0.57340399  0.49556181  1  -1.163653  0  -0.30504  -0.53029  0  2.331506  0
O  O77  1  0.30754661  0.43093090  0.49359104  1  -1.173303  0  -0.309748  -0.561987  0  2.349957  0
O  O78  1  0.49013924  0.58064966  0.62260296  1  -1.171521  0  -0.316455  -0.551581  0  2.362935  0
O  O79  1  0.49658969  0.43868383  0.61588494  1  -1.175145  0  -0.32409  -0.554788  0  2.362151  0
O  O80  1  0.68246219  0.42125236  0.49682998  1  -1.151055  0  -0.306855  -0.532039  0  2.293555  0
O  O81  1  0.68998779  0.56472240  0.51766900  1  -1.178025  0  -0.309538  -0.566619  0  2.371929  0
O  O82  1  0.77844257  0.73688490  0.33473116  1  -0.442272  0  -0.134373  -0.325332  0  1.865922  0
O  O83  1  0.89960023  0.69669381  0.23642105  1  -0.420807  0  -0.130977  -0.318734  0  1.868982  0
O  O84  1  0.23525575  0.70004621  0.28669722  1  -0.450164  0  -0.129481  -0.323732  0  1.876105  0
O  O85  1  0.09595519  0.79118422  0.31670065  1  -0.427613  0  -0.139091  -0.332587  0  1.875597  0
