# generated using pymatgen
data_NiH12C15NO4
_symmetry_space_group_name_H-M   'P 1'
_cell_length_a   9.51224750
_cell_length_b   18.24470184
_cell_length_c   18.57789553
_cell_angle_alpha   90.00000987
_cell_angle_beta   96.60418302
_cell_angle_gamma   90.00025008
_symmetry_Int_Tables_number   1
_chemical_formula_structural   NiH12C15NO4
_chemical_formula_sum   'Ni4 H48 C60 N4 O16'
_cell_volume   3202.76451247
_cell_formula_units_Z   4
loop_
 _symmetry_equiv_pos_site_id
 _symmetry_equiv_pos_as_xyz
  1  'x, y, z'
loop_
 _atom_site_type_symbol
 _atom_site_label
 _atom_site_symmetry_multiplicity
 _atom_site_fract_x
 _atom_site_fract_y
 _atom_site_fract_z
 _atom_site_occupancy
 _atom_site_pbe_bader_charge
 _atom_site_pbe_bader_spin_density
 _atom_site_pbe_cm5_charge
 _atom_site_pbe_ddec_charge
 _atom_site_pbe_ddec_spin_density
 _atom_site_pbe_ddec_sum_bond_order
 _atom_site_pbe_magmom
Ni  Ni0  1  0.31286230  0.75000008  0.74493001  1  1.012747  1.382115  0.537141  0.588065  1.514665  2.567898  1.374
Ni  Ni1  1  0.68713766  0.25000105  0.25507086  1  1.012554  1.382092  0.537145  0.588061  1.514641  2.567946  1.374
Ni  Ni2  1  0.56683014  0.75000036  0.74486392  1  1.005682  0.290815  0.597778  0.650709  0.325683  2.978228  0.292
Ni  Ni3  1  0.43316983  0.25000022  0.25513749  1  1.005697  0.29083  0.597769  0.650682  0.325699  2.978261  0.292
H  H4  1  0.29038416  0.93459228  0.90311864  1  0.080088  0.000223  0.107279  0.11312  0.000168  0.999633  0.0
H  H5  1  0.70961100  0.43459493  0.09688039  1  0.080173  0.000223  0.107244  0.113132  0.000168  0.999685  0.0
H  H6  1  0.70961780  0.06540885  0.09687534  1  0.080328  0.000223  0.10728  0.113196  0.000167  0.999731  0.0
H  H7  1  0.29038058  0.56541168  0.90312486  1  0.080672  0.000223  0.107273  0.113212  0.000167  0.999678  0.0
H  H8  1  0.20447136  0.91332023  0.57160611  1  0.090812  0.00025  0.102656  0.105774  0.000192  1.007662  0.0
H  H9  1  0.79553212  0.41332532  0.42839552  1  0.090606  0.00025  0.10272  0.105892  0.000192  1.007731  0.0
H  H10  1  0.79555181  0.08667761  0.42839171  1  0.090496  0.00025  0.10277  0.105952  0.000192  1.007769  0.0
H  H11  1  0.20445204  0.58667855  0.57160879  1  0.090666  0.00025  0.102745  0.105913  0.000192  1.007692  0.0
H  H12  1  0.21134549  0.03153003  0.98461115  1  0.075253  0.000113  0.102404  0.102982  5e-05  0.995225  0.0
H  H13  1  0.78865580  0.53153164  0.01539028  1  0.075278  0.000113  0.102388  0.10293  5e-05  0.995123  0.0
H  H14  1  0.78865768  0.96846945  0.01539150  1  0.075209  0.000113  0.102378  0.102942  5e-05  0.995194  0.0
H  H15  1  0.21134311  0.46847113  0.98461053  1  0.075174  0.000113  0.102412  0.10296  5e-05  0.995224  0.0
H  H16  1  0.80696569  0.70149559  0.63544381  1  0.060296  0.000692  0.10462  0.086189  0.000259  0.987953  0.0
H  H17  1  0.19303175  0.20149491  0.36455691  1  0.060306  0.000692  0.104632  0.086222  0.000259  0.987932  0.0
H  H18  1  0.19303322  0.29850006  0.36455700  1  0.060419  0.000691  0.104608  0.086171  0.000259  0.988045  0.0
H  H19  1  0.80696292  0.79849909  0.63544313  1  0.060429  0.000691  0.104612  0.086157  0.000259  0.987981  0.0
H  H20  1  0.05740694  0.79854428  0.63743700  1  0.08753  0.000768  0.106443  0.093743  0.000248  0.98673  0.001
H  H21  1  0.94258815  0.29854257  0.36256361  1  0.087539  0.000768  0.106461  0.093773  0.000248  0.986677  0.001
H  H22  1  0.94258560  0.20145575  0.36256238  1  0.087507  0.000768  0.106437  0.093713  0.000248  0.986718  0.001
H  H23  1  0.05741178  0.70145746  0.63743510  1  0.08753  0.000768  0.106463  0.093751  0.000248  0.98669  0.001
H  H24  1  0.65878717  0.91040538  0.60023799  1  0.103829  3.5e-05  0.104742  0.108022  3.1e-05  1.018797  0.0
H  H25  1  0.34121622  0.41040889  0.39975986  1  0.103866  3.5e-05  0.104775  0.108072  3.1e-05  1.018741  0.0
H  H26  1  0.34123194  0.08959191  0.39976929  1  0.104195  3.5e-05  0.10478  0.108063  3.1e-05  1.018876  0.0
H  H27  1  0.65877089  0.58959663  0.60023170  1  0.104124  3.5e-05  0.104765  0.108062  3.1e-05  1.018786  0.0
H  H28  1  0.73083560  0.87822848  0.91599635  1  0.078331  1.6e-05  0.103421  0.106811  1.8e-05  1.017477  0.0
H  H29  1  0.26916227  0.37823012  0.08400389  1  0.078286  1.6e-05  0.103418  0.106763  1.8e-05  1.017514  0.0
H  H30  1  0.26916761  0.12176553  0.08400900  1  0.07839  1.6e-05  0.103344  0.106704  1.8e-05  1.017535  0.0
H  H31  1  0.73083229  0.62176663  0.91599022  1  0.078363  1.6e-05  0.103389  0.106767  1.8e-05  1.017548  0.0
H  H32  1  0.20581307  0.00822568  0.47468226  1  0.073132  -1.4e-05  0.101764  0.102332  -1.3e-05  0.995421  0.0
H  H33  1  0.79419117  0.50823069  0.52531825  1  0.073309  -1.4e-05  0.101746  0.102304  -1.3e-05  0.995521  0.0
H  H34  1  0.79421541  0.99177271  0.52531692  1  0.073079  -1.4e-05  0.101771  0.102383  -1.3e-05  0.995453  0.0
H  H35  1  0.20578765  0.49177537  0.47468308  1  0.072838  -1.4e-05  0.101759  0.102355  -1.3e-05  0.995429  0.0
H  H36  1  0.82837761  0.86395045  0.74723723  1  0.066477  0.000719  0.108099  0.091517  0.000271  0.967699  0.0
H  H37  1  0.17162123  0.36395081  0.25276467  1  0.066621  0.000719  0.108078  0.09144  0.000271  0.967731  0.0
H  H38  1  0.17161807  0.13604574  0.25276071  1  0.066584  0.000719  0.108058  0.091418  0.000271  0.967741  0.0
H  H39  1  0.82837671  0.63604594  0.74724093  1  0.066451  0.000719  0.108087  0.091488  0.000271  0.967715  0.0
H  H40  1  0.84571068  0.81564111  0.83026490  1  0.040659  0.000645  0.104028  0.085611  0.000241  0.996596  0.0
H  H41  1  0.15428984  0.31564141  0.16973547  1  0.04067  0.000645  0.104037  0.085604  0.000241  0.996584  0.0
H  H42  1  0.15428501  0.18435673  0.16973304  1  0.040605  0.000645  0.104062  0.08561  0.000241  0.996528  0.0
H  H43  1  0.84571649  0.68435917  0.83026628  1  0.040621  0.000645  0.104068  0.085602  0.00024  0.996563  0.0
H  H44  1  0.09442409  0.81633800  0.83238333  1  0.064992  0.000758  0.10824  0.096904  0.000221  0.980117  0.001
H  H45  1  0.90557537  0.31633836  0.16761644  1  0.064996  0.000759  0.10824  0.096917  0.000221  0.980067  0.001
H  H46  1  0.90557164  0.18365875  0.16761730  1  0.065013  0.000759  0.108235  0.096883  0.000221  0.980067  0.001
H  H47  1  0.09442769  0.68365619  0.83237975  1  0.065071  0.000759  0.108254  0.096887  0.000221  0.980117  0.001
H  H48  1  0.07882330  0.86409924  0.74896689  1  0.059227  0.000782  0.109327  0.096145  0.000225  0.966186  0.0
H  H49  1  0.92117550  0.36409910  0.25103286  1  0.059538  0.000782  0.109315  0.096131  0.000225  0.966193  0.0
H  H50  1  0.92117351  0.13589970  0.25103488  1  0.059458  0.000781  0.10928  0.096091  0.000225  0.966212  0.0
H  H51  1  0.07882116  0.63589929  0.74896029  1  0.059451  0.000781  0.109272  0.096107  0.000225  0.966162  0.0
C  C52  1  0.47455966  0.84692156  0.84426352  1  1.550637  -0.001726  0.217555  0.556681  -0.003753  4.143314  -0.002
C  C53  1  0.52543794  0.34692215  0.15573669  1  1.550548  -0.001726  0.217597  0.556713  -0.003753  4.143076  -0.002
C  C54  1  0.52544670  0.15307245  0.15574038  1  1.550914  -0.001726  0.217663  0.557285  -0.003754  4.143028  -0.002
C  C55  1  0.47455033  0.65307405  0.84426085  1  1.550898  -0.001726  0.217636  0.557204  -0.003753  4.143139  -0.002
C  C56  1  0.50651945  0.90163666  0.90376157  1  -0.076778  0.000847  -0.015375  -0.020753  0.00044  3.979795  0.0
C  C57  1  0.49347863  0.40163772  0.09623923  1  -0.077022  0.000846  -0.015438  -0.020857  0.000439  3.979928  0.0
C  C58  1  0.49348371  0.09836228  0.09624055  1  -0.076992  0.000842  -0.015463  -0.02098  0.000436  3.979951  0.0
C  C59  1  0.50651181  0.59836451  0.90376112  1  -0.076958  0.000843  -0.015436  -0.020941  0.000437  3.979917  0.0
C  C60  1  0.39890423  0.94273560  0.92791057  1  0.025197  -0.000573  -0.076509  -0.137376  -0.000772  3.923984  0.0
C  C61  1  0.60109212  0.44273744  0.07209175  1  0.025672  -0.000572  -0.076511  -0.137404  -0.000771  3.92397  0.0
C  C62  1  0.60109886  0.05726499  0.07208777  1  0.024936  -0.000566  -0.076506  -0.137449  -0.000765  3.924166  0.0
C  C63  1  0.39890160  0.55726698  0.92791470  1  0.024589  -0.000566  -0.076539  -0.137535  -0.000764  3.924332  0.0
C  C64  1  0.30340189  0.93448484  0.55560250  1  -0.007077  0.000169  -0.087826  -0.100527  5.4e-05  4.005873  0.0
C  C65  1  0.69660174  0.43449026  0.44439752  1  -0.006793  0.000169  -0.087905  -0.100798  5.4e-05  4.006259  0.0
C  C66  1  0.69661705  0.06551355  0.44439563  1  -0.006983  0.000169  -0.087936  -0.100884  5.4e-05  4.005909  0.0
C  C67  1  0.30338554  0.56551635  0.55560373  1  -0.007581  0.000169  -0.087954  -0.100886  5.4e-05  4.005837  0.0
C  C68  1  0.32022988  0.03848113  0.00940471  1  -0.055932  0.00022  -0.090261  -0.135931  5.9e-05  4.008668  0.0
C  C69  1  0.67976300  0.53848432  0.99059627  1  -0.056272  0.00022  -0.090235  -0.135777  5.9e-05  4.008811  0.0
C  C70  1  0.67977323  0.96151781  0.99059472  1  -0.055882  0.000224  -0.090267  -0.135814  6.2e-05  4.0088  0.0
C  C71  1  0.32022109  0.46151901  0.00940373  1  -0.05614  0.000223  -0.090264  -0.135804  6.2e-05  4.008645  0.0
C  C72  1  0.42823541  0.99510207  0.98386437  1  -0.034522  -0.000362  -0.003489  0.080372  -0.000458  3.995815  0.0
C  C73  1  0.57176666  0.49510603  0.01613720  1  -0.034759  -0.000362  -0.003416  0.080375  -0.000458  3.995801  0.0
C  C74  1  0.57176557  0.00489906  0.01613386  1  -0.090034  -0.000365  -0.003498  0.080229  -0.000461  3.995898  0.0
C  C75  1  0.42823123  0.50490113  0.98386571  1  -0.089871  -0.000365  -0.003547  0.080186  -0.00046  3.996024  0.0
C  C76  1  0.42989365  0.84911116  0.64813150  1  1.539858  -0.002048  0.217665  0.557389  -0.004179  4.143646  -0.002
C  C77  1  0.57010603  0.34911518  0.35186506  1  1.539693  -0.002048  0.217664  0.557228  -0.004179  4.143651  -0.002
C  C78  1  0.57011162  0.15089216  0.35187019  1  1.539892  -0.00205  0.217612  0.557098  -0.004179  4.143475  -0.002
C  C79  1  0.42988328  0.65089362  0.64813092  1  1.539901  -0.002049  0.217623  0.55715  -0.004178  4.14353  -0.002
C  C80  1  0.43253589  0.90655469  0.59109667  1  -0.032092  0.00075  -0.015213  -0.01979  0.000364  3.982407  0.0
C  C81  1  0.56746853  0.40655816  0.40890124  1  -0.030285  0.000749  -0.015277  -0.019747  0.000363  3.98228  0.0
C  C82  1  0.56748103  0.09344589  0.40890619  1  -0.029949  0.000746  -0.015288  -0.01958  0.000361  3.981883  0.0
C  C83  1  0.43252075  0.59344845  0.59109313  1  -0.032014  0.000748  -0.015254  -0.019574  0.000362  3.981987  0.0
C  C84  1  0.56051754  0.93224996  0.57241822  1  -0.037526  -0.000623  -0.0784  -0.139519  -0.000944  3.92949  0.0
C  C85  1  0.43948288  0.43225425  0.42758002  1  -0.039177  -0.000622  -0.078366  -0.139484  -0.000943  3.92944  0.0
C  C86  1  0.43950787  0.06774788  0.42758672  1  -0.04006  -0.000617  -0.078471  -0.139603  -0.000939  3.929809  0.0
C  C87  1  0.56049367  0.56775182  0.57241204  1  -0.037838  -0.000617  -0.07842  -0.139489  -0.000938  3.929743  0.0
C  C88  1  0.64836054  0.91149996  0.93572720  1  0.011973  0.000663  -0.090191  -0.102188  0.000346  4.002366  0.001
C  C89  1  0.35163765  0.41149905  0.06427521  1  0.012055  0.000664  -0.090169  -0.102064  0.000346  4.002176  0.001
C  C90  1  0.35164056  0.08849843  0.06427803  1  0.012099  0.000665  -0.090092  -0.101945  0.000347  4.002225  0.001
C  C91  1  0.64836230  0.58850099  0.93572511  1  0.012203  0.000665  -0.090114  -0.102025  0.000347  4.002237  0.001
C  C92  1  0.30478229  0.98674549  0.50230382  1  -0.119097  -0.000291  -0.089379  -0.133726  -0.000393  4.004099  0.0
C  C93  1  0.69522177  0.48675146  0.49769516  1  -0.119401  -0.000291  -0.089325  -0.133494  -0.000393  4.004303  0.0
C  C94  1  0.69524618  0.01325071  0.49769483  1  -0.119477  -0.000294  -0.089315  -0.133689  -0.000395  4.00426  0.0
C  C95  1  0.30475700  0.51325405  0.50230294  1  -0.118728  -0.000294  -0.089332  -0.133662  -0.000395  4.003996  0.0
C  C96  1  0.56537724  0.98605846  0.51803919  1  0.036818  1.8e-05  -0.004192  0.080368  -0.000138  4.002699  0.0
C  C97  1  0.43462785  0.48606329  0.48195824  1  0.036825  1.8e-05  -0.004157  0.080409  -0.000138  4.002749  0.0
C  C98  1  0.43465128  0.01393664  0.48196215  1  -0.019487  1.4e-05  -0.004025  0.080481  -0.00014  4.002562  0.0
C  C99  1  0.56535088  0.51394277  0.51803717  1  -0.01969  1.4e-05  -0.004054  0.080246  -0.00014  4.002837  0.0
C  C100  1  0.87751243  0.81582257  0.77538423  1  0.226254  0.004272  -0.069958  -0.088534  0.00249  3.865428  0.003
C  C101  1  0.12248594  0.31582116  0.22461441  1  0.226119  0.004273  -0.06996  -0.088436  0.00249  3.865356  0.003
C  C102  1  0.12248431  0.18417582  0.22461377  1  0.226147  0.004273  -0.069954  -0.088412  0.00249  3.865357  0.003
C  C103  1  0.87751294  0.68417503  0.77538533  1  0.226237  0.004272  -0.07  -0.088465  0.00249  3.865356  0.003
C  C104  1  0.04082848  0.81625955  0.77691079  1  0.262162  0.001596  -0.071772  -0.093723  0.000645  3.836252  0.0
C  C105  1  0.95917099  0.31626005  0.22309006  1  0.261839  0.001596  -0.071754  -0.09372  0.000645  3.836213  0.0
C  C106  1  0.95916939  0.18373719  0.22309104  1  0.261827  0.001597  -0.071685  -0.093585  0.000646  3.836021  0.0
C  C107  1  0.04082893  0.68373724  0.77690811  1  0.261812  0.001597  -0.071686  -0.093634  0.000646  3.836001  0.0
C  C108  1  0.85527839  0.74999794  0.66317260  1  0.274341  0.004823  -0.06786  -0.082525  0.002906  3.846976  0.003
C  C109  1  0.14471944  0.24999825  0.33682707  1  0.274359  0.004823  -0.067874  -0.082618  0.002906  3.847173  0.003
C  C110  1  0.01922263  0.75000028  0.66411208  1  0.161261  0.002374  -0.071325  -0.094307  0.001273  3.820784  0.001
C  C111  1  0.98077626  0.24999920  0.33588766  1  0.161265  0.002374  -0.071289  -0.094224  0.001273  3.820729  0.001
N  N112  1  0.08815329  0.74999927  0.74007815  1  -0.962918  0.062105  -0.337834  -0.08484  0.034849  3.462421  0.056
N  N113  1  0.91184560  0.24999966  0.25992158  1  -0.962935  0.062109  -0.337837  -0.084873  0.034852  3.462431  0.056
N  N114  1  0.81659175  0.74999845  0.73783317  1  -0.959964  0.029182  -0.33157  -0.10292  0.016614  3.424671  0.025
N  N115  1  0.18340714  0.24999829  0.26216711  1  -0.959954  0.029178  -0.331589  -0.102949  0.016612  3.424777  0.025
O  O116  1  0.55181294  0.82315582  0.67321779  1  -1.058477  0.001855  -0.289971  -0.465916  0.000276  2.446675  0.003
O  O117  1  0.44818980  0.32315463  0.32678540  1  -1.058482  0.001854  -0.290017  -0.46588  0.000274  2.446599  0.003
O  O118  1  0.44819223  0.17689737  0.32683827  1  -1.058616  0.001847  -0.289868  -0.465803  0.00027  2.446163  0.003
O  O119  1  0.55180816  0.67689912  0.67316207  1  -1.058538  0.001846  -0.289867  -0.465824  0.000269  2.446142  0.003
O  O120  1  0.34784284  0.82874572  0.82428189  1  -1.13651  0.050269  -0.294778  -0.499762  0.027316  2.376744  0.046
O  O121  1  0.65215880  0.32874496  0.17571585  1  -1.136021  0.050272  -0.294799  -0.499762  0.027316  2.376468  0.046
O  O122  1  0.65216810  0.17128884  0.17568189  1  -1.135619  0.050282  -0.294646  -0.499894  0.027318  2.376269  0.046
O  O123  1  0.34783440  0.67129125  0.82432071  1  -1.135598  0.050281  -0.29466  -0.499874  0.027318  2.376388  0.046
O  O124  1  0.58445658  0.82200102  0.81748989  1  -1.058584  0.00183  -0.289153  -0.465123  0.000244  2.453412  0.003
O  O125  1  0.41554615  0.32200246  0.18251329  1  -1.058629  0.001833  -0.289155  -0.465106  0.000246  2.453436  0.003
O  O126  1  0.41556965  0.17794859  0.18256139  1  -1.059125  0.001839  -0.289243  -0.465423  0.000252  2.453853  0.003
O  O127  1  0.58443074  0.67794769  0.81743841  1  -1.0591  0.00184  -0.289265  -0.465419  0.000253  2.453869  0.003
O  O128  1  0.31217831  0.82958701  0.66761511  1  -1.126556  0.052445  -0.295088  -0.498332  0.0285  2.374183  0.049
O  O129  1  0.68782002  0.32959732  0.33237492  1  -1.126405  0.052447  -0.295069  -0.49827  0.0285  2.374237  0.049
O  O130  1  0.68780072  0.17036972  0.33233833  1  -1.12645  0.052426  -0.295043  -0.498092  0.02849  2.37458  0.049
O  O131  1  0.31220283  0.67036654  0.66766487  1  -1.126597  0.05242  -0.295046  -0.498107  0.028488  2.374722  0.049
