# generated using pymatgen
data_VH2(CO)5
_symmetry_space_group_name_H-M   'P 1'
_cell_length_a   6.27612905
_cell_length_b   6.86418754
_cell_length_c   9.12092525
_cell_angle_alpha   68.55383184
_cell_angle_beta   84.97558522
_cell_angle_gamma   77.45709838
_symmetry_Int_Tables_number   1
_chemical_formula_structural   VH2(CO)5
_chemical_formula_sum   'V2 H4 C10 O10'
_cell_volume   356.98503986
_cell_formula_units_Z   2
loop_
 _symmetry_equiv_pos_site_id
 _symmetry_equiv_pos_as_xyz
  1  'x, y, z'
loop_
 _atom_site_type_symbol
 _atom_site_label
 _atom_site_symmetry_multiplicity
 _atom_site_fract_x
 _atom_site_fract_y
 _atom_site_fract_z
 _atom_site_occupancy
 _atom_site_pbe_bader_charge
 _atom_site_pbe_bader_spin_density
 _atom_site_pbe_cm5_charge
 _atom_site_pbe_ddec_charge
 _atom_site_pbe_ddec_spin_density
 _atom_site_pbe_ddec_sum_bond_order
 _atom_site_pbe_magmom
V  V0  1  0.99998529  0.50003220  0.49998417  1  1.935543  1.779873  1.222581  1.691802  1.841338  2.586533  1.798
V  V1  1  0.00001549  0.99999849  0.50001773  1  1.928806  1.789404  1.224143  1.684797  1.849619  2.579704  1.804
H  H2  1  0.83603125  0.63841393  0.99713409  1  0.098157  0.000278  0.111117  0.118057  -8e-05  1.001167  0.0
H  H3  1  0.08799502  0.83893792  0.28804585  1  0.608008  0.01359  0.329843  0.434309  0.008463  0.84524  0.01
H  H4  1  0.16402379  0.36148478  0.00287290  1  0.098232  0.000278  0.111159  0.118039  -8e-05  1.001331  0.0
H  H5  1  0.91188778  0.16120386  0.71191494  1  0.607909  0.01359  0.329795  0.434279  0.008463  0.845298  0.01
C  C6  1  0.40123324  0.53478820  0.85824598  1  -0.024173  0.007828  0.000686  -0.028965  0.005985  3.91909  0.002
C  C7  1  0.27298725  0.60542512  0.71109175  1  1.579227  0.037899  0.234638  0.63428  0.038754  4.120409  0.031
C  C8  1  0.59087826  0.61415483  0.85650411  1  -0.014569  0.008103  0.000703  -0.026979  0.005997  3.912545  0.002
C  C9  1  0.71357618  0.69686609  0.70612661  1  1.550262  0.039883  0.23213  0.637694  0.040937  4.126712  0.033
C  C10  1  0.68653954  0.58132625  0.99844259  1  0.027774  0.008017  -0.074267  -0.117037  0.007134  3.934392  0.004
C  C11  1  0.59879853  0.46514906  0.14175626  1  -0.02458  0.007833  0.000758  -0.029001  0.00599  3.919048  0.002
C  C12  1  0.72701556  0.39455553  0.28891791  1  1.579618  0.03789  0.234565  0.634168  0.038736  4.120623  0.031
C  C13  1  0.40914790  0.38579525  0.14349935  1  -0.015666  0.0081  0.000634  -0.026933  0.005993  3.912403  0.002
C  C14  1  0.28643213  0.30314474  0.29387555  1  1.551296  0.039889  0.232034  0.63731  0.040948  4.12669  0.033
C  C15  1  0.31350416  0.41859014  0.00156025  1  0.028209  0.008018  -0.074358  -0.117174  0.007137  3.934422  0.004
O  O16  1  0.01585136  0.79924927  0.39088606  1  -1.150501  0.003672  -0.667968  -0.951768  -0.006029  2.174173  -0.051
O  O17  1  0.80296405  0.85585402  0.68097891  1  -1.164924  0.030283  -0.343337  -0.604062  0.019596  2.317867  -0.007
O  O18  1  0.18261147  0.47401440  0.68300792  1  -1.153886  0.018839  -0.341821  -0.58994  0.008171  2.305854  -0.011
O  O19  1  0.25252162  0.80483571  0.62958355  1  -1.15133  0.016941  -0.352106  -0.588525  0.005764  2.319469  -0.011
O  O20  1  0.73356403  0.58317662  0.61961267  1  -1.136099  0.030026  -0.352951  -0.605267  0.01983  2.318187  -0.005
O  O21  1  0.98411080  0.20081959  0.60910083  1  -1.150285  0.003642  -0.667913  -0.951756  -0.006036  2.174113  -0.051
O  O22  1  0.19707161  0.14413079  0.31906269  1  -1.165341  0.030289  -0.343404  -0.604031  0.0196  2.317916  -0.007
O  O23  1  0.81736131  0.52600658  0.31697608  1  -1.15444  0.018848  -0.341857  -0.589963  0.008166  2.30598  -0.011
O  O24  1  0.74749066  0.19515426  0.37044929  1  -1.15121  0.016967  -0.351961  -0.588374  0.005774  2.31977  -0.011
O  O25  1  0.26640428  0.41690180  0.38034163  1  -1.136037  0.03002  -0.352842  -0.604959  0.019829  2.317956  -0.005
