# generated using pymatgen
data_YbH13(C4O3)4
_symmetry_space_group_name_H-M   'P 1'
_cell_length_a   7.40217946
_cell_length_b   10.69099036
_cell_length_c   10.94211182
_cell_angle_alpha   87.28231411
_cell_angle_beta   77.79575632
_cell_angle_gamma   77.94944766
_symmetry_Int_Tables_number   1
_chemical_formula_structural   YbH13(C4O3)4
_chemical_formula_sum   'Yb2 H26 C32 O24'
_cell_volume   827.69694064
_cell_formula_units_Z   2
loop_
 _symmetry_equiv_pos_site_id
 _symmetry_equiv_pos_as_xyz
  1  'x, y, z'
loop_
 _atom_site_type_symbol
 _atom_site_label
 _atom_site_symmetry_multiplicity
 _atom_site_fract_x
 _atom_site_fract_y
 _atom_site_fract_z
 _atom_site_occupancy
 _atom_site_hle17_bader_spin_density
 _atom_site_hle17_ddec_charge
 _atom_site_hle17_ddec_spin_density
 _atom_site_hle17_ddec_sum_bond_order
 _atom_site_hle17_magmom
 _atom_site_hse06_10hf_bader_spin_density
 _atom_site_hse06_10hf_ddec_charge
 _atom_site_hse06_10hf_ddec_spin_density
 _atom_site_hse06_10hf_ddec_sum_bond_order
 _atom_site_hse06_10hf_magmom
 _atom_site_hse06_bader_spin_density
 _atom_site_hse06_ddec_charge
 _atom_site_hse06_ddec_spin_density
 _atom_site_hse06_ddec_sum_bond_order
 _atom_site_hse06_magmom
 _atom_site_pbe_bader_spin_density
 _atom_site_pbe_cm5_charge
 _atom_site_pbe_ddec_charge
 _atom_site_pbe_ddec_spin_density
 _atom_site_pbe_ddec_sum_bond_order
 _atom_site_pbe_magmom
Yb  Yb0  1  0.16897411  0.24017866  0.93307649  1  0  2.121302  0  1.747908  0  0  2.06171  0  2.062699  0  0  2.129641  0  1.984388  0  0  1.557692  2.027128  0  2.090103  0
Yb  Yb1  1  0.83102170  0.75982143  0.06692237  1  0  2.121397  0  1.747818  0  0  2.061812  0  2.062605  0  0  2.129731  0  1.984323  0  0  1.557754  2.027257  0  2.089984  0
H  H2  1  0.32597897  0.16545858  0.34795125  1  0  0.099897  0  0.976288  0  0  0.104952  0  1.049042  0  0  0.108286  0  1.046704  0  0  0.099568  0.1025  0  1.050803  0
H  H3  1  0.67402226  0.83453658  0.65205301  1  0  0.099928  0  0.976348  0  0  0.104941  0  1.049146  0  0  0.108277  0  1.046805  0  0  0.099573  0.10249  0  1.050907  0
H  H4  1  0.34364946  0.03818901  0.54532376  1  0  0.104747  0  0.943876  0  0  0.115594  0  1.001047  0  0  0.118901  0  0.999318  0  0  0.107091  0.113194  0  1.002535  0
H  H5  1  0.65636197  0.96179771  0.45467182  1  0  0.104654  0  0.943904  0  0  0.11551  0  1.001084  0  0  0.118816  0  0.999357  0  0  0.107052  0.113109  0  1.002567  0
H  H6  1  0.22421124  0.83646973  0.57421059  1  0  0.114268  0  0.965839  0  0  0.122485  0  1.030958  0  0  0.125962  0  1.028943  0  0  0.10566  0.119987  0  1.03242  0
H  H7  1  0.77579490  0.16351899  0.42578234  1  0  0.114379  0  0.965786  0  0  0.122594  0  1.030884  0  0  0.126073  0  1.028864  0  0  0.105681  0.120096  0  1.032339  0
H  H8  1  0.28922974  0.61153610  0.25644646  1  0  0.137292  0  0.929055  0  0  0.141692  0  0.996711  0  0  0.146634  0  0.991818  0  0  0.118563  0.138043  0  1.000571  0
H  H9  1  0.71076925  0.38846120  0.74354859  1  0  0.137292  0  0.929073  0  0  0.141732  0  0.996687  0  0  0.146675  0  0.991793  0  0  0.118579  0.138074  0  1.000557  0
H  H10  1  0.43293660  0.29675426  0.50702615  1  0  0.12096  0  0.939277  0  0  0.128747  0  1.004142  0  0  0.132152  0  1.001767  0  0  0.114246  0.126401  0  1.005337  0
H  H11  1  0.56706848  0.70325239  0.49297630  1  0  0.120956  0  0.93925  0  0  0.128735  0  1.004122  0  0  0.132154  0  1.001709  0  0  0.114272  0.126388  0  1.005317  0
H  H12  1  0.01921635  0.63297604  0.64528794  1  0  0.133542  0  0.921805  0  0  0.142029  0  0.984119  0  0  0.145923  0  0.981323  0  0  0.116039  0.139117  0  0.986358  0
H  H13  1  0.98078957  0.36703363  0.35470801  1  0  0.133563  0  0.9219  0  0  0.142071  0  0.98419  0  0  0.145964  0  0.981395  0  0  0.116033  0.139155  0  0.986433  0
H  H14  1  0.68837194  0.23028671  0.20159692  1  0  0.442438  0  0.747587  0  0  0.421534  0  0.802023  0  0  0.43184  0  0.79134  0  0  0.363616  0.414123  0  0.809856  0
H  H15  1  0.31162493  0.76970280  0.79840459  1  0  0.442477  0  0.74761  0  0  0.421613  0  0.802009  0  0  0.431918  0  0.79132  0  0  0.363658  0.414207  0  0.809852  0
H  H16  1  0.37562919  0.39070613  0.04733051  1  0  0.455505  0  0.832287  0  0  0.427022  0  0.890511  0  0  0.436985  0  0.87584  0  0  0.313324  0.420102  0  0.900771  0
H  H17  1  0.62436912  0.60929013  0.95266826  1  0  0.455474  0  0.832326  0  0  0.42699  0  0.890551  0  0  0.436957  0  0.875874  0  0  0.313316  0.42007  0  0.900811  0
H  H18  1  0.40855714  0.44346419  0.90956550  1  0  0.441181  0  0.852483  0  0  0.415088  0  0.906829  0  0  0.424736  0  0.892766  0  0  0.313038  0.408277  0  0.9168  0
H  H19  1  0.59144801  0.55653768  0.09043690  1  0  0.441079  0  0.852633  0  0  0.414988  0  0.906971  0  0  0.424632  0  0.892915  0  0  0.313005  0.408182  0  0.916938  0
H  H20  1  0.95449916  0.42601344  0.12483064  1  0  0.446017  0  0.851096  0  0  0.41765  0  0.910917  0  0  0.428366  0  0.895422  0  0  0.304056  0.410147  0  0.921778  0
H  H21  1  0.04549951  0.57398861  0.87516539  1  0  0.446031  0  0.851076  0  0  0.417667  0  0.910891  0  0  0.428385  0  0.895394  0  0  0.304071  0.410166  0  0.921751  0
H  H22  1  0.83506512  0.41826054  0.02626515  1  0  0.441926  0  0.830538  0  0  0.417507  0  0.895748  0  0  0.427574  0  0.880804  0  0  0.315816  0.410252  0  0.906387  0
H  H23  1  0.16492616  0.58173854  0.97373659  1  0  0.441944  0  0.830458  0  0  0.417531  0  0.895704  0  0  0.427596  0  0.880762  0  0  0.315827  0.410277  0  0.906302  0
H  H24  1  0.51778707  0.08469010  0.81727791  1  0  0.439908  0  0.817611  0  0  0.418224  0  0.880913  0  0  0.425617  0  0.873356  0  0  0.324687  0.413009  0  0.886493  0
H  H25  1  0.48220924  0.91531284  0.18272097  1  0  0.43996  0  0.817605  0  0  0.418288  0  0.880869  0  0  0.425679  0  0.873315  0  0  0.324706  0.413074  0  0.886443  0
H  H26  1  0.58856419  0.14994446  0.91712315  1  0  0.461356  0  0.787418  0  0  0.436931  0  0.852496  0  0  0.446371  0  0.838635  0  0  0.330329  0.430191  0  0.86129  0
H  H27  1  0.41142871  0.85005745  0.08287952  1  0  0.461405  0  0.787373  0  0  0.436953  0  0.85249  0  0  0.446398  0  0.838617  0  0  0.330304  0.430211  0  0.861321  0
C  C28  1  0.17801829  0.11721340  0.15663402  1  0  0.621195  0  3.953321  0  0  0.577033  0  4.249037  0  0  0.610082  0  4.244384  0  0  0.179179  0.554449  0  4.252848  0
C  C29  1  0.82197166  0.88279132  0.84337153  1  0  0.621297  0  3.953375  0  0  0.577146  0  4.24908  0  0  0.610193  0  4.244422  0  0  0.179189  0.554566  0  4.252893  0
C  C30  1  0.18392161  0.04054796  0.27420313  1  0  -0.085997  0  3.775065  0  0  -0.066618  0  4.00351  0  0  -0.072559  0  4.023748  0  0  -0.019746  -0.062771  0  3.989888  0
C  C31  1  0.81607050  0.95945205  0.72579953  1  0  -0.086019  0  3.774859  0  0  -0.066637  0  4.003311  0  0  -0.072574  0  4.023544  0  0  -0.019718  -0.062792  0  3.989699  0
C  C32  1  0.27083380  0.07825980  0.36425911  1  0  -0.078233  0  3.733234  0  0  -0.11064  0  3.995564  0  0  -0.109212  0  4.011776  0  0  -0.091539  -0.111668  0  3.985057  0
C  C33  1  0.72916341  0.92173930  0.63574064  1  0  -0.07825  0  3.733501  0  0  -0.110627  0  3.995823  0  0  -0.109198  0  4.012033  0  0  -0.091537  -0.111656  0  3.985319  0
C  C34  1  0.28501391  0.00575862  0.47218248  1  0  -0.035018  0  3.751555  0  0  -0.050439  0  4.010502  0  0  -0.051047  0  4.028178  0  0  -0.084162  -0.050474  0  3.999036  0
C  C35  1  0.71498667  0.99423379  0.52781712  1  0  -0.034721  0  3.751712  0  0  -0.050164  0  4.01062  0  0  -0.050771  0  4.028296  0  0  -0.084056  -0.050197  0  3.999148  0
C  C36  1  0.21555533  0.89347679  0.48985549  1  0  -0.155346  0  3.738177  0  0  -0.182594  0  4.00037  0  0  -0.185332  0  4.019411  0  0  -0.092658  -0.180622  0  3.987628  0
C  C37  1  0.78444650  0.10651475  0.51014036  1  0  -0.155605  0  3.738248  0  0  -0.182802  0  4.00039  0  0  -0.185538  0  4.019426  0  0  -0.092661  -0.180825  0  3.98764  0
C  C38  1  0.12705759  0.85649416  0.40111331  1  0  0.247223  0  3.76472  0  0  0.233579  0  4.025732  0  0  0.241059  0  4.043278  0  0  0.087503  0.228382  0  4.013779  0
C  C39  1  0.87293936  0.14350210  0.59888549  1  0  0.247187  0  3.764626  0  0  0.233508  0  4.025659  0  0  0.240985  0  4.043205  0  0  0.087448  0.228309  0  4.013707  0
C  C40  1  0.10894821  0.92846271  0.29246225  1  0  -0.141275  0  3.683484  0  0  -0.133847  0  3.919926  0  0  -0.137959  0  3.936427  0  0  -0.009423  -0.130918  0  3.908515  0
C  C41  1  0.89104801  0.07154219  0.70753480  1  0  -0.141278  0  3.683334  0  0  -0.133892  0  3.919834  0  0  -0.138001  0  3.936328  0  0  -0.009455  -0.130958  0  3.908424  0
C  C42  1  0.01374097  0.88066949  0.20044597  1  0  0.694877  0  3.900227  0  0  0.640288  0  4.21869  0  0  0.676243  0  4.207618  0  0  0.193551  0.615527  0  4.227082  0
C  C43  1  0.98625945  0.11932964  0.79955185  1  0  0.694896  0  3.900191  0  0  0.640345  0  4.218616  0  0  0.676299  0  4.207547  0  0  0.193553  0.615582  0  4.227004  0
C  C44  1  0.15118223  0.63535058  0.44919421  1  0  0.25874  0  3.779174  0  0  0.255151  0  4.044943  0  0  0.259763  0  4.062417  0  0  0.088088  0.251675  0  4.03349  0
C  C45  1  0.84882141  0.36465140  0.55080357  1  0  0.258997  0  3.778881  0  0  0.255301  0  4.044809  0  0  0.259911  0  4.06228  0  0  0.088151  0.251825  0  4.033346  0
C  C46  1  0.27676002  0.56875697  0.34934476  1  0  -0.110081  0  3.639736  0  0  -0.152568  0  3.900403  0  0  -0.149909  0  3.915645  0  0  -0.067623  -0.155067  0  3.89133  0
C  C47  1  0.72324831  0.43123929  0.65065193  1  0  -0.110035  0  3.639603  0  0  -0.152558  0  3.900289  0  0  -0.149902  0  3.915532  0  0  -0.067606  -0.155051  0  3.891213  0
C  C48  1  0.37827106  0.44591534  0.36935302  1  0  -0.088921  0  3.804047  0  0  -0.065051  0  4.048095  0  0  -0.077269  0  4.073844  0  0  -0.01882  -0.057515  0  4.030755  0
C  C49  1  0.62173279  0.55409047  0.63064480  1  0  -0.089024  0  3.804144  0  0  -0.065053  0  4.048099  0  0  -0.077286  0  4.073838  0  0  -0.018788  -0.057515  0  4.030747  0
C  C50  1  0.35515224  0.39166058  0.48913483  1  0  -0.051195  0  3.658011  0  0  -0.093371  0  3.911418  0  0  -0.089404  0  3.930771  0  0  -0.06726  -0.094256  0  3.89652  0
C  C51  1  0.64485539  0.60834127  0.51086844  1  0  -0.051269  0  3.658152  0  0  -0.093431  0  3.911498  0  0  -0.089457  0  3.930856  0  0  -0.067334  -0.094316  0  3.896599  0
C  C52  1  0.22680480  0.45912200  0.58836724  1  0  -0.050372  0  3.748908  0  0  -0.023516  0  3.984513  0  0  -0.03306  0  4.007866  0  0  -0.014676  -0.017383  0  3.968202  0
C  C53  1  0.77319795  0.54088666  0.41163156  1  0  -0.050304  0  3.748816  0  0  -0.023461  0  3.984452  0  0  -0.033007  0  4.007801  0  0  -0.014686  -0.017334  0  3.968152  0
C  C54  1  0.12310096  0.58146013  0.56879716  1  0  -0.132641  0  3.643759  0  0  -0.173517  0  3.901987  0  0  -0.172036  0  3.919043  0  0  -0.07235  -0.17468  0  3.89068  0
C  C55  1  0.87690783  0.41854280  0.43120051  1  0  -0.132825  0  3.643572  0  0  -0.173708  0  3.901849  0  0  -0.172223  0  3.918903  0  0  -0.072326  -0.174866  0  3.890546  0
C  C56  1  0.50212497  0.37736839  0.25922428  1  0  0.688509  0  3.76016  0  0  0.629223  0  4.064441  0  0  0.664314  0  4.053595  0  0  0.256321  0.605578  0  4.071086  0
C  C57  1  0.49788555  0.62262880  0.74077330  1  0  0.688669  0  3.759878  0  0  0.629312  0  4.064249  0  0  0.664447  0  4.053349  0  0  0.256353  0.60567  0  4.070885  0
C  C58  1  0.20041545  0.39524614  0.71382881  1  0  0.645318  0  3.917259  0  0  0.59481  0  4.218914  0  0  0.628514  0  4.213096  0  0  0.193688  0.572048  0  4.223238  0
C  C59  1  0.79958173  0.60475676  0.28617192  1  0  0.645277  0  3.91749  0  0  0.594747  0  4.219182  0  0  0.628453  0  4.213363  0  0  0.193616  0.571985  0  4.223518  0
O  O60  1  0.24639114  0.21858659  0.14014924  1  0  -0.67524  0  1.941394  0  0  -0.631214  0  2.172071  0  0  -0.658197  0  2.164234  0  0  -0.38507  -0.613311  0  2.176457  0
O  O61  1  0.75359879  0.78142194  0.85985728  1  0  -0.675354  0  1.941598  0  0  -0.631277  0  2.172181  0  0  -0.658283  0  2.164396  0  0  -0.385092  -0.613373  0  2.176567  0
O  O62  1  0.10670359  0.07846418  0.07246382  1  0  -0.659531  0  2.005773  0  0  -0.620742  0  2.239695  0  0  -0.647328  0  2.231766  0  0  -0.383204  -0.603709  0  2.244078  0
O  O63  1  0.89328817  0.92154156  0.92753892  1  0  -0.659548  0  2.005664  0  0  -0.6208  0  2.239621  0  0  -0.647382  0  2.231692  0  0  -0.383224  -0.603768  0  2.244004  0
O  O64  1  0.83765735  0.91934277  0.20694065  1  0  -0.662448  0  1.917946  0  0  -0.625289  0  2.149108  0  0  -0.652082  0  2.139152  0  0  -0.385146  -0.607942  0  2.155283  0
O  O65  1  0.16233858  0.08065438  0.79306097  1  0  -0.662388  0  1.917925  0  0  -0.625215  0  2.149041  0  0  -0.652007  0  2.139085  0  0  -0.385086  -0.607869  0  2.155225  0
O  O66  1  0.11211509  0.79207774  0.12465271  1  0  -0.700234  0  1.907171  0  0  -0.662183  0  2.143477  0  0  -0.688753  0  2.130881  0  0  -0.388817  -0.64478  0  2.151209  0
O  O67  1  0.88788517  0.20792813  0.87534333  1  0  -0.700251  0  1.907092  0  0  -0.662239  0  2.143425  0  0  -0.68881  0  2.13083  0  0  -0.388875  -0.644831  0  2.151148  0
O  O68  1  0.03974305  0.75161902  0.42477766  1  0  -0.311057  0  2.341637  0  0  -0.243265  0  2.567977  0  0  -0.260113  0  2.573681  0  0  -0.158069  -0.231375  0  2.563681  0
O  O69  1  0.96025691  0.24837835  0.57521365  1  0  -0.311127  0  2.341353  0  0  -0.243275  0  2.56773  0  0  -0.260122  0  2.573441  0  0  -0.158153  -0.231396  0  2.563462  0
O  O70  1  0.51004945  0.42057967  0.15134251  1  0  -0.593729  0  2.053803  0  0  -0.533933  0  2.271701  0  0  -0.554732  0  2.257844  0  0  -0.280412  -0.519736  0  2.281023  0
O  O71  1  0.48995905  0.57941931  0.84866071  1  0  -0.593809  0  2.05364  0  0  -0.534007  0  2.271614  0  0  -0.554836  0  2.257746  0  0  -0.280392  -0.519807  0  2.280928  0
O  O72  1  0.60797264  0.26442940  0.28151608  1  0  -0.517737  0  2.076957  0  0  -0.459446  0  2.288811  0  0  -0.480697  0  2.273228  0  0  -0.296406  -0.444691  0  2.299237  0
O  O73  1  0.39202153  0.73557238  0.71849213  1  0  -0.517853  0  2.076728  0  0  -0.459624  0  2.288641  0  0  -0.480883  0  2.27303  0  0  -0.296555  -0.444875  0  2.299077  0
O  O74  1  0.05803094  0.43875160  0.80091876  1  0  -0.693392  0  1.990801  0  0  -0.642837  0  2.221634  0  0  -0.66973  0  2.212377  0  0  -0.350595  -0.625253  0  2.22724  0
O  O75  1  0.94197650  0.56125134  0.19907895  1  0  -0.693409  0  1.990641  0  0  -0.642821  0  2.221439  0  0  -0.669715  0  2.212183  0  0  -0.350584  -0.625235  0  2.227048  0
O  O76  1  0.32123567  0.29624450  0.73121231  1  0  -0.682061  0  2.005047  0  0  -0.644165  0  2.247402  0  0  -0.671163  0  2.240286  0  0  -0.384507  -0.626904  0  2.251322  0
O  O77  1  0.67875437  0.70375091  0.26878292  1  0  -0.68197  0  2.005237  0  0  -0.644073  0  2.247601  0  0  -0.671073  0  2.240486  0  0  -0.384414  -0.626812  0  2.251524  0
O  O78  1  0.32309756  0.40063865  0.97091054  1  0  -0.91385  0  1.941136  0  0  -0.870442  0  2.125924  0  0  -0.892107  0  2.093684  0  0  -0.643092  -0.856819  0  2.146794  0
O  O79  1  0.67690092  0.59936032  0.02909475  1  0  -0.913716  0  1.941282  0  0  -0.87033  0  2.126123  0  0  -0.89199  0  2.093884  0  0  -0.64307  -0.856709  0  2.146993  0
O  O80  1  0.92670580  0.36387302  0.06906585  1  0  -0.912494  0  1.925988  0  0  -0.883642  0  2.12823  0  0  -0.905274  0  2.095573  0  0  -0.662891  -0.87009  0  2.149238  0
O  O81  1  0.07329327  0.63612894  0.93093389  1  0  -0.912523  0  1.925862  0  0  -0.883693  0  2.128125  0  0  -0.905319  0  2.095465  0  0  -0.662935  -0.870147  0  2.149098  0
O  O82  1  0.47828950  0.12141279  0.90111593  1  0  -0.865395  0  1.885471  0  0  -0.831944  0  2.08247  0  0  -0.851015  0  2.055466  0  0  -0.625583  -0.820195  0  2.098756  0
O  O83  1  0.52170471  0.87859009  0.09888579  1  0  -0.865536  0  1.885467  0  0  -0.832081  0  2.082434  0  0  -0.851148  0  2.05543  0  0  -0.6256  -0.820334  0  2.098745  0
