# generated using pymatgen
data_Li2MnH12(C8O5)2
_symmetry_space_group_name_H-M   'P 1'
_cell_length_a   9.84835437
_cell_length_b   9.84836507
_cell_length_c   10.26861285
_cell_angle_alpha   70.34148333
_cell_angle_beta   70.34198977
_cell_angle_gamma   63.93280116
_symmetry_Int_Tables_number   1
_chemical_formula_structural   Li2MnH12(C8O5)2
_chemical_formula_sum   'Li4 Mn2 H24 C32 O20'
_cell_volume   821.29961094
_cell_formula_units_Z   2
loop_
 _symmetry_equiv_pos_site_id
 _symmetry_equiv_pos_as_xyz
  1  'x, y, z'
loop_
 _atom_site_type_symbol
 _atom_site_label
 _atom_site_symmetry_multiplicity
 _atom_site_fract_x
 _atom_site_fract_y
 _atom_site_fract_z
 _atom_site_occupancy
 _atom_site_pbe_cm5_charge
 _atom_site_pbe_ddec_charge
 _atom_site_pbe_ddec_spin_density
 _atom_site_pbe_ddec_sum_bond_order
 _atom_site_pbe_magmom
Li  Li0  1  0.55390052  0.26468150  0.06746039  1  0.492044  0.836866  -0.000912  0.463776  0.0
Li  Li1  1  0.73531698  0.44610206  0.43253976  1  0.492047  0.836865  -0.000912  0.463777  0.0
Li  Li2  1  0.44610189  0.73531814  0.93253988  1  0.492057  0.836866  -0.000911  0.463775  0.0
Li  Li3  1  0.26468181  0.55389884  0.56745831  1  0.492045  0.836862  -0.000911  0.463785  0.0
Mn  Mn4  1  0.41715455  0.58284628  0.24999903  1  0.620312  0.96545  4.694406  2.23756  4.492
Mn  Mn5  1  0.58285384  0.41714864  0.75000086  1  0.620289  0.965387  4.694412  2.237566  4.492
H  H6  1  0.55811071  0.97651008  0.11409401  1  0.297895  0.39223  -0.000178  0.938003  0.0
H  H7  1  0.02349002  0.44188961  0.38590530  1  0.297917  0.392261  -0.000178  0.93796  0.0
H  H8  1  0.44188728  0.02349315  0.88590262  1  0.297894  0.3922  -0.000178  0.93805  0.0
H  H9  1  0.97650900  0.55811354  0.61409493  1  0.297911  0.392248  -0.000178  0.937981  0.0
H  H10  1  0.62416869  0.05755010  0.96005018  1  0.301416  0.394434  -0.000178  0.938673  0.0
H  H11  1  0.94245062  0.37583120  0.53994969  1  0.301404  0.394432  -0.000178  0.938676  0.0
H  H12  1  0.37582711  0.94245316  0.03994809  1  0.301398  0.394405  -0.000178  0.938706  0.0
H  H13  1  0.05754623  0.62417199  0.46005119  1  0.30141  0.394451  -0.000178  0.938658  0.0
H  H14  1  0.42967961  0.09191101  0.26077585  1  0.114081  0.088305  8.9e-05  1.095662  0.0
H  H15  1  0.90808896  0.57032228  0.23922328  1  0.114078  0.088315  8.9e-05  1.095644  0.0
H  H16  1  0.57032078  0.90808522  0.73922511  1  0.114084  0.088323  8.9e-05  1.095635  0.0
H  H17  1  0.09191710  0.42967613  0.76077722  1  0.114092  0.088358  8.9e-05  1.095657  0.0
H  H18  1  0.20355927  0.83670604  0.62727098  1  0.115528  0.096041  -5.8e-05  1.041252  0.0
H  H19  1  0.16328989  0.79644420  0.87272810  1  0.115496  0.095993  -5.8e-05  1.041289  0.0
H  H20  1  0.79643427  0.16329154  0.37272679  1  0.115511  0.096002  -5.8e-05  1.041258  0.0
H  H21  1  0.83671771  0.20355870  0.12727640  1  0.115524  0.096009  -5.8e-05  1.041306  0.0
H  H22  1  0.15885829  0.02406557  0.76737539  1  0.108201  0.103445  -2.1e-05  1.012718  0.0
H  H23  1  0.97593131  0.84114137  0.73262197  1  0.108188  0.103394  -2.1e-05  1.012756  0.0
H  H24  1  0.84112717  0.97593683  0.23261950  1  0.108172  0.10342  -2.1e-05  1.012793  0.0
H  H25  1  0.02407587  0.15886267  0.26738328  1  0.108199  0.1034  -2.1e-05  1.012737  0.0
H  H26  1  0.25850602  0.23705616  0.65374143  1  0.112916  0.10332  -3.4e-05  1.029055  0.0
H  H27  1  0.76294279  0.74148875  0.84625826  1  0.112924  0.103311  -3.4e-05  1.029121  0.0
H  H28  1  0.74147679  0.76294736  0.34625879  1  0.112975  0.103351  -3.4e-05  1.029122  0.0
H  H29  1  0.23706558  0.25851537  0.15373979  1  0.11298  0.103374  -3.4e-05  1.029115  0.0
C  C30  1  0.40564544  0.30843336  0.37758925  1  0.231425  0.618116  0.011361  4.158559  0.007
C  C31  1  0.69156429  0.59435463  0.12240917  1  0.231431  0.618118  0.011361  4.158566  0.007
C  C32  1  0.59434980  0.69156527  0.62241256  1  0.231499  0.618215  0.011361  4.15852  0.007
C  C33  1  0.30844124  0.40564840  0.87758910  1  0.231495  0.618309  0.011361  4.158338  0.007
C  C34  1  0.35117731  0.84323289  0.34721244  1  0.233328  0.612369  0.009217  4.145673  0.007
C  C35  1  0.15676869  0.64882237  0.15279020  1  0.23326  0.612241  0.009217  4.145881  0.007
C  C36  1  0.64881832  0.15676456  0.65279057  1  0.233236  0.612205  0.009216  4.145889  0.007
C  C37  1  0.84323367  0.35117721  0.84721400  1  0.23326  0.612253  0.009218  4.145675  0.007
C  C38  1  0.34968122  0.17834999  0.44911752  1  -0.011467  -0.047866  -0.00207  3.985366  -0.002
C  C39  1  0.82165085  0.65031763  0.05087964  1  -0.011474  -0.047886  -0.00207  3.985269  -0.002
C  C40  1  0.65031027  0.82165337  0.55088009  1  -0.011465  -0.047895  -0.00207  3.985246  -0.002
C  C41  1  0.17835483  0.34968196  0.94911867  1  -0.011501  -0.047992  -0.00207  3.985385  -0.002
C  C42  1  0.37005068  0.07640020  0.37147677  1  -0.066562  -0.098869  0.00394  3.95581  0.003
C  C43  1  0.92359792  0.62994888  0.12852250  1  -0.066564  -0.098856  0.003939  3.955853  0.003
C  C44  1  0.62994321  0.92359616  0.62852615  1  -0.066603  -0.098927  0.003939  3.955808  0.003
C  C45  1  0.07640668  0.37005073  0.87147614  1  -0.066628  -0.098985  0.00394  3.955966  0.003
C  C46  1  0.31808942  0.95315608  0.43442652  1  -0.01331  -0.046143  -0.001402  3.976767  -0.001
C  C47  1  0.04684213  0.68190862  0.06557510  1  -0.013316  -0.04611  -0.001402  3.97673  -0.001
C  C48  1  0.68190625  0.04684142  0.56557354  1  -0.013305  -0.046122  -0.001402  3.976828  -0.001
C  C49  1  0.95316146  0.31808748  0.93442979  1  -0.013288  -0.046066  -0.001402  3.976835  -0.001
C  C50  1  0.24180206  0.93424126  0.57786638  1  -0.063966  -0.072118  0.002846  3.93425  0.002
C  C51  1  0.06575368  0.75820241  0.92213440  1  -0.063934  -0.07212  0.002846  3.934183  0.002
C  C52  1  0.75819118  0.06575399  0.42213513  1  -0.063961  -0.072028  0.002845  3.934258  0.002
C  C53  1  0.93425801  0.24179812  0.07786860  1  -0.063988  -0.072148  0.002845  3.934253  0.002
C  C54  1  0.21819614  0.03768445  0.65588157  1  -0.079419  -0.078954  -0.000935  3.971069  -0.001
C  C55  1  0.96231556  0.78180489  0.84411557  1  -0.07944  -0.07891  -0.000935  3.971025  -0.001
C  C56  1  0.78179430  0.96231896  0.34411440  1  -0.079442  -0.07912  -0.000935  3.971097  -0.001
C  C57  1  0.03769314  0.21819800  0.15588762  1  -0.079429  -0.078912  -0.000935  3.97101  -0.001
C  C58  1  0.27322753  0.15841887  0.59253318  1  -0.06188  -0.054122  0.003289  3.908592  0.003
C  C59  1  0.84158269  0.72676998  0.90746331  1  -0.06186  -0.054126  0.003289  3.908553  0.003
C  C60  1  0.72675897  0.84158346  0.40746432  1  -0.061906  -0.054042  0.003289  3.908416  0.003
C  C61  1  0.15842864  0.27323176  0.09253553  1  -0.0619  -0.054116  0.003289  3.908562  0.003
O  O62  1  0.38539648  0.40354999  0.44787916  1  -0.359646  -0.640663  0.03608  2.303897  0.024
O  O63  1  0.59644805  0.61460253  0.05212093  1  -0.359646  -0.640616  0.036081  2.303985  0.024
O  O64  1  0.61460214  0.59644511  0.55212367  1  -0.359684  -0.640667  0.03608  2.303815  0.024
O  O65  1  0.40356186  0.38540047  0.94787309  1  -0.359673  -0.640695  0.036081  2.303862  0.024
O  O66  1  0.46756073  0.33045389  0.24454118  1  -0.36846  -0.645283  0.036246  2.223702  0.026
O  O67  1  0.66954716  0.53243815  0.25545868  1  -0.368471  -0.645323  0.036247  2.223684  0.026
O  O68  1  0.53243938  0.66954003  0.75546155  1  -0.368443  -0.645267  0.036245  2.223778  0.026
O  O69  1  0.33045771  0.46756375  0.74453917  1  -0.368443  -0.645314  0.036247  2.223652  0.026
O  O70  1  0.31366366  0.72297106  0.40653848  1  -0.353374  -0.625777  0.038679  2.286382  0.022
O  O71  1  0.27702512  0.68634349  0.09346193  1  -0.353328  -0.625706  0.038678  2.286408  0.022
O  O72  1  0.68634492  0.27702046  0.59345849  1  -0.353323  -0.625695  0.038675  2.286265  0.022
O  O73  1  0.72297997  0.31365145  0.90654188  1  -0.353308  -0.625704  0.038678  2.286334  0.022
O  O74  1  0.41829111  0.86870061  0.21695336  1  -0.291331  -0.574556  0.016987  2.222989  0.013
O  O75  1  0.13130174  0.58171028  0.28304577  1  -0.291302  -0.574497  0.016987  2.223139  0.013
O  O76  1  0.58170890  0.13129680  0.78304540  1  -0.291272  -0.57444  0.016985  2.22315  0.013
O  O77  1  0.86870130  0.41829044  0.71695788  1  -0.291335  -0.574523  0.016988  2.222978  0.013
O  O78  1  0.61423587  0.04746199  0.06131536  1  -0.647572  -0.843494  -0.000149  1.964382  0.0
O  O79  1  0.95253643  0.38576493  0.43868457  1  -0.647573  -0.843526  -0.000149  1.964384  0.0
O  O80  1  0.38576250  0.95254005  0.93868346  1  -0.647552  -0.843442  -0.000149  1.964418  0.0
O  O81  1  0.04746150  0.61423824  0.56131599  1  -0.647572  -0.843522  -0.000149  1.964316  0.0
