# generated using pymatgen
data_CdH11C19N3O4
_symmetry_space_group_name_H-M   'P 1'
_cell_length_a   7.74185862
_cell_length_b   10.51479062
_cell_length_c   11.12553630
_cell_angle_alpha   106.93655609
_cell_angle_beta   98.35095298
_cell_angle_gamma   109.75426852
_symmetry_Int_Tables_number   1
_chemical_formula_structural   CdH11C19N3O4
_chemical_formula_sum   'Cd2 H22 C38 N6 O8'
_cell_volume   784.95916166
_cell_formula_units_Z   2
loop_
 _symmetry_equiv_pos_site_id
 _symmetry_equiv_pos_as_xyz
  1  'x, y, z'
loop_
 _atom_site_type_symbol
 _atom_site_label
 _atom_site_symmetry_multiplicity
 _atom_site_fract_x
 _atom_site_fract_y
 _atom_site_fract_z
 _atom_site_occupancy
 _atom_site_pbe_bader_spin_density
 _atom_site_pbe_cm5_charge
 _atom_site_pbe_ddec_charge
 _atom_site_pbe_ddec_spin_density
 _atom_site_pbe_ddec_sum_bond_order
 _atom_site_pbe_magmom
Cd  Cd0  1  0.41956634  0.08589818  0.14608711  1  0  0.784799  0.858011  0  2.21939  0
Cd  Cd1  1  0.58043363  0.91409864  0.85391294  1  0  0.784801  0.857998  0  2.21942  0
H  H2  1  0.47462195  0.30987350  0.98733494  1  0  0.110353  0.074562  0  1.052694  0
H  H3  1  0.52537856  0.69012440  0.01266816  1  0  0.110377  0.074574  0  1.052706  0
H  H4  1  0.28061176  0.42634761  0.88977196  1  0  0.109006  0.120046  0  1.017799  0
H  H5  1  0.71939010  0.57365030  0.11022770  1  0  0.109008  0.120033  0  1.017809  0
H  H6  1  0.96286226  0.38921717  0.93106198  1  0  0.107334  0.100087  0  1.0252  0
H  H7  1  0.03713382  0.61077967  0.06893586  1  0  0.107341  0.100109  0  1.025189  0
H  H8  1  0.54113681  0.43928397  0.29604343  1  0  0.11122  0.073342  0  1.009344  0
H  H9  1  0.45886304  0.56071504  0.70395451  1  0  0.111206  0.073333  0  1.009347  0
H  H10  1  0.75540067  0.64276130  0.50754908  1  0  0.107226  0.115069  0  1.011739  0
H  H11  1  0.24459409  0.35723553  0.49244952  1  0  0.107251  0.115092  0  1.011694  0
H  H12  1  0.93760001  0.58561475  0.67183391  1  0  0.108417  0.119191  0  1.030788  0
H  H13  1  0.06239705  0.41438643  0.32816523  1  0  0.108416  0.119169  0  1.030772  0
H  H14  1  0.01342709  0.40156343  0.73804150  1  0  0.100974  0.113113  0  1.056416  0
H  H15  1  0.98657637  0.59843992  0.26195712  1  0  0.100965  0.113109  0  1.056435  0
H  H16  1  0.95954037  0.13932671  0.69268705  1  0  0.103091  0.118639  0  1.027527  0
H  H17  1  0.04046235  0.86067772  0.30731179  1  0  0.103099  0.118677  0  1.027451  0
H  H18  1  0.80730289  0.88554728  0.54480553  1  0  0.112616  0.120119  0  1.005656  0
H  H19  1  0.19269676  0.11445389  0.45519568  1  0  0.112603  0.120084  0  1.005709  0
H  H20  1  0.57974339  0.69669117  0.32891645  1  0  0.105467  0.108373  0  1.00485  0
H  H21  1  0.42025568  0.30330891  0.67108530  1  0  0.105463  0.108368  0  1.004869  0
H  H22  1  0.41567283  0.77860645  0.17502784  1  0  0.113499  0.078093  0  1.007817  0
H  H23  1  0.58432492  0.22139363  0.82497467  1  0  0.113481  0.078109  0  1.007791  0
C  C24  1  0.33346843  0.29732798  0.99964854  1  0  0.042982  0.089875  0  3.966846  0
C  C25  1  0.66653193  0.70267210  0.00035425  1  0  0.04295  0.089885  0  3.96685  0
C  C26  1  0.22735706  0.36143019  0.94726516  1  0  -0.08595  -0.12675  0  3.968445  0
C  C27  1  0.77264420  0.63856663  0.05273593  1  0  -0.085948  -0.126747  0  3.968485  0
C  C28  1  0.05089016  0.34206649  0.97184878  1  0  -0.064528  -0.04893  0  3.936972  0
C  C29  1  0.94910908  0.65793143  0.02815149  1  0  -0.064522  -0.048893  0  3.937009  0
C  C30  1  0.98578733  0.26323651  0.04973172  1  0  -0.001418  -0.07183  0  3.917743  0
C  C31  1  0.01421318  0.73676139  0.95027048  1  0  -0.001444  -0.071956  0  3.91787  0
C  C32  1  0.10201566  0.20240700  0.09959487  1  0  0.115425  0.086055  0  3.916033  0
C  C33  1  0.89798413  0.79759200  0.90040666  1  0  0.115454  0.086086  0  3.916075  0
C  C34  1  0.79737603  0.25341383  0.07714822  1  0  0.20911  0.586117  0  4.234247  0
C  C35  1  0.20262264  0.74658300  0.92285080  1  0  0.209145  0.586267  0  4.234351  0
C  C36  1  0.05428163  0.12499078  0.19494280  1  0  0.189034  0.526215  0  4.284161  0
C  C37  1  0.94571874  0.87500930  0.80505908  1  0  0.18904  0.526269  0  4.284221  0
C  C38  1  0.61903783  0.41851718  0.37287803  1  0  0.053463  0.109392  0  3.975199  0
C  C39  1  0.38096389  0.58148291  0.62712041  1  0  0.053495  0.109419  0  3.975265  0
C  C40  1  0.73801682  0.53124700  0.49028755  1  0  -0.085462  -0.130267  0  3.987495  0
C  C41  1  0.26198228  0.46875309  0.50971150  1  0  -0.085476  -0.13028  0  3.987456  0
C  C42  1  0.83807089  0.49910526  0.58227849  1  0  -0.063785  -0.068774  0  3.896465  0
C  C43  1  0.16193010  0.50089592  0.41772017  1  0  -0.063801  -0.068777  0  3.896352  0
C  C44  1  0.81542161  0.35407586  0.55735468  1  0  -0.002168  0.046312  0  4.009543  0
C  C45  1  0.18457808  0.64592532  0.44264294  1  0  -0.00214  0.046419  0  4.009382  0
C  C46  1  0.91558782  0.31407139  0.64843556  1  0  -0.091551  -0.13949  0  3.992664  0
C  C47  1  0.08441376  0.68593087  0.35156256  1  0  -0.091572  -0.139597  0  3.99271  0
C  C48  1  0.88900134  0.17259471  0.62267110  1  0  -0.083941  -0.116687  0  3.96784  0
C  C49  1  0.11099967  0.82740647  0.37732576  1  0  -0.083974  -0.116701  0  3.967923  0
C  C50  1  0.76212686  0.06117686  0.50250733  1  0  0.004508  0.052748  0  3.972058  0
C  C51  1  0.23787226  0.93882324  0.49748993  1  0  0.00458  0.052799  0  3.972064  0
C  C52  1  0.73208202  0.91408138  0.47288186  1  0  -0.056464  -0.059459  0  3.890893  0
C  C53  1  0.26792010  0.08592197  0.52711931  1  0  -0.056478  -0.059428  0  3.890997  0
C  C54  1  0.60788283  0.81141753  0.35525922  1  0  -0.085135  -0.132272  0  3.993348  0
C  C55  1  0.39211439  0.18858148  0.64473934  1  0  -0.085113  -0.132256  0  3.993463  0
C  C56  1  0.51548698  0.85666716  0.26827319  1  0  0.055963  0.107435  0  3.965854  0
C  C57  1  0.48451078  0.14333292  0.73172842  1  0  0.05596  0.107422  0  3.965743  0
C  C58  1  0.66305148  0.09698705  0.40825427  1  0  0.127192  0.140551  0  3.952511  0
C  C59  1  0.33695082  0.90301413  0.59174363  1  0  0.127159  0.140449  0  3.952607  0
C  C60  1  0.69003103  0.24681945  0.43664758  1  0  0.122915  0.132856  0  3.956684  0
C  C61  1  0.30997129  0.75318173  0.56334942  1  0  0.122907  0.13286  0  3.956714  0
N  N62  1  0.27016121  0.21889406  0.07201996  1  0  -0.325556  -0.253561  0  3.529699  0
N  N63  1  0.72983857  0.78110494  0.92798247  1  0  -0.325561  -0.253571  0  3.529745  0
N  N64  1  0.59630578  0.28133982  0.34710629  1  0  -0.322216  -0.266452  0  3.502359  0
N  N65  1  0.40369407  0.71865919  0.65289165  1  0  -0.322203  -0.266445  0  3.502402  0
N  N66  1  0.54289859  0.99463165  0.29328498  1  0  -0.317778  -0.256226  0  3.484337  0
N  N67  1  0.45710124  0.00536735  0.70671386  1  0  -0.317765  -0.256217  0  3.484355  0
O  O68  1  0.13270202  0.03701907  0.20271555  1  0  -0.342416  -0.57165  0  2.269002  0
O  O69  1  0.86729908  0.96297993  0.79728611  1  0  -0.342405  -0.571679  0  2.26909  0
O  O70  1  0.94733725  0.15802322  0.26091769  1  0  -0.317673  -0.524623  0  2.153362  0
O  O71  1  0.05266327  0.84197469  0.73908452  1  0  -0.317701  -0.524643  0  2.153384  0
O  O72  1  0.65733639  0.12675946  0.03190464  1  0  -0.338467  -0.567563  0  2.381594  0
O  O73  1  0.34266415  0.87323845  0.96809577  1  0  -0.338508  -0.567638  0  2.381711  0
O  O74  1  0.78343031  0.36951795  0.13378202  1  0  -0.310102  -0.54166  0  2.171453  0
O  O75  1  0.21656969  0.63047888  0.86621534  1  0  -0.310077  -0.541706  0  2.171547  0
