# generated using pymatgen
data_CdH22C24(NO)4
_symmetry_space_group_name_H-M   'P 1'
_cell_length_a   9.27774058
_cell_length_b   9.57713195
_cell_length_c   13.78140000
_cell_angle_alpha   87.55286108
_cell_angle_beta   72.05470845
_cell_angle_gamma   71.71284665
_symmetry_Int_Tables_number   1
_chemical_formula_structural   CdH22C24(NO)4
_chemical_formula_sum   'Cd2 H44 C48 N8 O8'
_cell_volume   1104.15006170
_cell_formula_units_Z   2
loop_
 _symmetry_equiv_pos_site_id
 _symmetry_equiv_pos_as_xyz
  1  'x, y, z'
loop_
 _atom_site_type_symbol
 _atom_site_label
 _atom_site_symmetry_multiplicity
 _atom_site_fract_x
 _atom_site_fract_y
 _atom_site_fract_z
 _atom_site_occupancy
 _atom_site_hle17_bader_spin_density
 _atom_site_hle17_ddec_charge
 _atom_site_hle17_ddec_spin_density
 _atom_site_hle17_ddec_sum_bond_order
 _atom_site_hle17_magmom
 _atom_site_hse06_10hf_bader_spin_density
 _atom_site_hse06_10hf_ddec_charge
 _atom_site_hse06_10hf_ddec_spin_density
 _atom_site_hse06_10hf_ddec_sum_bond_order
 _atom_site_hse06_10hf_magmom
 _atom_site_hse06_bader_spin_density
 _atom_site_hse06_ddec_charge
 _atom_site_hse06_ddec_spin_density
 _atom_site_hse06_ddec_sum_bond_order
 _atom_site_hse06_magmom
 _atom_site_pbe_bader_charge
 _atom_site_pbe_bader_spin_density
 _atom_site_pbe_cm5_charge
 _atom_site_pbe_ddec_charge
 _atom_site_pbe_ddec_spin_density
 _atom_site_pbe_ddec_sum_bond_order
 _atom_site_pbe_magmom
Cd  Cd0  1  0.54166800  0.32783694  0.08302668  1  0  1.126885  0  1.730561  0  0  0.934298  0  2.1819  0  0  0.991918  0  2.129996  0  1.285398  0  0.774039  0.893498  0  2.217254  0
Cd  Cd1  1  0.45833408  0.67216245  0.91697334  1  0  1.126902  0  1.730582  0  0  0.934312  0  2.181934  0  0  0.991932  0  2.130027  0  1.285396  0  0.774049  0.893512  0  2.217288  0
H  H2  1  0.35977726  0.96188189  0.27571175  1  0  0.097692  0  0.946872  0  0  0.111894  0  1.013371  0  0  0.11431  0  1.012185  0  0.045523  0  0.097612  0.11029  0  1.014133  0
H  H3  1  0.64022104  0.03811860  0.72428830  1  0  0.097701  0  0.946873  0  0  0.111892  0  1.013382  0  0  0.114306  0  1.012194  0  0.045525  0  0.097606  0.110289  0  1.014142  0
H  H4  1  0.45788016  0.86235115  0.15724758  1  0  0.108924  0  0.94814  0  0  0.122359  0  1.011937  0  0  0.124505  0  1.011032  0  0.064588  0  0.101254  0.121054  0  1.012311  0
H  H5  1  0.54212041  0.13764934  0.84275272  1  0  0.108912  0  0.94815  0  0  0.122351  0  1.01194  0  0  0.124494  0  1.011035  0  0.064568  0  0.101246  0.121045  0  1.012314  0
H  H6  1  0.48315766  0.94552772  0.40730275  1  0  0.079867  0  0.959212  0  0  0.094963  0  1.016707  0  0  0.097628  0  1.015298  0  0.04328  0  0.094768  0.09285  0  1.018218  0
H  H7  1  0.51684140  0.05447387  0.59269711  1  0  0.079868  0  0.959241  0  0  0.094965  0  1.016743  0  0  0.097629  0  1.015335  0  0.043244  0  0.094762  0.092851  0  1.018253  0
H  H8  1  0.67193824  0.78621309  0.49097261  1  0  0.07445  0  0.974464  0  0  0.086375  0  1.036979  0  0  0.089081  0  1.035593  0  0.026089  0  0.09237  0.084324  0  1.038171  0
H  H9  1  0.32806081  0.21378850  0.50902798  1  0  0.074445  0  0.974479  0  0  0.086365  0  1.036994  0  0  0.089072  0  1.035606  0  0.026082  0  0.092358  0.084314  0  1.038186  0
H  H10  1  0.90310100  0.57540679  0.38847229  1  0  0.081053  0  0.9629  0  0  0.090446  0  1.027781  0  0  0.0933  0  1.026858  0  0.054415  0  0.093771  0.088727  0  1.027892  0
H  H11  1  0.09689692  0.42459480  0.61152853  1  0  0.08104  0  0.962881  0  0  0.090429  0  1.027766  0  0  0.093284  0  1.026842  0  0.054401  0  0.093762  0.088711  0  1.027876  0
H  H12  1  0.93880536  0.53101313  0.20599161  1  0  0.090193  0  0.947906  0  0  0.10324  0  1.006584  0  0  0.106044  0  1.005287  0  0.059699  0  0.099033  0.101438  0  1.007081  0
H  H13  1  0.06119483  0.46898846  0.79400874  1  0  0.090166  0  0.947919  0  0  0.103244  0  1.006565  0  0  0.106047  0  1.005269  0  0.059685  0  0.09903  0.101442  0  1.007062  0
H  H14  1  0.88276021  0.63926793  0.04933411  1  0  0.103675  0  0.935669  0  0  0.121044  0  0.994202  0  0  0.123235  0  0.992828  0  0.063114  0  0.102472  0.11956  0  0.995092  0
H  H15  1  0.11723998  0.36073366  0.95066697  1  0  0.103677  0  0.935662  0  0  0.121051  0  0.99418  0  0  0.123238  0  0.99281  0  0.063091  0  0.102477  0.119567  0  0.995071  0
H  H16  1  0.69679823  0.76898641  0.05483047  1  0  0.113477  0  0.941172  0  0  0.127944  0  1.00203  0  0  0.130199  0  1.000773  0  0.053837  0  0.10174  0.126194  0  1.00324  0
H  H17  1  0.30320158  0.23101298  0.94517002  1  0  0.113527  0  0.941118  0  0  0.127962  0  1.002012  0  0  0.130219  0  1.000753  0  0.053832  0  0.101744  0.126213  0  1.003223  0
H  H18  1  0.48479466  0.31072262  0.33308283  1  0  0.109584  0  0.963392  0  0  0.118502  0  1.024366  0  0  0.121  0  1.02325  0  0.138245  0  0.116871  0.116502  0  1.025516  0
H  H19  1  0.51520590  0.68927787  0.66691602  1  0  0.109543  0  0.963431  0  0  0.118478  0  1.024384  0  0  0.120975  0  1.023272  0  0.138323  0  0.116865  0.116478  0  1.025533  0
H  H20  1  0.29961341  0.54217076  0.47975708  1  0  0.115772  0  0.970785  0  0  0.126477  0  1.028385  0  0  0.128659  0  1.028605  0  0.121784  0  0.121547  0.124869  0  1.028342  0
H  H21  1  0.70038904  0.45782753  0.52024145  1  0  0.1158  0  0.970707  0  0  0.126506  0  1.028304  0  0  0.128687  0  1.028525  0  0.121786  0  0.121565  0.124884  0  1.028275  0
H  H22  1  0.23171293  0.66089685  0.19347611  1  0  0.092876  0  0.975309  0  0  0.099933  0  1.045219  0  0  0.102149  0  1.043213  0  0.165021  0  0.129265  0.098324  0  1.046555  0
H  H23  1  0.76828612  0.33910473  0.80652375  1  0  0.092875  0  0.975325  0  0  0.099924  0  1.045234  0  0  0.10214  0  1.043228  0  0.165006  0  0.129279  0.098315  0  1.04657  0
H  H24  1  0.01295871  0.80756550  0.37324846  1  0  0.083392  0  0.93719  0  0  0.095685  0  1.005783  0  0  0.095729  0  1.007096  0  0.076008  0  0.110642  0.095375  0  1.00523  0
H  H25  1  0.98704110  0.19243388  0.62675131  1  0  0.083332  0  0.937164  0  0  0.095635  0  1.005751  0  0  0.095679  0  1.007064  0  0.07582  0  0.11063  0.095325  0  1.005199  0
H  H26  1  0.17754700  0.87246220  0.35802998  1  0  0.07775  0  0.933865  0  0  0.092412  0  0.998373  0  0  0.092685  0  0.998628  0  0.070996  0  0.108477  0.09223  0  0.998044  0
H  H27  1  0.82245168  0.12753719  0.64197002  1  0  0.077726  0  0.933845  0  0  0.092387  0  0.998357  0  0  0.092659  0  0.998612  0  0.07099  0  0.108468  0.092204  0  0.998029  0
H  H28  1  0.87929398  0.72790103  0.54158486  1  0  0.084402  0  0.984731  0  0  0.094511  0  1.051283  0  0  0.096577  0  1.051153  0  0.050446  0  0.096354  0.09271  0  1.052171  0
H  H29  1  0.12070470  0.27209836  0.45841515  1  0  0.084413  0  0.984734  0  0  0.094492  0  1.051315  0  0  0.096558  0  1.051187  0  0.050469  0  0.096361  0.092692  0  1.052203  0
H  H30  1  0.82455105  0.74258618  0.72947364  1  0  0.101892  0  0.960934  0  0  0.109856  0  1.025444  0  0  0.112425  0  1.025314  0  0.086154  0  0.101171  0.107907  0  1.02569  0
H  H31  1  0.17544800  0.25741210  0.27052632  1  0  0.101886  0  0.960905  0  0  0.109842  0  1.025438  0  0  0.112412  0  1.025306  0  0.086172  0  0.101167  0.107894  0  1.025682  0
H  H32  1  0.23731026  0.88252588  0.68757765  1  0  0.109821  0  0.957803  0  0  0.118996  0  1.020488  0  0  0.122338  0  1.018476  0  0.115845  0  0.105475  0.116425  0  1.022256  0
H  H33  1  0.76269030  0.11747130  0.31242202  1  0  0.109815  0  0.957772  0  0  0.119  0  1.020445  0  0  0.122342  0  1.018432  0  0.115829  0  0.105485  0.116428  0  1.022215  0
H  H34  1  0.28763086  0.87302294  0.50000831  1  0  0.083747  0  0.97624  0  0  0.093936  0  1.040968  0  0  0.096237  0  1.040573  0  0.072973  0  0.096204  0.092169  0  1.041437  0
H  H35  1  0.71236782  0.12697644  0.49999169  1  0  0.083729  0  0.976231  0  0  0.093916  0  1.040965  0  0  0.096217  0  1.040569  0  0.07299  0  0.096195  0.092149  0  1.041435  0
H  H36  1  0.90346371  0.76905581  0.87228424  1  0  0.090976  0  0.91918  0  0  0.106611  0  0.980403  0  0  0.107661  0  0.979369  0  0.068076  0  0.11734  0.10575  0  0.981213  0
H  H37  1  0.09653724  0.23094358  0.12771602  1  0  0.090983  0  0.919166  0  0  0.106615  0  0.980393  0  0  0.107667  0  0.979356  0  0.068081  0  0.117343  0.105755  0  0.981202  0
H  H38  1  0.10308049  0.76426248  0.85430696  1  0  0.117488  0  0.953163  0  0  0.128952  0  1.01688  0  0  0.131078  0  1.015014  0  0.192111  0  0.11778  0.127551  0  1.017935  0
H  H39  1  0.89691970  0.23573580  0.14569203  1  0  0.11747  0  0.953188  0  0  0.128955  0  1.016876  0  0  0.131081  0  1.01501  0  0.192111  0  0.117788  0.127555  0  1.01793  0
H  H40  1  0.68386354  0.99197708  0.94483794  1  0  0.107482  0  0.984562  0  0  0.112057  0  1.05506  0  0  0.115587  0  1.051135  0  0.182227  0  0.129168  0.109065  0  1.058349  0
H  H41  1  0.31613703  0.00802340  0.05516164  1  0  0.107516  0  0.98456  0  0  0.112098  0  1.055044  0  0  0.115628  0  1.05112  0  0.182213  0  0.129182  0.109106  0  1.058332  0
H  H42  1  0.92537530  0.30069529  0.94052237  1  0  0.092452  0  0.982423  0  0  0.102762  0  1.04413  0  0  0.104564  0  1.04367  0  0.072017  0  0.112152  0.101467  0  1.044379  0
H  H43  1  0.07462678  0.69930409  0.05947692  1  0  0.092462  0  0.982411  0  0  0.102769  0  1.044123  0  0  0.104566  0  1.043677  0  0.072362  0  0.112156  0.101473  0  1.044373  0
H  H44  1  0.14595181  0.03685389  0.83747433  1  0  0.128715  0  0.986836  0  0  0.133941  0  1.054485  0  0  0.136989  0  1.053326  0  0.176706  0  0.119498  0.13154  0  1.055328  0
H  H45  1  0.85404914  0.96314549  0.16252520  1  0  0.128738  0  0.986827  0  0  0.133924  0  1.054517  0  0  0.136972  0  1.053355  0  0.176724  0  0.119505  0.131524  0  1.05536  0
C  C46  1  0.50964494  0.06331251  0.17194212  1  0  0.678049  0  3.882595  0  0  0.635266  0  4.179289  0  0  0.667437  0  4.174914  0  1.557255  0  0.192642  0.613453  0  4.181365  0
C  C47  1  0.49035449  0.93668798  0.82805842  1  0  0.678052  0  3.882564  0  0  0.635248  0  4.179286  0  0  0.667415  0  4.174913  0  1.557264  0  0.19262  0.613433  0  4.181362  0
C  C48  1  0.47654424  0.92248426  0.21585904  1  0  -0.302583  0  3.716545  0  0  -0.348845  0  3.964118  0  0  -0.354204  0  3.97147  0  -0.047122  0  -0.165073  -0.345219  0  3.958522  0
C  C49  1  0.52345632  0.07751623  0.78414053  1  0  -0.302591  0  3.716547  0  0  -0.348837  0  3.964119  0  0  -0.354183  0  3.971456  0  -0.047098  0  -0.165062  -0.345207  0  3.958517  0
C  C50  1  0.59913749  0.82611198  0.26092554  1  0  0.074485  0  3.719495  0  0  0.091154  0  3.95103  0  0  0.091552  0  3.975037  0  -0.037241  0  -0.012169  0.09078  0  3.934474  0
C  C51  1  0.40086081  0.17388851  0.73907451  1  0  0.074581  0  3.719584  0  0  0.091253  0  3.951104  0  0  0.091644  0  3.975111  0  -0.037253  0  -0.012106  0.090878  0  3.934546  0
C  C52  1  0.58293610  0.85293304  0.36360051  1  0  -0.121357  0  3.775327  0  0  -0.142781  0  4.02581  0  0  -0.14513  0  4.046509  0  -0.041958  0  -0.099335  -0.141003  0  4.011222  0
C  C53  1  0.41706295  0.14706855  0.63640080  1  0  -0.121456  0  3.775448  0  0  -0.142892  0  4.025937  0  0  -0.145241  0  4.046638  0  -0.041879  0  -0.099398  -0.141114  0  4.011349  0
C  C54  1  0.69010685  0.76460510  0.41028124  1  0  -0.090181  0  3.832965  0  0  -0.105085  0  4.086186  0  0  -0.106412  0  4.107077  0  -0.057068  0  -0.105615  -0.103641  0  4.071389  0
C  C55  1  0.30989107  0.23539649  0.58971958  1  0  -0.090157  0  3.832899  0  0  -0.105044  0  4.086108  0  0  -0.106372  0  4.107  0  -0.057093  0  -0.105596  -0.103601  0  4.071312  0
C  C56  1  0.81881388  0.64766590  0.35328580  1  0  -0.089686  0  3.824331  0  0  -0.104692  0  4.081141  0  0  -0.10615  0  4.101631  0  -0.056213  0  -0.104978  -0.103414  0  4.066359  0
C  C57  1  0.18118517  0.35233569  0.64671478  1  0  -0.089694  0  3.824328  0  0  -0.104698  0  4.08115  0  0  -0.106155  0  4.101638  0  -0.056492  0  -0.104994  -0.103421  0  4.066369  0
C  C58  1  0.83876301  0.62245767  0.25046116  1  0  -0.105097  0  3.753118  0  0  -0.128484  0  4.006418  0  0  -0.129701  0  4.026681  0  -0.08559  0  -0.091909  -0.127725  0  3.992142  0
C  C59  1  0.16123604  0.37754392  0.74953942  1  0  -0.105046  0  3.753173  0  0  -0.128466  0  4.006477  0  0  -0.129686  0  4.026742  0  -0.085271  0  -0.091902  -0.127707  0  3.992201  0
C  C60  1  0.73086303  0.71038130  0.20291258  1  0  0.072017  0  3.694038  0  0  0.089378  0  3.923985  0  0  0.088569  0  3.948481  0  0.047316  0  -0.008475  0.089707  0  3.907725  0
C  C61  1  0.26913640  0.28961919  0.79708796  1  0  0.071982  0  3.694115  0  0  0.089356  0  3.92405  0  0  0.088549  0  3.948548  0  0.047318  0  -0.008459  0.089686  0  3.907792  0
C  C62  1  0.75441007  0.67449136  0.09238286  1  0  -0.297943  0  3.688392  0  0  -0.341902  0  3.931236  0  0  -0.346874  0  3.938259  0  -0.054452  0  -0.16046  -0.33859  0  3.926709  0
C  C63  1  0.24558936  0.32550913  0.90761768  1  0  -0.297995  0  3.688364  0  0  -0.341922  0  3.931217  0  0  -0.346894  0  3.93824  0  -0.054443  0  -0.160463  -0.338616  0  3.926697  0
C  C64  1  0.69683946  0.54483678  0.08013281  1  0  0.695662  0  3.868441  0  0  0.650169  0  4.163979  0  0  0.683279  0  4.158369  0  1.569601  0  0.198395  0.627817  0  4.16676  0
C  C65  1  0.30316299  0.45516150  0.91986790  1  0  0.69571  0  3.86843  0  0  0.650186  0  4.164018  0  0  0.683297  0  4.158404  0  1.569603  0  0.198372  0.627836  0  4.166799  0
C  C66  1  0.40270954  0.41726544  0.32679952  1  0  -6.4e-05  0  3.763429  0  0  -0.033604  0  4.027359  0  0  -0.031746  0  4.048116  0  0.42968  0  -0.007609  -0.034653  0  4.013447  0
C  C67  1  0.59729141  0.58273395  0.67320002  1  0  -2.3e-05  0  3.763483  0  0  -0.033576  0  4.027422  0  0  -0.031717  0  4.048181  0  0.42959  0  -0.007628  -0.034625  0  4.013508  0
C  C68  1  0.31278833  0.53079169  0.39942576  1  0  -0.080071  0  3.694277  0  0  -0.117148  0  3.944157  0  0  -0.116323  0  3.964354  0  0.268147  0  -0.004543  -0.117693  0  3.930297  0
C  C69  1  0.68721110  0.46920880  0.60057551  1  0  -0.080157  0  3.694316  0  0  -0.117232  0  3.944208  0  0  -0.116407  0  3.964405  0  0.268155  0  -0.004543  -0.117765  0  3.930357  0
C  C70  1  0.27570456  0.59461647  0.25039784  1  0  0.160138  0  3.651024  0  0  0.10141  0  3.910769  0  0  0.114932  0  3.924458  0  0.939896  0  0.13701  0.092956  0  3.900449  0
C  C71  1  0.72429487  0.40538402  0.74960270  1  0  0.160184  0  3.650949  0  0  0.10148  0  3.910679  0  0  0.115002  0  3.92437  0  0.939899  0  0.137048  0.093025  0  3.900361  0
C  C72  1  0.12238412  0.78927241  0.39401864  1  0  -0.035143  0  3.641555  0  0  -0.104272  0  3.893403  0  0  -0.099097  0  3.903509  0  0.274491  0  -0.046525  -0.10758  0  3.886166  0
C  C73  1  0.87761531  0.21072808  0.60598045  1  0  -0.035029  0  3.641464  0  0  -0.104168  0  3.893292  0  0  -0.098991  0  3.903398  0  0.274717  0  -0.046492  -0.107477  0  3.886059  0
C  C74  1  0.08582470  0.80176195  0.50804985  1  0  0.056821  0  3.786894  0  0  0.077418  0  4.024891  0  0  0.076567  0  4.049292  0  -0.050804  0  -0.017303  0.078126  0  4.008302  0
C  C75  1  0.91417360  0.19823854  0.49194947  1  0  0.056757  0  3.786955  0  0  0.077399  0  4.024886  0  0  0.076548  0  4.049286  0  -0.050787  0  -0.017313  0.078107  0  4.008296  0
C  C76  1  0.95656844  0.76405206  0.57337074  1  0  -0.121347  0  3.768411  0  0  -0.14158  0  4.015663  0  0  -0.144075  0  4.037639  0  -0.051145  0  -0.094935  -0.140113  0  4.001276  0
C  C77  1  0.04343137  0.23594732  0.42662831  1  0  -0.12136  0  3.768463  0  0  -0.141587  0  4.015714  0  0  -0.144082  0  4.03769  0  -0.051147  0  -0.094941  -0.14012  0  4.001328  0
C  C78  1  0.92629357  0.77134396  0.67903856  1  0  -0.120101  0  3.748076  0  0  -0.136912  0  3.994959  0  0  -0.140114  0  4.017394  0  -0.080959  0  -0.092018  -0.134506  0  3.979075  0
C  C79  1  0.07370510  0.22865542  0.32096217  1  0  -0.120042  0  3.748067  0  0  -0.136847  0  3.994946  0  0  -0.140049  0  4.017379  0  -0.080968  0  -0.091993  -0.134441  0  3.979058  0
C  C80  1  0.02623431  0.81475385  0.72099263  1  0  0.088345  0  3.731039  0  0  0.104321  0  3.971709  0  0  0.103861  0  3.995795  0  -0.007822  0  -0.005541  0.104642  0  3.954941  0
C  C81  1  0.97376550  0.18524554  0.27900786  1  0  0.088308  0  3.731049  0  0  0.104284  0  3.971721  0  0  0.103824  0  3.995807  0  -0.007842  0  -0.005554  0.104605  0  3.954954  0
C  C82  1  0.15695796  0.85103267  0.65574413  1  0  -0.107696  0  3.715102  0  0  -0.123775  0  3.955774  0  0  -0.125998  0  3.976407  0  -0.038042  0  -0.086269  -0.122205  0  3.942001  0
C  C83  1  0.84304185  0.14896671  0.34425563  1  0  -0.107698  0  3.71506  0  0  -0.123787  0  3.955744  0  0  -0.126011  0  3.976375  0  -0.038029  0  -0.086281  -0.122219  0  3.941972  0
C  C84  1  0.18521602  0.84557504  0.55045328  1  0  -0.113614  0  3.760818  0  0  -0.130881  0  4.003099  0  0  -0.133648  0  4.02528  0  -0.071116  0  -0.091417  -0.129151  0  3.988143  0
C  C85  1  0.81478379  0.15442435  0.44954722  1  0  -0.113584  0  3.760812  0  0  -0.130863  0  4.003079  0  0  -0.13363  0  4.02526  0  -0.071155  0  -0.091426  -0.129132  0  3.988123  0
C  C86  1  0.99390850  0.82192787  0.83511300  1  0  -0.060987  0  3.639308  0  0  -0.127082  0  3.886403  0  0  -0.122628  0  3.895519  0  0.249307  0  -0.049376  -0.130069  0  3.880187  0
C  C87  1  0.00609131  0.17807152  0.16488749  1  0  -0.060919  0  3.639259  0  0  -0.127027  0  3.886352  0  0  -0.122572  0  3.895464  0  0.249254  0  -0.049362  -0.130016  0  3.880136  0
C  C88  1  0.77688169  0.04337573  0.93232076  1  0  0.149262  0  3.660981  0  0  0.08887  0  3.927914  0  0  0.102032  0  3.941423  0  0.94213  0  0.133687  0.080431  0  3.918692  0
C  C89  1  0.22312039  0.95662365  0.06767927  1  0  0.149217  0  3.661064  0  0  0.088813  0  3.92799  0  0  0.101972  0  3.941504  0  0.942116  0  0.133659  0.080374  0  3.918769  0
C  C90  1  0.90816776  0.19803694  0.92557526  1  0  -0.01762  0  3.79337  0  0  -0.051813  0  4.066806  0  0  -0.050229  0  4.087744  0  0.435489  0  -0.013765  -0.052798  0  4.052451  0
C  C91  1  0.09183545  0.80196245  0.07442380  1  0  -0.017576  0  3.793343  0  0  -0.051767  0  4.066757  0  0  -0.050185  0  4.08769  0  0.435142  0  -0.013731  -0.052753  0  4.052401  0
C  C92  1  0.01759012  0.06979799  0.87407998  1  0  -0.063006  0  3.647871  0  0  -0.104982  0  3.909993  0  0  -0.103394  0  3.929253  0  0.265589  0  -0.001314  -0.10552  0  3.896726  0
C  C93  1  0.98241158  0.93019919  0.12591946  1  0  -0.063038  0  3.64787  0  0  -0.104992  0  3.910012  0  0  -0.103399  0  3.929269  0  0.265919  0  -0.001346  -0.105529  0  3.896745  0
N  N94  1  0.37812774  0.45830124  0.23444881  1  0  -0.380094  0  3.261997  0  0  -0.303866  0  3.541028  0  0  -0.325167  0  3.558791  0  -1.204147  0  -0.355725  -0.289459  0  3.528662  0
N  N95  1  0.62187169  0.54169925  0.76555100  1  0  -0.380104  0  3.26198  0  0  -0.303882  0  3.54101  0  0  -0.325185  0  3.558774  0  -1.204155  0  -0.355732  -0.289475  0  3.528645  0
N  N96  1  0.23274596  0.64251563  0.34981099  1  0  -0.059364  0  3.540232  0  0  0.037677  0  3.754443  0  0  0.02277  0  3.780223  0  -1.20459  0  -0.239308  0.047628  0  3.735929  0
N  N97  1  0.76725234  0.35748486  0.65018978  1  0  -0.059354  0  3.54022  0  0  0.03767  0  3.754438  0  0  0.022763  0  3.780218  0  -1.204587  0  -0.239351  0.047622  0  3.735922  0
N  N98  1  0.75898378  0.18033103  0.96141129  1  0  -0.405188  0  3.293316  0  0  -0.328534  0  3.578594  0  0  -0.35009  0  3.595723  0  -1.22321  0  -0.36918  -0.314002  0  3.566474  0
N  N99  1  0.24101829  0.81966836  0.03858874  1  0  -0.405219  0  3.293404  0  0  -0.32855  0  3.578677  0  0  -0.350106  0  3.595807  0  -1.223258  0  -0.369203  -0.314017  0  3.566556  0
N  N100  1  0.93179067  0.97343612  0.87944465  1  0  -0.050021  0  3.574087  0  0  0.045378  0  3.789772  0  0  0.030335  0  3.816856  0  -1.221206  0  -0.240501  0.055235  0  3.771603  0
N  N101  1  0.06820952  0.02656217  0.12055435  1  0  -0.050093  0  3.574134  0  0  0.045313  0  3.789812  0  0  0.030267  0  3.816897  0  -1.221404  0  -0.240516  0.055168  0  3.771645  0
O  O102  1  0.43337101  0.12873580  0.11096574  1  0  -0.663016  0  1.951544  0  0  -0.600819  0  2.196342  0  0  -0.629219  0  2.186834  0  -1.179693  0  -0.341402  -0.580699  0  2.202778  0
O  O103  1  0.56662843  0.87126469  0.88903480  1  0  -0.663079  0  1.951546  0  0  -0.600859  0  2.196343  0  0  -0.629261  0  2.18684  0  -1.179701  0  -0.341427  -0.580739  0  2.202781  0
O  O104  1  0.60450149  0.11096048  0.19950777  1  0  -0.645014  0  1.94402  0  0  -0.586855  0  2.175603  0  0  -0.612417  0  2.167879  0  -1.186668  0  -0.327926  -0.568726  0  2.180123  0
O  O105  1  0.39549832  0.88903890  0.80049200  1  0  -0.644935  0  1.943959  0  0  -0.586797  0  2.175586  0  0  -0.612353  0  2.167846  0  -1.186668  0  -0.327874  -0.568672  0  2.180113  0
O  O106  1  0.61875273  0.55122532  0.01684915  1  0  -0.693325  0  2.055847  0  0  -0.615788  0  2.323841  0  0  -0.647328  0  2.311063  0  -1.189305  0  -0.348464  -0.593557  0  2.331634  0
O  O107  1  0.38125199  0.44877297  0.98314963  1  0  -0.693374  0  2.055929  0  0  -0.615799  0  2.323892  0  0  -0.647359  0  2.311153  0  -1.189366  0  -0.348458  -0.593569  0  2.331685  0
O  O108  1  0.72965026  0.43460450  0.13192688  1  0  -0.624815  0  1.967899  0  0  -0.568531  0  2.203601  0  0  -0.595279  0  2.197054  0  -1.175113  0  -0.319597  -0.550261  0  2.20716  0
O  O109  1  0.27035144  0.56539599  0.86807391  1  0  -0.624806  0  1.967836  0  0  -0.568526  0  2.203593  0  0  -0.59526  0  2.197027  0  -1.175075  0  -0.31958  -0.550253  0  2.207151  0
