# generated using pymatgen
data_Ag2H9C14N3(ClO)4
_symmetry_space_group_name_H-M   'P 1'
_cell_length_a   7.46684624
_cell_length_b   8.82199572
_cell_length_c   14.23045619
_cell_angle_alpha   91.28842797
_cell_angle_beta   101.87700520
_cell_angle_gamma   101.98560474
_symmetry_Int_Tables_number   1
_chemical_formula_structural   Ag2H9C14N3(ClO)4
_chemical_formula_sum   'Ag4 H18 C28 N6 Cl8 O8'
_cell_volume   895.24406131
_cell_formula_units_Z   2
loop_
 _symmetry_equiv_pos_site_id
 _symmetry_equiv_pos_as_xyz
  1  'x, y, z'
loop_
 _atom_site_type_symbol
 _atom_site_label
 _atom_site_symmetry_multiplicity
 _atom_site_fract_x
 _atom_site_fract_y
 _atom_site_fract_z
 _atom_site_occupancy
 _atom_site_hle17_bader_spin_density
 _atom_site_hle17_ddec_charge
 _atom_site_hle17_ddec_spin_density
 _atom_site_hle17_ddec_sum_bond_order
 _atom_site_hle17_magmom
 _atom_site_hse06_10hf_bader_spin_density
 _atom_site_hse06_10hf_ddec_charge
 _atom_site_hse06_10hf_ddec_spin_density
 _atom_site_hse06_10hf_ddec_sum_bond_order
 _atom_site_hse06_10hf_magmom
 _atom_site_hse06_bader_spin_density
 _atom_site_hse06_ddec_charge
 _atom_site_hse06_ddec_spin_density
 _atom_site_hse06_ddec_sum_bond_order
 _atom_site_hse06_magmom
 _atom_site_pbe_bader_spin_density
 _atom_site_pbe_cm5_charge
 _atom_site_pbe_ddec_charge
 _atom_site_pbe_ddec_spin_density
 _atom_site_pbe_ddec_sum_bond_order
 _atom_site_pbe_magmom
Ag  Ag0  1  0.34791078  0.01190079  0.09247146  1  0  0.642471  0  1.295776  0  0  0.508774  0  1.730356  0  0  0.542683  0  1.677264  0  0  0.468769  0.484677  0  1.767733  0
Ag  Ag1  1  0.65208560  0.98809464  0.90752623  1  0  0.642467  0  1.295766  0  0  0.508789  0  1.730342  0  0  0.542693  0  1.677252  0  0  0.468767  0.484693  0  1.767715  0
Ag  Ag2  1  0.06988149  0.28944251  0.10290373  1  0  0.58199  0  1.322977  0  0  0.443675  0  1.769897  0  0  0.479669  0  1.715666  0  0  0.42608  0.418641  0  1.807593  0
Ag  Ag3  1  0.93012024  0.71055758  0.89709597  1  0  0.581986  0  1.322936  0  0  0.443665  0  1.769855  0  0  0.479657  0  1.715627  0  0  0.426074  0.418631  0  1.807543  0
H  H4  1  0.15848297  0.72325079  0.38431471  1  0  0.12526  0  0.942455  0  0  0.137968  0  0.998164  0  0  0.141134  0  0.998564  0  0  0.10211  0.135718  0  0.998122  0
H  H5  1  0.84152262  0.27674815  0.61568748  1  0  0.125268  0  0.942418  0  0  0.137979  0  0.998122  0  0  0.141145  0  0.998522  0  0  0.102122  0.135733  0  0.998082  0
H  H6  1  0.43712292  0.05448066  0.28709093  1  0  0.116439  0  0.983033  0  0  0.131798  0  1.056769  0  0  0.134121  0  1.054958  0  0  0.084731  0.130087  0  1.058083  0
H  H7  1  0.56287748  0.94551944  0.71291004  1  0  0.116444  0  0.983041  0  0  0.131809  0  1.056771  0  0  0.134129  0  1.054969  0  0  0.084741  0.130098  0  1.058083  0
H  H8  1  0.34050463  0.98864679  0.38817266  1  0  0.118585  0  0.965393  0  0  0.133373  0  1.034414  0  0  0.135467  0  1.03334  0  0  0.081024  0.131895  0  1.035142  0
H  H9  1  0.65949960  0.01135215  0.61182939  1  0  0.118578  0  0.965464  0  0  0.133386  0  1.034468  0  0  0.13548  0  1.033395  0  0  0.081035  0.131907  0  1.0352  0
H  H10  1  0.19990491  0.05618918  0.28696107  1  0  0.141267  0  0.96089  0  0  0.162092  0  1.021208  0  0  0.164639  0  1.020001  0  0  0.094303  0.160243  0  1.02208  0
H  H11  1  0.80009764  0.94380860  0.71304080  1  0  0.141253  0  0.96088  0  0  0.162121  0  1.021156  0  0  0.164669  0  1.019948  0  0  0.094318  0.160273  0  1.022026  0
H  H12  1  0.11743076  0.33124076  0.30923678  1  0  0.116034  0  0.961777  0  0  0.13407  0  1.032597  0  0  0.135977  0  1.031498  0  0  0.084899  0.132659  0  1.033425  0
H  H13  1  0.88256493  0.66875700  0.69076368  1  0  0.116028  0  0.961778  0  0  0.134065  0  1.032594  0  0  0.135972  0  1.031496  0  0  0.084894  0.132654  0  1.033422  0
H  H14  1  0.89232515  0.36718275  0.26656825  1  0  0.132818  0  0.972378  0  0  0.147604  0  1.044829  0  0  0.149768  0  1.044291  0  0  0.088179  0.145989  0  1.045293  0
H  H15  1  0.10767223  0.63281619  0.73343310  1  0  0.132803  0  0.972411  0  0  0.147572  0  1.044878  0  0  0.149735  0  1.044341  0  0  0.088165  0.14596  0  1.045331  0
H  H16  1  0.02578085  0.44951021  0.38253719  1  0  0.119791  0  0.940776  0  0  0.13923  0  1.000088  0  0  0.141346  0  0.998824  0  0  0.086326  0.137767  0  1.000925  0
H  H17  1  0.97421788  0.55048872  0.61746360  1  0  0.119805  0  0.940801  0  0  0.139238  0  1.000113  0  0  0.141354  0  0.998849  0  0  0.086325  0.137771  0  1.000955  0
H  H18  1  0.31968570  0.72916371  0.01103537  1  0  0.333696  0  0.91252  0  0  0.313855  0  0.982222  0  0  0.321484  0  0.975525  0  0  0.294944  0.308412  0  0.987014  0
H  H19  1  0.68031520  0.27083291  0.98896701  1  0  0.333682  0  0.912482  0  0  0.313829  0  0.982231  0  0  0.321459  0  0.975532  0  0  0.294955  0.308387  0  0.987029  0
H  H20  1  0.21413247  0.53388360  0.00778077  1  0  0.341395  0  0.917903  0  0  0.319977  0  0.986571  0  0  0.327502  0  0.980846  0  0  0.294126  0.314646  0  0.990642  0
H  H21  1  0.78586734  0.46611418  0.99222082  1  0  0.341365  0  0.917942  0  0  0.319934  0  0.986618  0  0  0.327469  0  0.980883  0  0  0.294133  0.314604  0  0.990693  0
C  C22  1  0.20964750  0.66461442  0.12736579  1  0  0.655083  0  3.789538  0  0  0.603265  0  4.058887  0  0  0.631465  0  4.067543  0  0  0.343795  0.584336  0  4.052421  0
C  C23  1  0.79035368  0.33538336  0.87263594  1  0  0.654976  0  3.7897  0  0  0.603193  0  4.059  0  0  0.63139  0  4.067658  0  0  0.343748  0.584266  0  4.052535  0
C  C24  1  0.11738076  0.55943776  0.26227427  1  0  0.397075  0  3.732293  0  0  0.394741  0  3.982739  0  0  0.411749  0  3.999007  0  0  0.130925  0.383508  0  3.97139  0
C  C25  1  0.88262011  0.44055885  0.73772671  1  0  0.39703  0  3.732285  0  0  0.394649  0  3.982812  0  0  0.411653  0  3.99908  0  0  0.130868  0.383441  0  3.97143  0
C  C26  1  0.17223148  0.70644523  0.31036061  1  0  -0.324583  0  3.661761  0  0  -0.349486  0  3.911529  0  0  -0.367716  0  3.934559  0  0  -0.1139  -0.337767  0  3.896228  0
C  C27  1  0.82777135  0.29355370  0.68964059  1  0  -0.324574  0  3.661818  0  0  -0.349465  0  3.911602  0  0  -0.367695  0  3.934634  0  0  -0.113905  -0.337761  0  3.896302  0
C  C28  1  0.24694205  0.83207472  0.26218850  1  0  0.405975  0  3.7162  0  0  0.403307  0  3.962407  0  0  0.420798  0  3.979154  0  0  0.135176  0.391744  0  3.95065  0
C  C29  1  0.75306215  0.16792422  0.73781285  1  0  0.405951  0  3.716151  0  0  0.403276  0  3.962382  0  0  0.420767  0  3.979129  0  0  0.135194  0.391714  0  3.950629  0
C  C30  1  0.31126446  0.99192627  0.30968824  1  0  -0.410315  0  3.701093  0  0  -0.489292  0  3.931229  0  0  -0.494499  0  3.936418  0  0  -0.254021  -0.485378  0  3.927429  0
C  C31  1  0.68873699  0.00807266  0.69031212  1  0  -0.4103  0  3.701167  0  0  -0.48934  0  3.931313  0  0  -0.494548  0  3.9365  0  0  -0.254064  -0.485419  0  3.927503  0
C  C32  1  0.03359972  0.42008588  0.30849436  1  0  -0.406397  0  3.724504  0  0  -0.488976  0  3.964327  0  0  -0.493704  0  3.970156  0  0  -0.253598  -0.485413  0  3.960082  0
C  C33  1  0.96639766  0.57991306  0.69150700  1  0  -0.406378  0  3.724552  0  0  -0.488905  0  3.964362  0  0  -0.493635  0  3.970195  0  0  -0.25355  -0.485347  0  3.960114  0
C  C34  1  0.80894194  0.04128796  0.17636007  1  0  0.645769  0  3.965925  0  0  0.593853  0  4.256903  0  0  0.628033  0  4.251682  0  0  0.189767  0.570562  0  4.259441  0
C  C35  1  0.19105702  0.95871211  0.82363794  1  0  0.645727  0  3.966108  0  0  0.593875  0  4.256967  0  0  0.628058  0  4.251745  0  0  0.189752  0.570578  0  4.259515  0
C  C36  1  0.74978157  0.89399581  0.22561265  1  0  -0.076739  0  3.691986  0  0  -0.075059  0  3.942203  0  0  -0.076549  0  3.95754  0  0  -0.011907  -0.074454  0  3.932338  0
C  C37  1  0.25021530  0.10600659  0.77438659  1  0  -0.076666  0  3.692013  0  0  -0.074985  0  3.942212  0  0  -0.076475  0  3.95755  0  0  -0.011882  -0.074376  0  3.932352  0
C  C38  1  0.74865226  0.89976390  0.32377163  1  0  0.06615  0  3.765177  0  0  0.062945  0  4.038904  0  0  0.065399  0  4.058635  0  0  0.007376  0.061049  0  4.025935  0
C  C39  1  0.25134485  0.10023965  0.67622554  1  0  0.065998  0  3.765404  0  0  0.062828  0  4.039095  0  0  0.065281  0  4.058829  0  0  0.007326  0.06093  0  4.026136  0
C  C40  1  0.69081998  0.76340895  0.36874673  1  0  0.022686  0  3.811663  0  0  0.019542  0  4.091235  0  0  0.022059  0  4.111031  0  0  -0.003099  0.017683  0  4.078053  0
C  C41  1  0.30917548  0.23659344  0.63125095  1  0  0.022755  0  3.811792  0  0  0.019575  0  4.09137  0  0  0.022092  0  4.111168  0  0  -0.003079  0.01771  0  4.078196  0
C  C42  1  0.63546039  0.61952739  0.31490059  1  0  0.026577  0  3.79615  0  0  0.022996  0  4.075651  0  0  0.024558  0  4.096672  0  0  -0.0032  0.021736  0  4.061623  0
C  C43  1  0.36453510  0.38047501  0.68509851  1  0  0.026544  0  3.796183  0  0  0.022991  0  4.07566  0  0  0.024552  0  4.096679  0  0  -0.003176  0.021734  0  4.061634  0
C  C44  1  0.63967149  0.61359298  0.21652888  1  0  0.064781  0  3.771042  0  0  0.058528  0  4.049949  0  0  0.062048  0  4.069309  0  0  0.005984  0.055999  0  4.037064  0
C  C45  1  0.36032916  0.38640826  0.78347003  1  0  0.064783  0  3.771187  0  0  0.058546  0  4.050095  0  0  0.062068  0  4.069456  0  0  0.005994  0.056014  0  4.037213  0
C  C46  1  0.69795099  0.74992255  0.17236419  1  0  -0.087882  0  3.694048  0  0  -0.08834  0  3.948302  0  0  -0.090992  0  3.963955  0  0  -0.015278  -0.086805  0  3.93804  0
C  C47  1  0.30204996  0.25007985  0.82763476  1  0  -0.087824  0  3.694053  0  0  -0.088337  0  3.94835  0  0  -0.090993  0  3.964007  0  0  -0.01527  -0.086802  0  3.938094  0
C  C48  1  0.70967641  0.74913555  0.06764155  1  0  0.668931  0  3.911774  0  0  0.612947  0  4.203773  0  0  0.647672  0  4.197378  0  0  0.207875  0.589231  0  4.207291  0
C  C49  1  0.29032501  0.25086337  0.93235740  1  0  0.668923  0  3.911741  0  0  0.612975  0  4.203705  0  0  0.647702  0  4.19731  0  0  0.207884  0.589253  0  4.207234  0
N  N50  1  0.26081888  0.81151490  0.16994957  1  0  -0.502982  0  3.178124  0  0  -0.415592  0  3.45382  0  0  -0.44577  0  3.466193  0  0  -0.35327  -0.395296  0  3.445025  0
N  N51  1  0.73918092  0.18848287  0.83005131  1  0  -0.502939  0  3.177968  0  0  -0.415549  0  3.453658  0  0  -0.445725  0  3.466028  0  0  -0.353276  -0.395256  0  3.444867  0
N  N52  1  0.22791446  0.64484733  0.03565753  1  0  -0.714998  0  3.135178  0  0  -0.670523  0  3.387475  0  0  -0.693442  0  3.38026  0  0  -0.584332  -0.654603  0  3.392138  0
N  N53  1  0.77208673  0.35515045  0.96434419  1  0  -0.714893  0  3.135224  0  0  -0.670454  0  3.387585  0  0  -0.69338  0  3.380342  0  0  -0.584316  -0.654531  0  3.392252  0
N  N54  1  0.14034846  0.53814075  0.17164693  1  0  -0.50893  0  3.125399  0  0  -0.43193  0  3.402848  0  0  -0.459607  0  3.412315  0  0  -0.346758  -0.413487  0  3.396202  0
N  N55  1  0.85965135  0.46185703  0.82835466  1  0  -0.508849  0  3.12532  0  0  -0.431841  0  3.402772  0  0  -0.459516  0  3.412248  0  0  -0.346713  -0.413404  0  3.396113  0
Cl  Cl56  1  0.81996514  0.07571558  0.39052352  1  0  -0.054276  0  1.422674  0  0  -0.036505  0  1.660773  0  0  -0.039207  0  1.655597  0  0  0.020046  -0.034559  0  1.664518  0
Cl  Cl57  1  0.18003581  0.92428682  0.60947543  1  0  -0.054266  0  1.422699  0  0  -0.036511  0  1.660795  0  0  -0.039214  0  1.655619  0  0  0.02003  -0.034565  0  1.664543  0
Cl  Cl58  1  0.68579033  0.77215802  0.48848207  1  0  -0.055005  0  1.522763  0  0  -0.038503  0  1.777837  0  0  -0.041249  0  1.771962  0  0  0.018592  -0.036511  0  1.781984  0
Cl  Cl59  1  0.31420299  0.22784669  0.51151543  1  0  -0.055006  0  1.522772  0  0  -0.038497  0  1.777854  0  0  -0.041243  0  1.771979  0  0  0.018595  -0.036501  0  1.782004  0
Cl  Cl60  1  0.56430255  0.45310983  0.36954901  1  0  -0.055  0  1.473721  0  0  -0.040231  0  1.718628  0  0  -0.042592  0  1.713588  0  0  0.01261  -0.038574  0  1.722255  0
Cl  Cl61  1  0.43569461  0.54689374  0.63045027  1  0  -0.055004  0  1.473682  0  0  -0.040246  0  1.718582  0  0  -0.042606  0  1.713542  0  0  0.012593  -0.038593  0  1.722209  0
Cl  Cl62  1  0.56814513  0.43820083  0.15073125  1  0  -0.004408  0  1.543254  0  0  0.011915  0  1.827682  0  0  0.011383  0  1.818335  0  0  0.050082  0.01213  0  1.834426  0
Cl  Cl63  1  0.43185690  0.56180041  0.84926850  1  0  -0.004414  0  1.543246  0  0  0.011902  0  1.827683  0  0  0.011367  0  1.818333  0  0  0.050071  0.012118  0  1.834421  0
O  O64  1  0.69689378  0.12992750  0.15704901  1  0  -0.634111  0  2.037094  0  0  -0.578583  0  2.30046  0  0  -0.606572  0  2.289377  0  0  -0.326603  -0.558476  0  2.30724  0
O  O65  1  0.30310512  0.87007255  0.84294689  1  0  -0.634075  0  2.037074  0  0  -0.578599  0  2.300459  0  0  -0.606567  0  2.289323  0  0  -0.326584  -0.55849  0  2.307239  0
O  O66  1  0.97313674  0.06067578  0.15902927  1  0  -0.633147  0  2.096675  0  0  -0.558133  0  2.376328  0  0  -0.590241  0  2.363653  0  0  -0.327894  -0.535404  0  2.384171  0
O  O67  1  0.02686392  0.93932547  0.84097034  1  0  -0.633164  0  2.096719  0  0  -0.558181  0  2.376356  0  0  -0.590291  0  2.363678  0  0  -0.327926  -0.535451  0  2.384199  0
O  O68  1  0.60545887  0.82710602  0.01585181  1  0  -0.642566  0  2.181401  0  0  -0.555971  0  2.460826  0  0  -0.587683  0  2.446965  0  0  -0.325822  -0.533618  0  2.469716  0
O  O69  1  0.39454055  0.17289057  0.98414621  1  0  -0.642552  0  2.181279  0  0  -0.555955  0  2.460679  0  0  -0.587665  0  2.446817  0  0  -0.325855  -0.533603  0  2.469578  0
O  O70  1  0.82165564  0.67683505  0.04162904  1  0  -0.611443  0  2.120606  0  0  -0.539319  0  2.380818  0  0  -0.569125  0  2.371725  0  0  -0.308024  -0.51836  0  2.386345  0
O  O71  1  0.17834748  0.32316504  0.95837151  1  0  -0.611452  0  2.120688  0  0  -0.539345  0  2.380894  0  0  -0.569151  0  2.371798  0  0  -0.308003  -0.51838  0  2.38642  0
