# generated using pymatgen
data_CdH28C28(S2N5)2
_symmetry_space_group_name_H-M   'P 1'
_cell_length_a   11.00323212
_cell_length_b   12.75098959
_cell_length_c   13.75734772
_cell_angle_alpha   69.44743406
_cell_angle_beta   66.44832146
_cell_angle_gamma   64.44750528
_symmetry_Int_Tables_number   1
_chemical_formula_structural   CdH28C28(S2N5)2
_chemical_formula_sum   'Cd2 H56 C56 S8 N20'
_cell_volume   1558.62045286
_cell_formula_units_Z   2
loop_
 _symmetry_equiv_pos_site_id
 _symmetry_equiv_pos_as_xyz
  1  'x, y, z'
loop_
 _atom_site_type_symbol
 _atom_site_label
 _atom_site_symmetry_multiplicity
 _atom_site_fract_x
 _atom_site_fract_y
 _atom_site_fract_z
 _atom_site_occupancy
 _atom_site_hle17_bader_spin_density
 _atom_site_hle17_ddec_charge
 _atom_site_hle17_ddec_spin_density
 _atom_site_hle17_ddec_sum_bond_order
 _atom_site_hle17_magmom
 _atom_site_hse06_10hf_bader_spin_density
 _atom_site_hse06_10hf_ddec_charge
 _atom_site_hse06_10hf_ddec_spin_density
 _atom_site_hse06_10hf_ddec_sum_bond_order
 _atom_site_hse06_10hf_magmom
 _atom_site_hse06_bader_spin_density
 _atom_site_hse06_ddec_charge
 _atom_site_hse06_ddec_spin_density
 _atom_site_hse06_ddec_sum_bond_order
 _atom_site_hse06_magmom
 _atom_site_pbe_bader_spin_density
 _atom_site_pbe_cm5_charge
 _atom_site_pbe_ddec_charge
 _atom_site_pbe_ddec_spin_density
 _atom_site_pbe_ddec_sum_bond_order
 _atom_site_pbe_magmom
Cd  Cd0  1  0.73640819  0.74999431  0.24986410  1  0  0.987835  0  1.933074  0  0  0.782975  0  2.397118  0  0  0.83046  0  2.360107  0  0  0.798781  0.749958  0  2.421554  0
Cd  Cd1  1  0.26359061  0.25000807  0.75013455  1  0  0.987871  0  1.93309  0  0  0.783032  0  2.397133  0  0  0.830515  0  2.360122  0  0  0.798798  0.750016  0  2.421569  0
H  H2  1  0.81625837  0.69110103  0.01859864  1  0  0.077234  0  0.972778  0  0  0.07958  0  1.050385  0  0  0.081825  0  1.049154  0  0  0.104598  0.077834  0  1.0515  0
H  H3  1  0.52658260  0.80888698  0.48127825  1  0  0.077307  0  0.972726  0  0  0.079678  0  1.050143  0  0  0.08182  0  1.048993  0  0  0.105091  0.078088  0  1.050982  0
H  H4  1  0.18374002  0.30890044  0.98140195  1  0  0.07726  0  0.97272  0  0  0.079603  0  1.05033  0  0  0.081848  0  1.049098  0  0  0.104601  0.077854  0  1.051453  0
H  H5  1  0.47341997  0.19111094  0.51872326  1  0  0.077273  0  0.972774  0  0  0.079649  0  1.050181  0  0  0.081788  0  1.049033  0  0  0.105087  0.078061  0  1.05102  0
H  H6  1  0.43467454  0.88860320  0.20294901  1  0  0.084641  0  0.937415  0  0  0.092668  0  1.001838  0  0  0.095007  0  1.000151  0  0  0.111523  0.090942  0  1.003124  0
H  H7  1  0.52640179  0.61147418  0.29698067  1  0  0.083741  0  0.938936  0  0  0.092465  0  1.002656  0  0  0.094684  0  1.001165  0  0  0.111968  0.090858  0  1.003736  0
H  H8  1  0.56532466  0.11139650  0.79704984  1  0  0.084631  0  0.937395  0  0  0.09264  0  1.001829  0  0  0.094978  0  1.000143  0  0  0.111522  0.090912  0  1.003119  0
H  H9  1  0.47359758  0.38852639  0.70302146  1  0  0.083749  0  0.938934  0  0  0.092475  0  1.002668  0  0  0.094692  0  1.001173  0  0  0.111987  0.090866  0  1.003748  0
H  H10  1  0.45576929  0.84561977  0.89842096  1  0  0.101525  0  0.951562  0  0  0.111513  0  1.01505  0  0  0.113647  0  1.013992  0  0  0.106464  0.110031  0  1.01561  0
H  H11  1  0.20023436  0.65466571  0.60151060  1  0  0.101007  0  0.952265  0  0  0.111063  0  1.015818  0  0  0.113209  0  1.014762  0  0  0.105642  0.109532  0  1.016485  0
H  H12  1  0.54423199  0.15437994  0.10157780  1  0  0.101546  0  0.951538  0  0  0.111527  0  1.015039  0  0  0.113663  0  1.013978  0  0  0.106469  0.110045  0  1.0156  0
H  H13  1  0.79976470  0.34533576  0.39849031  1  0  0.101047  0  0.952233  0  0  0.11107  0  1.015833  0  0  0.113216  0  1.014778  0  0  0.105664  0.109539  0  1.016494  0
H  H14  1  0.31388088  0.92649326  0.06890664  1  0  0.100799  0  0.966549  0  0  0.111228  0  1.026845  0  0  0.114248  0  1.026117  0  0  0.100659  0.109012  0  1.027596  0
H  H15  1  0.30948687  0.57368828  0.43108202  1  0  0.101511  0  0.964295  0  0  0.111792  0  1.024914  0  0  0.114847  0  1.024109  0  0  0.101022  0.109621  0  1.025636  0
H  H16  1  0.68612076  0.07350734  0.93109122  1  0  0.100787  0  0.966486  0  0  0.111226  0  1.026775  0  0  0.114246  0  1.026047  0  0  0.100667  0.10901  0  1.027527  0
H  H17  1  0.69051286  0.42631319  0.56891921  1  0  0.101501  0  0.964296  0  0  0.11177  0  1.024923  0  0  0.114824  0  1.024121  0  0  0.101015  0.109599  0  1.025644  0
H  H18  1  0.71889214  0.52379098  0.96616720  1  0  0.270448  0  0.92534  0  0  0.254329  0  0.994591  0  0  0.260873  0  0.990607  0  0  0.299763  0.249612  0  0.997719  0
H  H19  1  0.20900953  0.97629081  0.53378659  1  0  0.269384  0  0.927217  0  0  0.253006  0  0.996617  0  0  0.259583  0  0.992634  0  0  0.299059  0.248305  0  0.999687  0
H  H20  1  0.28111054  0.47620873  0.03383115  1  0  0.270381  0  0.925377  0  0  0.254221  0  0.994664  0  0  0.260771  0  0.990677  0  0  0.299729  0.249513  0  0.99778  0
H  H21  1  0.79099062  0.02370978  0.46621377  1  0  0.269399  0  0.927217  0  0  0.253019  0  0.996613  0  0  0.259596  0  0.992631  0  0  0.299055  0.248316  0  0.999681  0
H  H22  1  0.73694058  0.17397794  0.12558707  1  0  0.105007  0  0.930843  0  0  0.118278  0  0.988304  0  0  0.120794  0  0.986822  0  0  0.108761  0.116442  0  0.989316  0
H  H23  1  0.03636153  0.32610633  0.37454909  1  0  0.103825  0  0.934106  0  0  0.11773  0  0.990843  0  0  0.120155  0  0.989481  0  0  0.108211  0.115985  0  0.991746  0
H  H24  1  0.26305952  0.82602443  0.87441326  1  0  0.104995  0  0.930839  0  0  0.118284  0  0.988273  0  0  0.120797  0  0.986799  0  0  0.108767  0.116461  0  0.98927  0
H  H25  1  0.96363446  0.67389426  0.62545145  1  0  0.103808  0  0.934104  0  0  0.117704  0  0.990865  0  0  0.120129  0  0.989502  0  0  0.108199  0.115951  0  0.991781  0
H  H26  1  0.64256050  0.73071250  0.73185741  1  0  0.265003  0  0.967487  0  0  0.242663  0  1.046205  0  0  0.249791  0  1.041833  0  0  0.276794  0.237781  0  1.049051  0
H  H27  1  0.10589298  0.76913783  0.76801570  1  0  0.262116  0  0.969215  0  0  0.239914  0  1.04793  0  0  0.247046  0  1.043605  0  0  0.275506  0.234912  0  1.051  0
H  H28  1  0.35743887  0.26928986  0.26814365  1  0  0.264965  0  0.967466  0  0  0.242624  0  1.046211  0  0  0.249751  0  1.041843  0  0  0.27676  0.237733  0  1.049059  0
H  H29  1  0.89410788  0.23086097  0.23198500  1  0  0.262116  0  0.969205  0  0  0.239929  0  1.047906  0  0  0.247063  0  1.043579  0  0  0.275496  0.234926  0  1.050973  0
H  H30  1  0.93025827  0.37118695  0.81909959  1  0  0.084674  0  0.941088  0  0  0.090487  0  1.010542  0  0  0.093109  0  1.008366  0  0  0.111927  0.088619  0  1.012041  0
H  H31  1  0.12052033  0.12897154  0.68107079  1  0  0.085451  0  0.942634  0  0  0.091226  0  1.011829  0  0  0.093935  0  1.009567  0  0  0.113071  0.089175  0  1.013574  0
H  H32  1  0.06974336  0.62881008  0.18090041  1  0  0.084646  0  0.941137  0  0  0.090468  0  1.010582  0  0  0.09309  0  1.008405  0  0  0.111935  0.0886  0  1.012082  0
H  H33  1  0.87948099  0.87102638  0.31892799  1  0  0.085463  0  0.942624  0  0  0.091221  0  1.011843  0  0  0.093934  0  1.009577  0  0  0.113069  0.089171  0  1.013587  0
H  H34  1  0.77895708  0.78160798  0.78202967  1  0  0.080695  0  0.95427  0  0  0.092928  0  1.027497  0  0  0.093749  0  1.027124  0  0  0.101259  0.091913  0  1.028581  0
H  H35  1  0.34333421  0.71858132  0.71781182  1  0  0.081889  0  0.953962  0  0  0.094401  0  1.026994  0  0  0.095163  0  1.02665  0  0  0.101217  0.093439  0  1.027929  0
H  H36  1  0.22104519  0.21839261  0.21796955  1  0  0.080708  0  0.954198  0  0  0.092933  0  1.027419  0  0  0.093754  0  1.027046  0  0  0.101248  0.091916  0  1.028505  0
H  H37  1  0.65666552  0.28141837  0.28219048  1  0  0.081895  0  0.953992  0  0  0.094434  0  1.027006  0  0  0.095175  0  1.026687  0  0  0.101233  0.093473  0  1.027939  0
H  H38  1  0.83573121  0.63800351  0.86216875  1  0  0.073648  0  0.936475  0  0  0.086617  0  1.005557  0  0  0.086994  0  1.005498  0  0  0.105333  0.086008  0  1.006185  0
H  H39  1  0.33625082  0.86232055  0.63773355  1  0  0.074496  0  0.936819  0  0  0.087608  0  1.005827  0  0  0.087953  0  1.00575  0  0  0.105978  0.086992  0  1.006479  0
H  H40  1  0.16427038  0.36199530  0.13783123  1  0  0.07364  0  0.936524  0  0  0.086578  0  1.005618  0  0  0.086952  0  1.005556  0  0  0.105323  0.085968  0  1.006247  0
H  H41  1  0.66375067  0.13768004  0.36226744  1  0  0.074485  0  0.936846  0  0  0.087591  0  1.005875  0  0  0.087937  0  1.005794  0  0  0.105978  0.086978  0  1.006524  0
H  H42  1  0.62255191  0.36617411  0.92203546  1  0  0.080325  0  0.967198  0  0  0.093288  0  1.036416  0  0  0.094404  0  1.036232  0  0  0.100859  0.092386  0  1.036621  0
H  H43  1  0.91091325  0.13369777  0.57817150  1  0  0.078996  0  0.967681  0  0  0.091431  0  1.037389  0  0  0.09262  0  1.037196  0  0  0.098927  0.09051  0  1.037556  0
H  H44  1  0.37744974  0.63382649  0.07796240  1  0  0.080309  0  0.967156  0  0  0.093266  0  1.036402  0  0  0.094384  0  1.036211  0  0  0.10086  0.092366  0  1.036609  0
H  H45  1  0.08908600  0.86630015  0.42182738  1  0  0.079047  0  0.967612  0  0  0.091439  0  1.037357  0  0  0.09263  0  1.037162  0  0  0.098931  0.090518  0  1.037526  0
H  H46  1  0.60260954  0.37573214  0.05468372  1  0  0.069861  0  0.967769  0  0  0.080946  0  1.042181  0  0  0.081437  0  1.041923  0  0  0.096379  0.080349  0  1.042768  0
H  H47  1  0.03296223  0.12425710  0.44540031  1  0  0.070147  0  0.968101  0  0  0.080992  0  1.042332  0  0  0.08154  0  1.042093  0  0  0.096205  0.080377  0  1.04288  0
H  H48  1  0.39739107  0.62426935  0.94531365  1  0  0.069832  0  0.967668  0  0  0.080906  0  1.04212  0  0  0.081396  0  1.041856  0  0  0.096379  0.080309  0  1.042711  0
H  H49  1  0.96703728  0.87573992  0.55460083  1  0  0.070109  0  0.968127  0  0  0.080967  0  1.042329  0  0  0.081514  0  1.042089  0  0  0.096186  0.080353  0  1.042876  0
H  H50  1  0.97900322  0.02684279  0.12510355  1  0  0.104638  0  0.952286  0  0  0.114887  0  1.009873  0  0  0.117643  0  1.009545  0  0  0.102639  0.112993  0  1.010114  0
H  H51  1  0.13079684  0.47329302  0.37495586  1  0  0.104399  0  0.953138  0  0  0.114491  0  1.01087  0  0  0.117326  0  1.010413  0  0  0.102853  0.112528  0  1.0112  0
H  H52  1  0.02099583  0.97315868  0.87489736  1  0  0.104631  0  0.952248  0  0  0.114883  0  1.009843  0  0  0.11764  0  1.009514  0  0  0.10264  0.112989  0  1.010085  0
H  H53  1  0.86919962  0.52670847  0.62504169  1  0  0.104424  0  0.953166  0  0  0.114527  0  1.01088  0  0  0.117363  0  1.010421  0  0  0.102875  0.112562  0  1.011214  0
H  H54  1  0.18484106  0.05961215  0.96665594  1  0  0.074613  0  0.94828  0  0  0.081977  0  1.017534  0  0  0.084501  0  1.015145  0  0  0.111205  0.080298  0  1.018979  0
H  H55  1  0.21117654  0.44049679  0.53339788  1  0  0.07548  0  0.948603  0  0  0.083109  0  1.017282  0  0  0.085649  0  1.014857  0  0  0.112602  0.081309  0  1.018975  0
H  H56  1  0.81515805  0.94038755  0.03334500  1  0  0.074628  0  0.948253  0  0  0.081978  0  1.017519  0  0  0.084503  0  1.015128  0  0  0.111202  0.080302  0  1.018963  0
H  H57  1  0.78882059  0.55950292  0.46660107  1  0  0.075557  0  0.948615  0  0  0.083178  0  1.017272  0  0  0.085717  0  1.014846  0  0  0.112616  0.08137  0  1.018982  0
C  C58  1  0.70512823  0.74357016  0.02630499  1  0  0.071319  0  3.694773  0  0  0.033862  0  3.94573  0  0  0.040133  0  3.964142  0  0  0.042739  0.029754  0  3.933538  0
C  C59  1  0.47546682  0.75653695  0.47358169  1  0  0.07262  0  3.697143  0  0  0.035484  0  3.94804  0  0  0.041832  0  3.966512  0  0  0.042193  0.03143  0  3.935491  0
C  C60  1  0.29487159  0.25642954  0.97369522  1  0  0.071259  0  3.694685  0  0  0.033805  0  3.945663  0  0  0.040072  0  3.964081  0  0  0.042709  0.029695  0  3.933468  0
C  C61  1  0.52453539  0.24346186  0.52641965  1  0  0.072613  0  3.697163  0  0  0.035487  0  3.948039  0  0  0.041833  0  3.966522  0  0  0.042163  0.031431  0  3.935494  0
C  C62  1  0.64742409  0.76098893  0.94569319  1  0  0.026733  0  3.706919  0  0  0.052758  0  3.94289  0  0  0.047736  0  3.966853  0  0  -0.005818  0.055893  0  3.926894  0
C  C63  1  0.35457035  0.73922912  0.55418291  1  0  0.02583  0  3.709184  0  0  0.051879  0  3.945727  0  0  0.046847  0  3.969606  0  0  -0.007287  0.05497  0  3.929686  0
C  C64  1  0.35257573  0.23901076  0.05430702  1  0  0.026728  0  3.706899  0  0  0.052755  0  3.942851  0  0  0.047731  0  3.966815  0  0  -0.005823  0.05589  0  3.926852  0
C  C65  1  0.64543077  0.26077057  0.44581898  1  0  0.025822  0  3.709176  0  0  0.051884  0  3.945699  0  0  0.046846  0  3.969586  0  0  -0.007272  0.054975  0  3.929655  0
C  C66  1  0.49223034  0.85344467  0.12925390  1  0  0.119353  0  3.714535  0  0  0.086571  0  3.966638  0  0  0.093352  0  3.985372  0  0  0.042581  0.082272  0  3.953852  0
C  C67  1  0.47518022  0.64666231  0.37067091  1  0  0.125269  0  3.714806  0  0  0.09213  0  3.966539  0  0  0.098956  0  3.985333  0  0  0.047499  0.087854  0  3.953516  0
C  C68  1  0.50777052  0.14655414  0.87074680  1  0  0.119347  0  3.714461  0  0  0.086588  0  3.966572  0  0  0.093369  0  3.985305  0  0  0.042557  0.082288  0  3.953786  0
C  C69  1  0.52481919  0.35333828  0.62933018  1  0  0.125254  0  3.714777  0  0  0.092107  0  3.966521  0  0  0.098938  0  3.985307  0  0  0.047483  0.08783  0  3.9535  0
C  C70  1  0.50445283  0.82841462  0.96019875  1  0  -0.044034  0  3.674382  0  0  -0.069816  0  3.91789  0  0  -0.067409  0  3.937679  0  0  -0.067547  -0.071051  0  3.904251  0
C  C71  1  0.29345896  0.67181789  0.53970299  1  0  -0.042291  0  3.675262  0  0  -0.068157  0  3.918627  0  0  -0.065787  0  3.938481  0  0  -0.066322  -0.069372  0  3.90503  0
C  C72  1  0.49554809  0.17158597  0.03979984  1  0  -0.044061  0  3.674357  0  0  -0.069839  0  3.917862  0  0  -0.06744  0  3.937671  0  0  -0.067569  -0.071072  0  3.904219  0
C  C73  1  0.70654217  0.32818180  0.46029891  1  0  -0.042318  0  3.675232  0  0  -0.068176  0  3.918622  0  0  -0.065803  0  3.938468  0  0  -0.06633  -0.069391  0  3.905027  0
C  C74  1  0.86037399  0.49011268  0.18537707  1  0  0.286809  0  4.056662  0  0  0.270271  0  4.360252  0  0  0.293026  0  4.372633  0  0  0.128769  0.254831  0  4.351513  0
C  C75  1  0.53597715  0.00981871  0.31459455  1  0  0.286127  0  4.056388  0  0  0.26956  0  4.360065  0  0  0.292321  0  4.372447  0  0  0.129501  0.254118  0  4.351381  0
C  C76  1  0.13962735  0.50989945  0.81462809  1  0  0.286541  0  4.056498  0  0  0.269994  0  4.360123  0  0  0.292755  0  4.372514  0  0  0.128618  0.254551  0  4.351372  0
C  C77  1  0.46401265  0.99018809  0.68540947  1  0  0.286189  0  4.056564  0  0  0.269628  0  4.360219  0  0  0.292391  0  4.372597  0  0  0.129599  0.254186  0  4.351539  0
C  C78  1  0.42575683  0.87440256  0.05349617  1  0  -0.111394  0  3.740784  0  0  -0.119708  0  3.986348  0  0  -0.126661  0  4.008154  0  0  -0.082265  -0.115323  0  3.971834  0
C  C79  1  0.35396415  0.62574072  0.44646312  1  0  -0.115351  0  3.741226  0  0  -0.123738  0  3.98753  0  0  -0.130683  0  4.009309  0  0  -0.08474  -0.119345  0  3.972883  0
C  C80  1  0.57424507  0.12559714  0.94650395  1  0  -0.111361  0  3.740652  0  0  -0.119685  0  3.986225  0  0  -0.12664  0  4.008033  0  0  -0.082247  -0.115297  0  3.97171  0
C  C81  1  0.64603522  0.37425986  0.55353901  1  0  -0.115397  0  3.741259  0  0  -0.123762  0  3.987548  0  0  -0.130706  0  4.009327  0  0  -0.084781  -0.119367  0  3.972897  0
C  C82  1  0.82876543  0.18516621  0.05758908  1  0  -0.057322  0  3.680581  0  0  -0.083421  0  3.925581  0  0  -0.081231  0  3.943414  0  0  -0.070277  -0.084715  0  3.913507  0
C  C83  1  0.07144185  0.31491527  0.44252227  1  0  -0.058295  0  3.682833  0  0  -0.085355  0  3.927956  0  0  -0.08313  0  3.945824  0  0  -0.070401  -0.086553  0  3.915783  0
C  C84  1  0.17123372  0.81483349  0.94241082  1  0  -0.057326  0  3.680561  0  0  -0.083423  0  3.925552  0  0  -0.081231  0  3.943379  0  0  -0.070271  -0.084728  0  3.913478  0
C  C85  1  0.92855206  0.68508532  0.55747837  1  0  -0.058208  0  3.682876  0  0  -0.085281  0  3.928001  0  0  -0.083054  0  3.945865  0  0  -0.070338  -0.086475  0  3.915832  0
C  C86  1  0.64861856  0.56934953  0.83341608  1  0  0.44069  0  3.875004  0  0  0.394608  0  4.174854  0  0  0.422512  0  4.180063  0  0  0.23055  0.375763  0  4.170494  0
C  C87  1  0.05182789  0.93052178  0.66656831  1  0  0.439433  0  3.874634  0  0  0.393519  0  4.174471  0  0  0.421502  0  4.179719  0  0  0.229965  0.374584  0  4.170034  0
C  C88  1  0.35138235  0.43065107  0.16658251  1  0  0.440693  0  3.874952  0  0  0.394602  0  4.174793  0  0  0.422512  0  4.18001  0  0  0.230567  0.37575  0  4.170435  0
C  C89  1  0.94817333  0.06947614  0.33343256  1  0  0.439474  0  3.874756  0  0  0.393587  0  4.174552  0  0  0.421572  0  4.179801  0  0  0.230004  0.37465  0  4.170111  0
C  C90  1  0.93484028  0.29458684  0.88733335  1  0  0.079491  0  3.679387  0  0  0.040013  0  3.928518  0  0  0.04639  0  3.945496  0  0  0.038932  0.03598  0  3.916827  0
C  C91  1  0.11675704  0.20551862  0.61277688  1  0  0.077846  0  3.683225  0  0  0.037902  0  3.932694  0  0  0.044219  0  3.949604  0  0  0.03851  0.033929  0  3.921243  0
C  C92  1  0.06515954  0.70541286  0.11266686  1  0  0.079531  0  3.679429  0  0  0.040047  0  3.928562  0  0  0.046426  0  3.94554  0  0  0.038941  0.036015  0  3.916869  0
C  C93  1  0.88324536  0.79447842  0.38722135  1  0  0.077817  0  3.683318  0  0  0.037859  0  3.932801  0  0  0.044171  0  3.949709  0  0  0.03849  0.033884  0  3.921347  0
C  C94  1  0.81331074  0.28403654  0.97104953  1  0  0.031911  0  3.725149  0  0  0.06082  0  3.957809  0  0  0.056932  0  3.980661  0  0  -0.005061  0.063227  0  3.942591  0
C  C95  1  0.06836625  0.21603400  0.52904882  1  0  0.033844  0  3.723781  0  0  0.063504  0  3.955179  0  0  0.059755  0  3.977965  0  0  -0.004977  0.065813  0  3.939957  0
C  C96  1  0.18668914  0.71596317  0.02894963  1  0  0.031879  0  3.725119  0  0  0.060788  0  3.957791  0  0  0.056901  0  3.980636  0  0  -0.005054  0.063194  0  3.942581  0
C  C97  1  0.93163259  0.78396481  0.47095093  1  0  0.033814  0  3.723793  0  0  0.063501  0  3.955135  0  0  0.059753  0  3.977922  0  0  -0.004984  0.065814  0  3.939911  0
C  C98  1  0.74102314  0.71131099  0.84510173  1  0  0.000842  0  3.693502  0  0  -0.061438  0  3.938565  0  0  -0.056135  0  3.950243  0  0  -0.057985  -0.064843  0  3.930877  0
C  C99  1  0.29797751  0.78888061  0.65479494  1  0  -0.002255  0  3.6935  0  0  -0.065296  0  3.939569  0  0  -0.059792  0  3.950962  0  0  -0.058948  -0.068702  0  3.931844  0
C  C100  1  0.25897908  0.28868960  0.15489854  1  0  0.000872  0  3.693436  0  0  -0.061369  0  3.938497  0  0  -0.056062  0  3.950172  0  0  -0.057942  -0.064772  0  3.930808  0
C  C101  1  0.70202434  0.21111908  0.34520623  1  0  -0.002246  0  3.693606  0  0  -0.065308  0  3.939692  0  0  -0.05978  0  3.951078  0  0  -0.05898  -0.068718  0  3.931965  0
C  C102  1  0.67202220  0.37899872  0.97067874  1  0  -0.000145  0  3.704552  0  0  -0.065301  0  3.950748  0  0  -0.060455  0  3.961695  0  0  -0.065661  -0.06834  0  3.943455  0
C  C103  1  0.02176355  0.12098469  0.52941303  1  0  0.001478  0  3.704495  0  0  -0.062283  0  3.947542  0  0  -0.057714  0  3.958943  0  0  -0.062459  -0.065183  0  3.940023  0
C  C104  1  0.32797841  0.62100277  0.02931863  1  0  4e-05  0  3.704268  0  0  -0.065141  0  3.95048  0  0  -0.060302  0  3.961453  0  0  -0.065622  -0.068186  0  3.943171  0
C  C105  1  0.97823559  0.87901323  0.47058794  1  0  0.001531  0  3.704408  0  0  -0.062188  0  3.947382  0  0  -0.057615  0  3.958783  0  0  -0.062418  -0.065094  0  3.939874  0
C  C106  1  0.96249752  0.10289604  0.05782586  1  0  -0.109041  0  3.774173  0  0  -0.120699  0  4.028227  0  0  -0.126368  0  4.049622  0  0  -0.085134  -0.117238  0  4.014037  0
C  C107  1  0.12318776  0.39721141  0.44223374  1  0  -0.108135  0  3.772681  0  0  -0.119496  0  4.026809  0  0  -0.125211  0  4.048184  0  0  -0.084524  -0.115974  0  4.012645  0
C  C108  1  0.03750163  0.89710366  0.94217403  1  0  -0.109012  0  3.774082  0  0  -0.120695  0  4.028164  0  0  -0.126363  0  4.049556  0  0  -0.085146  -0.117235  0  4.013981  0
C  C109  1  0.87680869  0.60278830  0.55776488  1  0  -0.108173  0  3.772742  0  0  -0.119566  0  4.02688  0  0  -0.125279  0  4.048253  0  0  -0.084614  -0.116043  0  4.012711  0
C  C110  1  0.07768044  0.12093889  0.97092867  1  0  0.116381  0  3.728383  0  0  0.081234  0  3.987045  0  0  0.087844  0  4.004844  0  0  0.041779  0.077014  0  3.974849  0
C  C111  1  0.16955245  0.37917566  0.52915045  1  0  0.116299  0  3.7269  0  0  0.081033  0  3.986155  0  0  0.087642  0  4.003984  0  0  0.039868  0.0766  0  3.974221  0
C  C112  1  0.92231929  0.87906258  0.02907256  1  0  0.116362  0  3.728299  0  0  0.081235  0  3.986961  0  0  0.087845  0  4.004762  0  0  0.041807  0.077014  0  3.974768  0
C  C113  1  0.83044328  0.62082583  0.47084783  1  0  0.116074  0  3.726973  0  0  0.080844  0  3.98622  0  0  0.087448  0  4.004049  0  0  0.039822  0.076409  0  3.97428  0
S  S114  1  0.87694941  0.41387565  0.10503621  1  0  -0.374741  0  2.106726  0  0  -0.354223  0  2.419678  0  0  -0.36969  0  2.416557  0  0  -0.161247  -0.343364  0  2.422959  0
S  S115  1  0.39590914  0.08598159  0.39489301  1  0  -0.374146  0  2.106825  0  0  -0.353495  0  2.41983  0  0  -0.36895  0  2.416699  0  0  -0.160835  -0.342688  0  2.422892  0
S  S116  1  0.12305999  0.58611961  0.89496104  1  0  -0.374335  0  2.107486  0  0  -0.353817  0  2.420454  0  0  -0.369275  0  2.417341  0  0  -0.161053  -0.342964  0  2.423733  0
S  S117  1  0.60407918  0.91402077  0.60510819  1  0  -0.374316  0  2.106828  0  0  -0.353678  0  2.419822  0  0  -0.369132  0  2.416686  0  0  -0.160965  -0.342871  0  2.422893  0
S  S118  1  0.57805744  0.53462558  0.76462242  1  0  -0.509181  0  1.810453  0  0  -0.501897  0  2.111363  0  0  -0.517742  0  2.105825  0  0  -0.236917  -0.490531  0  2.115242  0
S  S119  1  0.87783402  0.96502224  0.73543156  1  0  -0.509202  0  1.809284  0  0  -0.501878  0  2.10989  0  0  -0.517738  0  2.104323  0  0  -0.237276  -0.490359  0  2.113946  0
S  S120  1  0.42194421  0.46537681  0.23537436  1  0  -0.509204  0  1.810471  0  0  -0.501929  0  2.111403  0  0  -0.517769  0  2.10586  0  0  -0.236947  -0.490571  0  2.115286  0
S  S121  1  0.12216549  0.03497478  0.26456957  1  0  -0.50921  0  1.809336  0  0  -0.501888  0  2.10994  0  0  -0.51775  0  2.10437  0  0  -0.237288  -0.490369  0  2.113996  0
N  N122  1  0.84910591  0.54527266  0.24458967  1  0  -0.578951  0  2.807872  0  0  -0.526031  0  3.08005  0  0  -0.546299  0  3.085188  0  0  -0.412714  -0.511795  0  3.075857  0
N  N123  1  0.63917831  0.95474721  0.25539160  1  0  -0.578983  0  2.80653  0  0  -0.526079  0  3.078669  0  0  -0.546351  0  3.083857  0  0  -0.413211  -0.511818  0  3.074379  0
N  N124  1  0.15090294  0.45471998  0.75539879  1  0  -0.579046  0  2.806996  0  0  -0.526103  0  3.079177  0  0  -0.546383  0  3.084323  0  0  -0.412731  -0.51186  0  3.074975  0
N  N125  1  0.36081285  0.04525159  0.74460988  1  0  -0.578881  0  2.806641  0  0  -0.526005  0  3.078804  0  0  -0.546276  0  3.08399  0  0  -0.413209  -0.511745  0  3.074513  0
N  N126  1  0.62967896  0.78905802  0.11564140  1  0  -0.327266  0  3.285141  0  0  -0.247452  0  3.547701  0  0  -0.267044  0  3.568763  0  0  -0.330574  -0.234251  0  3.533134  0
N  N127  1  0.53471411  0.71101639  0.38427296  1  0  -0.331024  0  3.285686  0  0  -0.25168  0  3.549112  0  0  -0.271223  0  3.56998  0  0  -0.333292  -0.23839  0  3.534499  0
N  N128  1  0.37032154  0.21094167  0.88435912  1  0  -0.327266  0  3.285084  0  0  -0.247451  0  3.547619  0  0  -0.267042  0  3.568682  0  0  -0.330562  -0.23425  0  3.533051  0
N  N129  1  0.46528846  0.28898152  0.61572855  1  0  -0.330941  0  3.28563  0  0  -0.251615  0  3.549072  0  0  -0.271155  0  3.569934  0  0  -0.333251  -0.238324  0  3.534459  0
N  N130  1  0.68279843  0.49673206  0.92460980  1  0  -0.389118  0  3.353113  0  0  -0.3211  0  3.595844  0  0  -0.340934  0  3.605772  0  0  -0.419952  -0.30796  0  3.589068  0
N  N131  1  0.10436932  0.00329289  0.57544069  1  0  -0.388256  0  3.357176  0  0  -0.320299  0  3.599579  0  0  -0.340255  0  3.609774  0  0  -0.419258  -0.306996  0  3.592577  0
N  N132  1  0.31720462  0.50326854  0.07538765  1  0  -0.389182  0  3.353088  0  0  -0.321065  0  3.595797  0  0  -0.340924  0  3.60574  0  0  -0.419956  -0.307911  0  3.58899  0
N  N133  1  0.89563123  0.99670503  0.42455987  1  0  -0.388319  0  3.357255  0  0  -0.320358  0  3.599617  0  0  -0.340322  0  3.609825  0  0  -0.419281  -0.307054  0  3.592617  0
N  N134  1  0.06368622  0.21481131  0.88719669  1  0  -0.322116  0  3.296514  0  0  -0.242318  0  3.561567  0  0  -0.260876  0  3.58162  0  0  -0.333051  -0.229649  0  3.547396  0
N  N135  1  0.16563041  0.28534258  0.61290246  1  0  -0.322557  0  3.296255  0  0  -0.243141  0  3.562136  0  0  -0.261685  0  3.582176  0  0  -0.334258  -0.230591  0  3.548146  0
N  N136  1  0.93631465  0.78518928  0.11280294  1  0  -0.322124  0  3.296502  0  0  -0.242325  0  3.561553  0  0  -0.260884  0  3.581607  0  0  -0.333069  -0.229659  0  3.547388  0
N  N137  1  0.83436812  0.71465713  0.38709607  1  0  -0.322436  0  3.296281  0  0  -0.242992  0  3.56208  0  0  -0.261544  0  3.582147  0  0  -0.3342  -0.23044  0  3.548086  0
N  N138  1  0.67176465  0.67423898  0.79917540  1  0  -0.41669  0  3.39135  0  0  -0.349171  0  3.636774  0  0  -0.369969  0  3.647466  0  0  -0.428538  -0.334519  0  3.628762  0
N  N139  1  0.14578544  0.82572817  0.70074057  1  0  -0.412504  0  3.388886  0  0  -0.344972  0  3.634277  0  0  -0.365703  0  3.644685  0  0  -0.426641  -0.330302  0  3.626374  0
N  N140  1  0.32823798  0.32576251  0.20082292  1  0  -0.416615  0  3.391266  0  0  -0.349129  0  3.636691  0  0  -0.369913  0  3.647355  0  0  -0.428503  -0.334468  0  3.628699  0
N  N141  1  0.85421609  0.17427064  0.29926045  1  0  -0.412535  0  3.389001  0  0  -0.345039  0  3.63443  0  0  -0.365769  0  3.644828  0  0  -0.426653  -0.330373  0  3.626543  0
