# generated using pymatgen
data_CdH11C14N2O5
_symmetry_space_group_name_H-M   'P 1'
_cell_length_a   6.87254577
_cell_length_b   9.71123304
_cell_length_c   11.33924848
_cell_angle_alpha   91.61101036
_cell_angle_beta   91.39950437
_cell_angle_gamma   72.33941203
_symmetry_Int_Tables_number   1
_chemical_formula_structural   CdH11C14N2O5
_chemical_formula_sum   'Cd2 H22 C28 N4 O10'
_cell_volume   720.73887651
_cell_formula_units_Z   2
loop_
 _symmetry_equiv_pos_site_id
 _symmetry_equiv_pos_as_xyz
  1  'x, y, z'
loop_
 _atom_site_type_symbol
 _atom_site_label
 _atom_site_symmetry_multiplicity
 _atom_site_fract_x
 _atom_site_fract_y
 _atom_site_fract_z
 _atom_site_occupancy
 _atom_site_hle17_bader_spin_density
 _atom_site_hle17_ddec_charge
 _atom_site_hle17_ddec_spin_density
 _atom_site_hle17_ddec_sum_bond_order
 _atom_site_hle17_magmom
 _atom_site_hse06_10hf_bader_spin_density
 _atom_site_hse06_10hf_ddec_charge
 _atom_site_hse06_10hf_ddec_spin_density
 _atom_site_hse06_10hf_ddec_sum_bond_order
 _atom_site_hse06_10hf_magmom
 _atom_site_hse06_bader_spin_density
 _atom_site_hse06_ddec_charge
 _atom_site_hse06_ddec_spin_density
 _atom_site_hse06_ddec_sum_bond_order
 _atom_site_hse06_magmom
 _atom_site_pbe_bader_spin_density
 _atom_site_pbe_cm5_charge
 _atom_site_pbe_ddec_charge
 _atom_site_pbe_ddec_spin_density
 _atom_site_pbe_ddec_sum_bond_order
 _atom_site_pbe_magmom
Cd  Cd0  1  0.48997763  0.80904591  0.95108613  1  0  1.194377  0  1.592585  0  0  1.014718  0  2.028435  0  0  1.07392  0  1.97322  0  0  0.772164  0.972477  0  2.066334  0
Cd  Cd1  1  0.51003580  0.19094961  0.04892281  1  0  1.194356  0  1.59254  0  0  1.014706  0  2.028356  0  0  1.073898  0  1.973164  0  0  0.772146  0.972463  0  2.066233  0
H  H2  1  0.25518631  0.59985613  0.95018124  1  0  0.429761  0  0.876603  0  0  0.394177  0  0.948627  0  0  0.405876  0  0.931714  0  0  0.286823  0.385895  0  0.960564  0
H  H3  1  0.74480756  0.40015126  0.04981169  1  0  0.429727  0  0.876643  0  0  0.394177  0  0.948604  0  0  0.405872  0  0.931698  0  0  0.28685  0.385898  0  0.960532  0
H  H4  1  0.13139827  0.71423298  0.85680920  1  0  0.430021  0  0.820176  0  0  0.409404  0  0.880279  0  0  0.41826  0  0.870102  0  0  0.313083  0.403024  0  0.887724  0
H  H5  1  0.86860977  0.28577867  0.14318331  1  0  0.430137  0  0.819999  0  0  0.409494  0  0.88016  0  0  0.418351  0  0.869977  0  0  0.313168  0.403107  0  0.887617  0
H  H6  1  0.55735732  0.56545674  0.17211445  1  0  0.107848  0  0.962387  0  0  0.115206  0  1.029588  0  0  0.1182  0  1.025781  0  0  0.136225  0.113009  0  1.032251  0
H  H7  1  0.44264623  0.43454536  0.82788027  1  0  0.107788  0  0.962439  0  0  0.11521  0  1.029574  0  0  0.118203  0  1.025767  0  0  0.136226  0.113009  0  1.032238  0
H  H8  1  0.20722007  0.00526448  0.17998112  1  0  0.121933  0  0.929679  0  0  0.134171  0  0.982692  0  0  0.136964  0  0.981077  0  0  0.124837  0.132148  0  0.983927  0
H  H9  1  0.79277910  0.99473610  0.82002259  1  0  0.121957  0  0.929618  0  0  0.1342  0  0.982626  0  0  0.136992  0  0.981016  0  0  0.124852  0.132174  0  0.983869  0
H  H10  1  0.19890399  0.89218734  0.40150746  1  0  0.115067  0  0.942725  0  0  0.129873  0  0.993693  0  0  0.132549  0  0.992266  0  0  0.127802  0.127933  0  0.994798  0
H  H11  1  0.80108228  0.10780398  0.59848709  1  0  0.115092  0  0.942443  0  0  0.129837  0  0.993497  0  0  0.132505  0  0.992075  0  0  0.1278  0.127905  0  0.9946  0
H  H12  1  0.93418198  0.58258288  0.65394443  1  0  0.094833  0  0.956651  0  0  0.104819  0  1.018666  0  0  0.108529  0  1.015491  0  0  0.101541  0.102103  0  1.02109  0
H  H13  1  0.06585332  0.41742519  0.34605922  1  0  0.094761  0  0.956683  0  0  0.104719  0  1.018747  0  0  0.108431  0  1.015572  0  0  0.101499  0.102005  0  1.021175  0
H  H14  1  0.01325224  0.29253595  0.94284487  1  0  0.097939  0  0.966862  0  0  0.105047  0  1.037047  0  0  0.108767  0  1.033466  0  0  0.104849  0.102292  0  1.039806  0
H  H15  1  0.98674365  0.70745628  0.05714770  1  0  0.097923  0  0.966821  0  0  0.105071  0  1.036984  0  0  0.108786  0  1.033405  0  0  0.104848  0.102316  0  1.039749  0
H  H16  1  0.38071707  0.76326510  0.54839673  1  0  0.115471  0  0.937067  0  0  0.128209  0  0.991175  0  0  0.131868  0  0.988447  0  0  0.112617  0.125578  0  0.993202  0
H  H17  1  0.61927928  0.23672605  0.45159587  1  0  0.115351  0  0.937214  0  0  0.128143  0  0.991281  0  0  0.131803  0  0.988551  0  0  0.112614  0.125529  0  0.993287  0
H  H18  1  0.52201537  0.40842125  0.29256733  1  0  0.119832  0  0.958656  0  0  0.130698  0  1.017513  0  0  0.133434  0  1.016297  0  0  0.111484  0.12867  0  1.018522  0
H  H19  1  0.47799022  0.59156886  0.70742602  1  0  0.119735  0  0.958744  0  0  0.130697  0  1.017509  0  0  0.133432  0  1.016293  0  0  0.111503  0.128665  0  1.018527  0
H  H20  1  0.14176588  0.37872272  0.52656605  1  0  0.086199  0  0.973816  0  0  0.099146  0  1.031451  0  0  0.101224  0  1.03183  0  0  0.097821  0.097716  0  1.031235  0
H  H21  1  0.85824316  0.62126954  0.47342716  1  0  0.086085  0  0.97393  0  0  0.099039  0  1.031579  0  0  0.101118  0  1.031954  0  0  0.097785  0.097606  0  1.03137  0
H  H22  1  0.28391853  0.13204757  0.61063599  1  0  0.094305  0  0.939938  0  0  0.104266  0  1.001651  0  0  0.108006  0  0.998579  0  0  0.101911  0.101566  0  1.003789  0
H  H23  1  0.71605221  0.86794589  0.38935788  1  0  0.094256  0  0.939947  0  0  0.104196  0  1.001697  0  0  0.107933  0  0.998628  0  0  0.101863  0.101495  0  1.003831  0
C  C24  1  0.45873458  0.66956131  0.20227209  1  0  0.185131  0  3.630942  0  0  0.121356  0  3.902705  0  0  0.135791  0  3.916342  0  0  0.147971  0.112094  0  3.892956  0
C  C25  1  0.54125399  0.33043880  0.79772474  1  0  0.185277  0  3.631065  0  0  0.121436  0  3.902818  0  0  0.135876  0  3.916462  0  0  0.147964  0.112178  0  3.893064  0
C  C26  1  0.27900165  0.89712088  0.21185786  1  0  0.020858  0  3.722459  0  0  -0.014669  0  3.991902  0  0  -0.012326  0  4.01231  0  0  0.004621  -0.016029  0  3.977892  0
C  C27  1  0.72098892  0.10288302  0.78814677  1  0  0.020895  0  3.722513  0  0  -0.01462  0  3.991937  0  0  -0.012278  0  4.012352  0  0  0.004645  -0.015977  0  3.977936  0
C  C28  1  0.81172604  0.56902105  0.87496455  1  0  0.630197  0  3.929818  0  0  0.577816  0  4.223274  0  0  0.612129  0  4.218069  0  0  0.196323  0.554643  0  4.225942  0
C  C29  1  0.18828181  0.43098571  0.12503523  1  0  0.630383  0  3.929418  0  0  0.577921  0  4.223  0  0  0.612236  0  4.217784  0  0  0.196287  0.554751  0  4.225666  0
C  C30  1  0.27628093  0.84314527  0.32197676  1  0  -0.057448  0  3.668304  0  0  -0.098467  0  3.930379  0  0  -0.097542  0  3.949905  0  0  0.004193  -0.099108  0  3.91712  0
C  C31  1  0.72372709  0.15684913  0.67803144  1  0  -0.057528  0  3.668204  0  0  -0.098512  0  3.930336  0  0  -0.097579  0  3.949858  0  0  0.00412  -0.099162  0  3.917094  0
C  C32  1  0.95459253  0.45003935  0.80471388  1  0  -0.076693  0  3.768612  0  0  -0.051612  0  4.007556  0  0  -0.060892  0  4.030064  0  0  -0.023058  -0.045866  0  3.992545  0
C  C33  1  0.04538467  0.54996265  0.19527867  1  0  -0.076926  0  3.768656  0  0  -0.051861  0  4.007715  0  0  -0.061145  0  4.030216  0  0  -0.023066  -0.046106  0  3.992699  0
C  C34  1  0.44187572  0.59846911  0.40855296  1  0  0.170516  0  3.797015  0  0  0.161022  0  4.047223  0  0  0.165607  0  4.071547  0  0  0.095677  0.157971  0  4.030857  0
C  C35  1  0.55813025  0.40152143  0.59144656  1  0  0.170417  0  3.796897  0  0  0.160949  0  4.047123  0  0  0.16552  0  4.071466  0  0  0.095608  0.157896  0  4.03076  0
C  C36  1  0.99628948  0.47394998  0.68799761  1  0  -0.058238  0  3.725062  0  0  -0.088598  0  3.982442  0  0  -0.086116  0  4.000622  0  0  -0.083609  -0.089872  0  3.970139  0
C  C37  1  0.00370305  0.52605126  0.31199999  1  0  -0.058038  0  3.72501  0  0  -0.088367  0  3.9824  0  0  -0.085877  0  4.00056  0  0  -0.083549  -0.089651  0  3.970111  0
C  C38  1  0.03930414  0.31289875  0.85173540  1  0  -0.051698  0  3.691283  0  0  -0.091656  0  3.944549  0  0  -0.088274  0  3.962909  0  0  -0.076402  -0.093408  0  3.931731  0
C  C39  1  0.96069324  0.68710457  0.14826116  1  0  -0.051552  0  3.691387  0  0  -0.091563  0  3.944515  0  0  -0.088197  0  3.962931  0  0  -0.076393  -0.093315  0  3.931707  0
C  C40  1  0.42983581  0.64815952  0.52594745  1  0  -0.12992  0  3.724808  0  0  -0.149045  0  3.973354  0  0  -0.151922  0  3.992877  0  0  -0.084214  -0.147237  0  3.960232  0
C  C41  1  0.57016131  0.35183093  0.47405047  1  0  -0.129794  0  3.724899  0  0  -0.148981  0  3.973408  0  0  -0.151852  0  3.992937  0  0  -0.084239  -0.147183  0  3.960282  0
C  C42  1  0.51207712  0.44989207  0.38307416  1  0  -0.124256  0  3.722434  0  0  -0.14537  0  3.974565  0  0  -0.148831  0  3.996192  0  0  -0.083127  -0.142943  0  3.960084  0
C  C43  1  0.48792473  0.55009716  0.61692195  1  0  -0.124175  0  3.72257  0  0  -0.145402  0  3.974718  0  0  -0.148854  0  3.996346  0  0  -0.08322  -0.14297  0  3.960228  0
C  C44  1  0.11124803  0.35974427  0.61743358  1  0  -0.086847  0  3.779571  0  0  -0.099231  0  4.038137  0  0  -0.103759  0  4.060236  0  0  -0.097291  -0.096365  0  4.022936  0
C  C45  1  0.88876109  0.64025914  0.38256453  1  0  -0.086732  0  3.779756  0  0  -0.09914  0  4.038325  0  0  -0.103664  0  4.060419  0  0  -0.097247  -0.096282  0  4.023123  0
C  C46  1  0.16000302  0.19936976  0.78251408  1  0  -0.073982  0  3.780198  0  0  -0.045136  0  4.01244  0  0  -0.055096  0  4.036595  0  0  -0.020518  -0.038766  0  3.996067  0
C  C47  1  0.84000386  0.80063282  0.21748764  1  0  -0.074205  0  3.780413  0  0  -0.045175  0  4.012416  0  0  -0.055135  0  4.036549  0  0  -0.020462  -0.038823  0  3.99607  0
C  C48  1  0.19125019  0.22219382  0.66390229  1  0  -0.057478  0  3.728335  0  0  -0.089366  0  3.985164  0  0  -0.086329  0  4.002458  0  0  -0.083363  -0.090806  0  3.972898  0
C  C49  1  0.80875171  0.77780339  0.33609972  1  0  -0.057419  0  3.72834  0  0  -0.089344  0  3.985129  0  0  -0.086308  0  4.002423  0  0  -0.083398  -0.090773  0  3.972858  0
C  C50  1  0.26193142  0.05662233  0.83691618  1  0  0.635376  0  3.934179  0  0  0.583984  0  4.225755  0  0  0.618431  0  4.221237  0  0  0.19073  0.560436  0  4.228246  0
C  C51  1  0.73808658  0.94337970  0.16309332  1  0  0.635559  0  3.933657  0  0  0.584146  0  4.225171  0  0  0.618594  0  4.220647  0  0  0.190767  0.560601  0  4.22766  0
N  N52  1  0.39317020  0.78767622  0.13854099  1  0  -0.398046  0  3.273255  0  0  -0.32039  0  3.556579  0  0  -0.343606  0  3.575758  0  0  -0.356984  -0.304581  0  3.543024  0
N  N53  1  0.60680065  0.21232528  0.86145965  1  0  -0.398041  0  3.273272  0  0  -0.320426  0  3.556699  0  0  -0.343634  0  3.575842  0  0  -0.356925  -0.30461  0  3.543131  0
N  N54  1  0.38999717  0.69796145  0.31508281  1  0  -0.099056  0  3.611465  0  0  -0.007409  0  3.819923  0  0  -0.02352  0  3.848399  0  0  -0.224045  0.003256  0  3.80061  0
N  N55  1  0.61001293  0.30203358  0.68491913  1  0  -0.099043  0  3.611465  0  0  -0.00737  0  3.819909  0  0  -0.023485  0  3.848399  0  0  -0.223937  0.003297  0  3.800596  0
O  O56  1  0.71071548  0.94466190  0.04965127  1  0  -0.691454  0  2.019866  0  0  -0.615039  0  2.272145  0  0  -0.647584  0  2.261191  0  0  -0.341507  -0.59209  0  2.27903  0
O  O57  1  0.28925673  0.05532537  0.95036227  1  0  -0.691526  0  2.020187  0  0  -0.615075  0  2.272417  0  0  -0.647615  0  2.26145  0  0  -0.341581  -0.592124  0  2.279298  0
O  O58  1  0.26888028  0.66675150  0.88699683  1  0  -0.832615  0  1.853848  0  0  -0.777172  0  2.056236  0  0  -0.798144  0  2.025753  0  0  -0.577805  -0.762542  0  2.077779  0
O  O59  1  0.73112142  0.33326758  0.11300880  1  0  -0.832704  0  1.853756  0  0  -0.777239  0  2.056107  0  0  -0.798211  0  2.025631  0  0  -0.577914  -0.762609  0  2.077652  0
O  O60  1  0.77220954  0.69879914  0.83871334  1  0  -0.64661  0  1.944062  0  0  -0.58176  0  2.183241  0  0  -0.610411  0  2.171588  0  0  -0.332873  -0.561496  0  2.190397  0
O  O61  1  0.22782819  0.30120682  0.16129123  1  0  -0.64668  0  1.943973  0  0  -0.581819  0  2.183216  0  0  -0.610471  0  2.171559  0  0  -0.332887  -0.561556  0  2.190372  0
O  O62  1  0.72558864  0.53937952  0.96488610  1  0  -0.644378  0  2.009807  0  0  -0.574136  0  2.241745  0  0  -0.603521  0  2.234949  0  0  -0.313556  -0.5535  0  2.245452  0
O  O63  1  0.27441653  0.46063068  0.03511626  1  0  -0.644446  0  2.009807  0  0  -0.574057  0  2.241602  0  0  -0.603465  0  2.234849  0  0  -0.313493  -0.55342  0  2.245295  0
O  O64  1  0.32307909  0.94335006  0.77324544  1  0  -0.620869  0  1.890358  0  0  -0.564866  0  2.109334  0  0  -0.591677  0  2.1007  0  0  -0.332218  -0.546208  0  2.114672  0
O  O65  1  0.67691400  0.05665814  0.22675898  1  0  -0.620969  0  1.890072  0  0  -0.56498  0  2.109051  0  0  -0.591787  0  2.100415  0  0  -0.332332  -0.546328  0  2.114396  0
