# generated using pymatgen
data_Cu3H14C9SI4N
_symmetry_space_group_name_H-M   'P 1'
_cell_length_a   11.01589015
_cell_length_b   10.97987852
_cell_length_c   15.52530000
_cell_angle_alpha   90.00000000
_cell_angle_beta   90.00000000
_cell_angle_gamma   108.38707522
_symmetry_Int_Tables_number   1
_chemical_formula_structural   Cu3H14C9SI4N
_chemical_formula_sum   'Cu12 H56 C36 S4 I16 N4'
_cell_volume   1781.96503249
_cell_formula_units_Z   4
loop_
 _symmetry_equiv_pos_site_id
 _symmetry_equiv_pos_as_xyz
  1  'x, y, z'
loop_
 _atom_site_type_symbol
 _atom_site_label
 _atom_site_symmetry_multiplicity
 _atom_site_fract_x
 _atom_site_fract_y
 _atom_site_fract_z
 _atom_site_occupancy
 _atom_site_pbe_bader_charge
 _atom_site_pbe_bader_spin_density
 _atom_site_pbe_cm5_charge
 _atom_site_pbe_ddec_charge
 _atom_site_pbe_ddec_spin_density
 _atom_site_pbe_ddec_sum_bond_order
 _atom_site_pbe_magmom
Cu  Cu0  1  0.74080089  0.81782362  0.21894778  1  0.307728  0  0.131727  0.137316  0  2.742777  0
Cu  Cu1  1  0.74080197  0.31782385  0.28105157  1  0.307816  0  0.13175  0.137379  0  2.742673  0
Cu  Cu2  1  0.25919905  0.18217399  0.78105157  1  0.307771  0  0.131753  0.13734  0  2.742785  0
Cu  Cu3  1  0.25919706  0.68217664  0.71894714  1  0.307872  0  0.131736  0.137378  0  2.742695  0
Cu  Cu4  1  0.73542793  0.57736082  0.21162490  1  0.302546  0  0.129481  0.12051  0  2.791277  0
Cu  Cu5  1  0.73542901  0.07735818  0.28837253  1  0.302544  0  0.129465  0.120457  0  2.791365  0
Cu  Cu6  1  0.26457201  0.42263967  0.78837317  1  0.30255  0  0.129483  0.120504  0  2.791328  0
Cu  Cu7  1  0.26456820  0.92263943  0.71162812  1  0.302548  0  0.129452  0.120449  0  2.791427  0
Cu  Cu8  1  0.59901504  0.64967933  0.32300117  1  0.327632  0  0.196459  0.118221  0  2.884375  0
Cu  Cu9  1  0.59901673  0.14968148  0.17699755  1  0.327605  0  0.196472  0.118216  0  2.884415  0
Cu  Cu10  1  0.40098278  0.35031732  0.67699755  1  0.327643  0  0.19645  0.118206  0  2.884411  0
Cu  Cu11  1  0.40098230  0.85031901  0.82300181  1  0.327608  0  0.196482  0.118244  0  2.884332  0
H  H12  1  0.45606352  0.81874019  0.46612883  1  0.099561  0  0.091722  0.11668  0  1.048344  0
H  H13  1  0.45606400  0.31874426  0.03387310  1  0.099375  0  0.091754  0.116695  0  1.048373  0
H  H14  1  0.54393763  0.18125551  0.53387310  1  0.099366  0  0.091748  0.116704  0  1.048341  0
H  H15  1  0.54393503  0.68125911  0.96612690  1  0.099546  0  0.091746  0.116709  0  1.048342  0
H  H16  1  0.15970837  0.49775106  0.35246855  1  0.144428  0  0.099219  0.121896  0  1.056133  0
H  H17  1  0.15971363  0.99775658  0.14753531  1  0.144456  0  0.099236  0.121945  0  1.056065  0
H  H18  1  0.84028916  0.50224463  0.64753403  1  0.144472  0  0.099238  0.121953  0  1.056065  0
H  H19  1  0.84029114  0.00224775  0.85246791  1  0.14443  0  0.099252  0.121976  0  1.056083  0
H  H20  1  0.96950191  0.79934929  0.39308999  1  0.090058  0  0.095148  0.084758  0  1.035426  0
H  H21  1  0.96950178  0.29935145  0.10691323  1  0.090002  0  0.095145  0.084774  0  1.035435  0
H  H22  1  0.03050015  0.20065216  0.60691323  1  0.09  0  0.095126  0.084702  0  1.035484  0
H  H23  1  0.03049846  0.70065000  0.89309063  1  0.090076  0  0.095152  0.08479  0  1.035392  0
H  H24  1  0.04648251  0.87452883  0.48871133  1  0.079243  0  0.09778  0.087246  0  1.000835  0
H  H25  1  0.04648268  0.37453194  0.01129060  1  0.07928  0  0.097767  0.08723  0  1.000881  0
H  H26  1  0.95352258  0.12547070  0.51129125  1  0.079277  0  0.097801  0.087286  0  1.000807  0
H  H27  1  0.95351575  0.62546951  0.98871326  1  0.079211  0  0.097784  0.087257  0  1.000744  0
H  H28  1  0.29687289  0.93592244  0.47145820  1  0.123829  0  0.1135  0.100816  0  1.029508  0
H  H29  1  0.29687427  0.43592652  0.02854438  1  0.123737  0  0.113498  0.100791  0  1.029537  0
H  H30  1  0.70312887  0.06407517  0.52854180  1  0.123782  0  0.113485  0.100808  0  1.029547  0
H  H31  1  0.70312536  0.56407589  0.97145691  1  0.123767  0  0.113499  0.100816  0  1.029513  0
H  H32  1  0.03191315  0.03566162  0.37704521  1  0.074746  0  0.076009  0.129717  0  1.047375  0
H  H33  1  0.03191177  0.53566330  0.12295672  1  0.074727  0  0.075985  0.129682  0  1.047384  0
H  H34  1  0.96809072  0.96433983  0.62295672  1  0.074778  0  0.076018  0.129703  0  1.047342  0
H  H35  1  0.96808757  0.46433815  0.87704650  1  0.074742  0  0.076007  0.129706  0  1.047373  0
H  H36  1  0.11788568  0.97212536  0.30298996  1  0.047646  0  0.077563  0.116407  0  1.047808  0
H  H37  1  0.11788525  0.47212944  0.19701262  1  0.047576  0  0.077533  0.116392  0  1.047792  0
H  H38  1  0.88211729  0.02787321  0.69701262  1  0.047574  0  0.077534  0.116364  0  1.047808  0
H  H39  1  0.88211439  0.52787297  0.80299060  1  0.047661  0  0.077554  0.116387  0  1.047819  0
H  H40  1  0.19513459  0.05295641  0.39802967  1  0.051664  0  0.075893  0.113865  0  1.036237  0
H  H41  1  0.19513411  0.55296097  0.10197291  1  0.051691  0  0.075895  0.113876  0  1.036195  0
H  H42  1  0.80486959  0.94704312  0.60197291  1  0.05173  0  0.075888  0.113854  0  1.036258  0
H  H43  1  0.80486553  0.44704144  0.89803031  1  0.051694  0  0.075889  0.113862  0  1.036204  0
H  H44  1  0.40320566  0.34683725  0.42383980  1  0.074457  0  0.08725  0.102365  0  1.017475  0
H  H45  1  0.40321032  0.84684373  0.07615956  1  0.074467  0  0.087256  0.1024  0  1.017462  0
H  H46  1  0.59678733  0.65315556  0.57615247  1  0.075108  0  0.087258  0.102407  0  1.017431  0
H  H47  1  0.59679113  0.15315868  0.92383851  1  0.074477  0  0.087261  0.102376  0  1.017471  0
H  H48  1  0.25459566  0.37697164  0.42755631  1  0.07701  0  0.090866  0.107172  0  0.999916  0
H  H49  1  0.25460002  0.87697716  0.07244369  1  0.077039  0  0.090884  0.107177  0  0.999962  0
H  H50  1  0.74539793  0.62302309  0.57243725  1  0.077121  0  0.090934  0.107192  0  0.999896  0
H  H51  1  0.74540234  0.12302525  0.92755631  1  0.077032  0  0.090896  0.107208  0  0.999904  0
H  H52  1  0.01676021  0.63127411  0.35673256  1  0.152778  0  0.108466  0.096936  0  1.063676  0
H  H53  1  0.01676431  0.13127818  0.14326937  1  0.152849  0  0.10844  0.096915  0  1.063689  0
H  H54  1  0.98323913  0.36872447  0.64326808  1  0.152767  0  0.108444  0.096896  0  1.063704  0
H  H55  1  0.98323896  0.86872423  0.85673385  1  0.152795  0  0.108444  0.096885  0  1.063688  0
H  H56  1  0.26873927  0.26310630  0.29120275  1  0.043996  0  0.081157  0.127398  0  1.009834  0
H  H57  1  0.26874484  0.76311278  0.20879597  1  0.043996  0  0.081146  0.1274  0  1.009844  0
H  H58  1  0.73125613  0.73689419  0.70878824  1  0.043937  0  0.081156  0.127457  0  1.009744  0
H  H59  1  0.73125873  0.23689059  0.79120210  1  0.043996  0  0.081159  0.127438  0  1.009793  0
H  H60  1  0.42034424  0.37577867  0.26623640  1  0.068234  0  0.072213  0.116369  0  1.047743  0
H  H61  1  0.42034739  0.87578323  0.23376360  1  0.068241  0  0.07218  0.116318  0  1.047748  0
H  H62  1  0.57965357  0.62422374  0.73375780  1  0.068293  0  0.072186  0.11635  0  1.047766  0
H  H63  1  0.57965345  0.12421726  0.76623576  1  0.068253  0  0.072188  0.116361  0  1.047722  0
H  H64  1  0.28072822  0.42314930  0.26191700  1  0.025961  0  0.074406  0.110106  0  1.048635  0
H  H65  1  0.28073349  0.92315482  0.23808236  1  0.025386  0  0.074366  0.110019  0  1.0487  0
H  H66  1  0.71926778  0.57685311  0.73807720  1  0.025481  0  0.074403  0.110135  0  1.048611  0
H  H67  1  0.71926947  0.07684663  0.76191571  1  0.025988  0  0.074424  0.110135  0  1.048638  0
C  C68  1  0.32235329  0.64680486  0.40917985  1  -0.126068  0  0.013657  0.107936  0  3.967547  0
C  C69  1  0.32235618  0.14681086  0.09082272  1  -0.125984  0  0.013663  0.10788  0  3.967525  0
C  C70  1  0.67764696  0.35319083  0.59082079  1  -0.125965  0  0.013679  0.107902  0  3.967414  0
C  C71  1  0.67764497  0.85319347  0.90917857  1  -0.126076  0  0.013642  0.107895  0  3.967473  0
C  C72  1  0.35999516  0.77344167  0.44125138  1  0.065724  0  -0.08303  -0.149882  0  3.954186  0
C  C73  1  0.35999744  0.27344574  0.05874862  1  0.065968  0  -0.083034  -0.14981  0  3.954181  0
C  C74  1  0.64000448  0.22655499  0.55874733  1  0.065976  0  -0.083008  -0.149804  0  3.954087  0
C  C75  1  0.64000310  0.72655667  0.94125073  1  0.065947  0  -0.083012  -0.149854  0  3.954161  0
C  C76  1  0.19698092  0.59491762  0.37768932  1  0.02247  0  -0.084387  -0.163074  0  3.941094  0
C  C77  1  0.19698502  0.09492170  0.12231454  1  0.022709  0  -0.084477  -0.163204  0  3.940946  0
C  C78  1  0.80302054  0.40507903  0.62231068  1  0.022314  0  -0.08443  -0.163126  0  3.940984  0
C  C79  1  0.80301764  0.90508167  0.87768739  1  0.022405  0  -0.084445  -0.163198  0  3.941007  0
C  C80  1  0.06040062  0.86104235  0.41957450  1  0.250858  0  -0.063328  -0.033631  0  3.87198  0
C  C81  1  0.06040170  0.36104547  0.08042808  1  0.250968  0  -0.06333  -0.033594  0  3.872056  0
C  C82  1  0.93960174  0.13895718  0.58042808  1  0.250876  0  -0.06335  -0.033642  0  3.871899  0
C  C83  1  0.93959793  0.63895694  0.91957579  1  0.250885  0  -0.06334  -0.033652  0  3.871869  0
C  C84  1  0.27352712  0.84021567  0.44369706  1  0.398968  0  0.058795  0.060677  0  3.843548  0
C  C85  1  0.27353062  0.34022070  0.05630551  1  0.398828  0  0.058758  0.060702  0  3.843666  0
C  C86  1  0.72647494  0.15978003  0.55630358  1  0.398922  0  0.058767  0.060602  0  3.843614  0
C  C87  1  0.72647114  0.65978267  0.94369513  1  0.398754  0  0.058748  0.060633  0  3.843594  0
C  C88  1  0.10547212  0.98795748  0.37175836  1  -0.116758  0  -0.256189  -0.388023  0  3.935428  0
C  C89  1  0.10547259  0.48796156  0.12824422  1  -0.116826  0  -0.256119  -0.387968  0  3.935373  0
C  C90  1  0.89453085  0.01204109  0.62824422  1  -0.116858  0  -0.256142  -0.38793  0  3.935372  0
C  C91  1  0.89452704  0.51204085  0.87175900  1  -0.116808  0  -0.25616  -0.387963  0  3.93533  0
C  C92  1  0.34518955  0.39878879  0.39185781  1  -0.109592  0  -0.150291  -0.114355  0  3.866546  0
C  C93  1  0.34519270  0.89879336  0.10814091  1  -0.109524  0  -0.150351  -0.114472  0  3.86665  0
C  C94  1  0.65480555  0.60120786  0.60813640  1  -0.110232  0  -0.150315  -0.114394  0  3.866602  0
C  C95  1  0.65480784  0.10120617  0.89185845  1  -0.10952  0  -0.150385  -0.114453  0  3.866606  0
C  C96  1  0.11499616  0.66749142  0.38005771  1  0.364711  0  0.061463  0.058287  0  3.843617  0
C  C97  1  0.11499633  0.16749454  0.11994486  1  0.364277  0  0.061577  0.058488  0  3.843392  0
C  C98  1  0.88500621  0.33250811  0.61994293  1  0.364702  0  0.061522  0.058358  0  3.843505  0
C  C99  1  0.88500301  0.83250691  0.88005771  1  0.364621  0  0.061556  0.058474  0  3.843503  0
C  C100  1  0.32785719  0.36411476  0.29710473  1  -0.079611  0  -0.264944  -0.368246  0  3.97143  0
C  C101  1  0.32786216  0.86411933  0.20289399  1  -0.07906  0  -0.264817  -0.368022  0  3.971419  0
C  C102  1  0.67213791  0.63588477  0.70288754  1  -0.079196  0  -0.264962  -0.368354  0  3.971418  0
C  C103  1  0.67214081  0.13588212  0.79710408  1  -0.079711  0  -0.264891  -0.368268  0  3.971398  0
S  S104  1  0.43422461  0.56523336  0.41672625  1  0.102995  0  0.005834  0.097201  0  3.333137  0
S  S105  1  0.43422871  0.06524031  0.08327246  1  0.103122  0  0.005838  0.097246  0  3.333059  0
S  S106  1  0.56577261  0.43476137  0.58327182  1  0.103272  0  0.005835  0.097247  0  3.333037  0
S  S107  1  0.56577425  0.93476402  0.91672625  1  0.103302  0  0.005836  0.097234  0  3.333168  0
I  I108  1  0.52120249  0.63911626  0.16339008  1  -0.38899  0  -0.166063  -0.257222  0  2.05018  0
I  I109  1  0.52120418  0.13911554  0.33660863  1  -0.389046  0  -0.166051  -0.257203  0  2.050178  0
I  I110  1  0.47879623  0.36088615  0.83660734  1  -0.389072  0  -0.166065  -0.257195  0  2.050198  0
I  I111  1  0.47879424  0.86088591  0.66339008  1  -0.389044  0  -0.166064  -0.257236  0  2.050185  0
I  I112  1  0.74834128  0.01668150  0.12330905  1  -0.376349  0  -0.167861  -0.256649  0  2.351554  0
I  I113  1  0.74834050  0.51668223  0.37669031  1  -0.376354  0  -0.167836  -0.25663  0  2.351498  0
I  I114  1  0.25166078  0.98331995  0.87669159  1  -0.37632  0  -0.167861  -0.256658  0  2.351615  0
I  I115  1  0.25165883  0.48331922  0.62330905  1  -0.376337  0  -0.167862  -0.256669  0  2.351527  0
I  I116  1  0.94667980  0.76238433  0.17169266  1  -0.471339  0  -0.220757  -0.336066  0  1.839717  0
I  I117  1  0.94667786  0.26238072  0.32830734  1  -0.471313  0  -0.220734  -0.336048  0  1.839763  0
I  I118  1  0.05332195  0.23761616  0.82830734  1  -0.471314  0  -0.220748  -0.336056  0  1.839737  0
I  I119  1  0.05331724  0.73761593  0.67169845  1  -0.471367  0  -0.220718  -0.336031  0  1.839769  0
I  I120  1  0.72266222  0.87955315  0.38751586  1  -0.409126  0  -0.16738  -0.252676  0  2.213782  0
I  I121  1  0.72266239  0.37955914  0.11248221  1  -0.40918  0  -0.167404  -0.252744  0  2.213817  0
I  I122  1  0.27734166  0.12043679  0.61248349  1  -0.409245  0  -0.167398  -0.252725  0  2.213927  0
I  I123  1  0.27733392  0.62044135  0.88751715  1  -0.409173  0  -0.167413  -0.252759  0  2.213797  0
N  N124  1  0.15241038  0.78768155  0.41336399  1  -1.219456  0  -0.214391  0.087952  0  3.703714  0
N  N125  1  0.15241479  0.28768659  0.08663730  1  -1.219423  0  -0.21441  0.087751  0  3.703844  0
N  N126  1  0.84759016  0.21231510  0.58663665  1  -1.21951  0  -0.214435  0.087913  0  3.703621  0
N  N127  1  0.84758666  0.71231582  0.91336335  1  -1.219481  0  -0.214442  0.087822  0  3.7038  0
