# generated using pymatgen
data_CdH5C4N2ClO3
_symmetry_space_group_name_H-M   'P 1'
_cell_length_a   6.92819054
_cell_length_b   10.33215876
_cell_length_c   10.53605564
_cell_angle_alpha   90.00016476
_cell_angle_beta   104.98820725
_cell_angle_gamma   90.00046197
_symmetry_Int_Tables_number   1
_chemical_formula_structural   CdH5C4N2ClO3
_chemical_formula_sum   'Cd4 H20 C16 N8 Cl4 O12'
_cell_volume   728.54548120
_cell_formula_units_Z   4
loop_
 _symmetry_equiv_pos_site_id
 _symmetry_equiv_pos_as_xyz
  1  'x, y, z'
loop_
 _atom_site_type_symbol
 _atom_site_label
 _atom_site_symmetry_multiplicity
 _atom_site_fract_x
 _atom_site_fract_y
 _atom_site_fract_z
 _atom_site_occupancy
 _atom_site_hle17_bader_spin_density
 _atom_site_hle17_ddec_charge
 _atom_site_hle17_ddec_spin_density
 _atom_site_hle17_ddec_sum_bond_order
 _atom_site_hle17_magmom
 _atom_site_hse06_10hf_bader_spin_density
 _atom_site_hse06_10hf_ddec_charge
 _atom_site_hse06_10hf_ddec_spin_density
 _atom_site_hse06_10hf_ddec_sum_bond_order
 _atom_site_hse06_10hf_magmom
 _atom_site_hse06_bader_spin_density
 _atom_site_hse06_ddec_charge
 _atom_site_hse06_ddec_spin_density
 _atom_site_hse06_ddec_sum_bond_order
 _atom_site_hse06_magmom
 _atom_site_pbe_bader_spin_density
 _atom_site_pbe_cm5_charge
 _atom_site_pbe_ddec_charge
 _atom_site_pbe_ddec_spin_density
 _atom_site_pbe_ddec_sum_bond_order
 _atom_site_pbe_magmom
Cd  Cd0  1  0.19103908  0.13739536  0.99988343  1  0  1.105041  0  1.770405  0  0  0.92768  0  2.229914  0  0  0.97985  0  2.178814  0  0  0.691035  0.889737  0  2.264519  0
Cd  Cd1  1  0.30896739  0.63739498  0.50012134  1  0  1.105028  0  1.770441  0  0  0.92766  0  2.229961  0  0  0.979845  0  2.178828  0  0  0.691009  0.889723  0  2.264571  0
Cd  Cd2  1  0.80896756  0.86260598  0.00011789  1  0  1.105049  0  1.770346  0  0  0.92769  0  2.22986  0  0  0.979872  0  2.178733  0  0  0.691036  0.889751  0  2.264469  0
Cd  Cd3  1  0.69103483  0.36260442  0.49987727  1  0  1.105048  0  1.770403  0  0  0.927673  0  2.229931  0  0  0.979857  0  2.178796  0  0  0.691021  0.889734  0  2.264536  0
H  H4  1  0.15799557  0.63793808  0.85825765  1  0  0.138423  0  0.957527  0  0  0.147544  0  1.017753  0  0  0.150851  0  1.016503  0  0  0.1057  0.145581  0  1.018297  0
H  H5  1  0.34200974  0.13793528  0.64173648  1  0  0.138453  0  0.957492  0  0  0.147598  0  1.017682  0  0  0.15091  0  1.016437  0  0  0.105708  0.145628  0  1.018232  0
H  H6  1  0.84200955  0.36206519  0.14174435  1  0  0.138443  0  0.957601  0  0  0.147557  0  1.017824  0  0  0.150862  0  1.016577  0  0  0.105721  0.145593  0  1.018364  0
H  H7  1  0.65798346  0.86206315  0.35826239  1  0  0.138467  0  0.957589  0  0  0.147588  0  1.017803  0  0  0.150898  0  1.016558  0  0  0.105715  0.14562  0  1.018355  0
H  H8  1  0.39473589  0.64041142  0.11404555  1  0  0.118672  0  0.95674  0  0  0.126627  0  1.021661  0  0  0.129821  0  1.018841  0  0  0.119056  0.124164  0  1.024042  0
H  H9  1  0.10527633  0.14040423  0.38595234  1  0  0.118692  0  0.956743  0  0  0.126623  0  1.021676  0  0  0.129855  0  1.018796  0  0  0.119074  0.12415  0  1.024064  0
H  H10  1  0.60526483  0.35958991  0.88595279  1  0  0.118656  0  0.95665  0  0  0.126605  0  1.021587  0  0  0.129803  0  1.018763  0  0  0.119045  0.12413  0  1.023975  0
H  H11  1  0.89471836  0.85959420  0.61404680  1  0  0.118732  0  0.956739  0  0  0.126646  0  1.021691  0  0  0.129851  0  1.018841  0  0  0.11909  0.124175  0  1.024081  0
H  H12  1  0.59554764  0.14744269  0.98076857  1  0  0.399905  0  0.890848  0  0  0.373115  0  0.961263  0  0  0.382542  0  0.94767  0  0  0.271691  0.366199  0  0.971287  0
H  H13  1  0.90445499  0.64744190  0.51923116  1  0  0.399971  0  0.890772  0  0  0.373187  0  0.961158  0  0  0.382615  0  0.947564  0  0  0.271714  0.366274  0  0.971179  0
H  H14  1  0.40445452  0.85255961  0.01923193  1  0  0.399918  0  0.890858  0  0  0.373126  0  0.961255  0  0  0.382555  0  0.947661  0  0  0.271704  0.366213  0  0.971276  0
H  H15  1  0.09554567  0.35255846  0.48076907  1  0  0.399952  0  0.890824  0  0  0.373168  0  0.961191  0  0  0.382597  0  0.947597  0  0  0.271709  0.366253  0  0.971215  0
H  H16  1  0.40133514  0.40006391  0.19064057  1  0  0.302903  0  0.912379  0  0  0.278415  0  0.983207  0  0  0.286849  0  0.975989  0  0  0.320685  0.272564  0  0.988306  0
H  H17  1  0.09866873  0.90005658  0.30936122  1  0  0.302863  0  0.912503  0  0  0.278422  0  0.983271  0  0  0.286861  0  0.97606  0  0  0.320744  0.272569  0  0.988372  0
H  H18  1  0.59866702  0.59994130  0.80935993  1  0  0.302885  0  0.912284  0  0  0.278417  0  0.983087  0  0  0.286861  0  0.975873  0  0  0.320691  0.27256  0  0.988192  0
H  H19  1  0.90133041  0.09993992  0.69063968  1  0  0.302856  0  0.912514  0  0  0.278407  0  0.983293  0  0  0.28684  0  0.976074  0  0  0.320691  0.27255  0  0.988392  0
H  H20  1  0.49082088  0.06740475  0.85816627  1  0  0.418235  0  0.890526  0  0  0.386539  0  0.956296  0  0  0.397746  0  0.940122  0  0  0.281842  0.378439  0  0.967978  0
H  H21  1  0.00917581  0.56739838  0.64182990  1  0  0.418333  0  0.890387  0  0  0.386612  0  0.956208  0  0  0.39782  0  0.940033  0  0  0.281871  0.378515  0  0.967888  0
H  H22  1  0.50917826  0.93259659  0.14183463  1  0  0.41832  0  0.890407  0  0  0.38659  0  0.956244  0  0  0.397798  0  0.940067  0  0  0.281867  0.378492  0  0.967925  0
H  H23  1  0.99082482  0.43260392  0.35817127  1  0  0.418436  0  0.89028  0  0  0.38672  0  0.95614  0  0  0.397929  0  0.939961  0  0  0.28192  0.378623  0  0.967823  0
C  C24  1  0.01341849  0.35744830  0.78899618  1  0  0.664268  0  3.897307  0  0  0.60677  0  4.199572  0  0  0.642498  0  4.189495  0  0  0.215823  0.582302  0  4.205982  0
C  C25  1  0.48658976  0.85745529  0.71100664  1  0  0.664497  0  3.897169  0  0  0.60695  0  4.199485  0  0  0.64268  0  4.189407  0  0  0.215902  0.582496  0  4.205902  0
C  C26  1  0.98658373  0.64255013  0.21100244  1  0  0.664445  0  3.896988  0  0  0.606907  0  4.19932  0  0  0.642636  0  4.189247  0  0  0.215867  0.582446  0  4.205734  0
C  C27  1  0.51340939  0.14254411  0.28899426  1  0  0.664444  0  3.89725  0  0  0.606882  0  4.199561  0  0  0.642605  0  4.189493  0  0  0.215818  0.582421  0  4.205971  0
C  C28  1  0.14312387  0.42618565  0.90320435  1  0  0.025281  0  3.791931  0  0  0.02368  0  4.049692  0  0  0.023019  0  4.070035  0  0  0.078918  0.024132  0  4.035725  0
C  C29  1  0.35688097  0.92618291  0.59679518  1  0  0.025223  0  3.791927  0  0  0.023684  0  4.049633  0  0  0.023025  0  4.069977  0  0  0.078927  0.024095  0  4.035728  0
C  C30  1  0.85687527  0.57381471  0.09679655  1  0  0.025232  0  3.791913  0  0  0.023621  0  4.049709  0  0  0.022957  0  4.070054  0  0  0.078892  0.024057  0  4.035771  0
C  C31  1  0.64311366  0.07381649  0.40320584  1  0  0.025067  0  3.791944  0  0  0.023583  0  4.04959  0  0  0.022921  0  4.069941  0  0  0.078899  0.024026  0  4.035636  0
C  C32  1  0.19866000  0.55718750  0.92550371  1  0  -0.187049  0  3.692448  0  0  -0.21614  0  3.960948  0  0  -0.22215  0  3.980716  0  0  -0.106277  -0.212232  0  3.947045  0
C  C33  1  0.30134851  0.05718428  0.57449458  1  0  -0.187063  0  3.692401  0  0  -0.216172  0  3.960822  0  0  -0.222197  0  3.980614  0  0  -0.106261  -0.212247  0  3.946919  0
C  C34  1  0.80134366  0.44281190  0.07449706  1  0  -0.187086  0  3.692511  0  0  -0.216155  0  3.961004  0  0  -0.222163  0  3.980776  0  0  -0.106313  -0.212241  0  3.947098  0
C  C35  1  0.69864469  0.94281222  0.42550429  1  0  -0.186989  0  3.692206  0  0  -0.216093  0  3.960614  0  0  -0.222113  0  3.980394  0  0  -0.106267  -0.212181  0  3.946714  0
C  C36  1  0.31628306  0.56154280  0.05430831  1  0  0.060864  0  3.638795  0  0  0.009602  0  3.916398  0  0  0.016268  0  3.931126  0  0  0.022118  0.005577  0  3.906324  0
C  C37  1  0.18371914  0.06153911  0.44568471  1  0  0.060832  0  3.638573  0  0  0.00961  0  3.916187  0  0  0.016257  0  3.930897  0  0  0.022105  0.005597  0  3.906105  0
C  C38  1  0.68371910  0.43845853  0.94569220  1  0  0.060911  0  3.638716  0  0  0.009654  0  3.916315  0  0  0.016319  0  3.931035  0  0  0.02215  0.00564  0  3.906234  0
C  C39  1  0.81627856  0.93845738  0.55431403  1  0  0.060828  0  3.638507  0  0  0.009602  0  3.916132  0  0  0.016273  0  3.930855  0  0  0.022109  0.005585  0  3.906059  0
N  N40  1  0.22295852  0.35651855  0.01228242  1  0  -0.263655  0  3.201658  0  0  -0.212459  0  3.475233  0  0  -0.226418  0  3.495014  0  0  -0.252116  -0.201653  0  3.4606  0
N  N41  1  0.27705084  0.85651656  0.48771552  1  0  -0.263547  0  3.201383  0  0  -0.212348  0  3.474936  0  0  -0.226316  0  3.494722  0  0  -0.252029  -0.201529  0  3.460317  0
N  N42  1  0.77704364  0.64348182  0.98771808  1  0  -0.263666  0  3.201738  0  0  -0.212456  0  3.475302  0  0  -0.226417  0  3.495088  0  0  -0.2521  -0.201648  0  3.460676  0
N  N43  1  0.72294678  0.14348187  0.51228606  1  0  -0.263453  0  3.201397  0  0  -0.2123  0  3.474952  0  0  -0.226262  0  3.494734  0  0  -0.252047  -0.201492  0  3.460323  0
N  N44  1  0.32568533  0.43915415  0.10153552  1  0  -0.12062  0  3.507798  0  0  -0.061193  0  3.744998  0  0  -0.072158  0  3.764631  0  0  -0.263854  -0.054231  0  3.731566  0
N  N45  1  0.17431930  0.93914748  0.39845987  1  0  -0.120693  0  3.507689  0  0  -0.06135  0  3.744945  0  0  -0.072315  0  3.764577  0  0  -0.264028  -0.054385  0  3.731507  0
N  N46  1  0.67431682  0.56084718  0.89846499  1  0  -0.12061  0  3.507758  0  0  -0.061185  0  3.744889  0  0  -0.072159  0  3.764527  0  0  -0.263862  -0.054214  0  3.731448  0
N  N47  1  0.82567990  0.06084998  0.60153914  1  0  -0.120738  0  3.507741  0  0  -0.061351  0  3.744963  0  0  -0.072311  0  3.764587  0  0  -0.263949  -0.054382  0  3.731522  0
Cl  Cl48  1  0.10518883  0.90895009  0.89077091  1  0  -0.565972  0  0.965505  0  0  -0.488982  0  1.238904  0  0  -0.509308  0  1.214328  0  0  -0.259351  -0.474221  0  1.255337  0
Cl  Cl49  1  0.39481869  0.40895327  0.60923096  1  0  -0.566015  0  0.965549  0  0  -0.489006  0  1.238936  0  0  -0.509336  0  1.214364  0  0  -0.259368  -0.474243  0  1.255369  0
Cl  Cl50  1  0.89481040  0.09105124  0.10922716  1  0  -0.565981  0  0.965525  0  0  -0.488996  0  1.238925  0  0  -0.509321  0  1.214354  0  0  -0.259368  -0.474239  0  1.255363  0
Cl  Cl51  1  0.60517609  0.59104613  0.39076535  1  0  -0.566008  0  0.965541  0  0  -0.489011  0  1.238946  0  0  -0.509341  0  1.21437  0  0  -0.259367  -0.474244  0  1.255379  0
O  O52  1  0.47214197  0.14639988  0.90866434  1  0  -0.815174  0  1.883742  0  0  -0.757394  0  2.077972  0  0  -0.7791  0  2.046556  0  0  -0.589413  -0.742154  0  2.10053  0
O  O53  1  0.02785719  0.64639637  0.59133818  1  0  -0.815327  0  1.88354  0  0  -0.757542  0  2.077764  0  0  -0.779249  0  2.04633  0  0  -0.589463  -0.742311  0  2.100331  0
O  O54  1  0.52785858  0.85359951  0.09133967  1  0  -0.815277  0  1.883603  0  0  -0.757495  0  2.077827  0  0  -0.779193  0  2.046393  0  0  -0.589466  -0.742261  0  2.100391  0
O  O55  1  0.97214509  0.35360206  0.40865855  1  0  -0.815396  0  1.883505  0  0  -0.757648  0  2.07761  0  0  -0.779358  0  2.046176  0  0  -0.589509  -0.742416  0  2.100171  0
O  O56  1  0.99125779  0.23595158  0.79821399  1  0  -0.626731  0  2.008803  0  0  -0.565307  0  2.255199  0  0  -0.592142  0  2.243598  0  0  -0.315283  -0.546713  0  2.262834  0
O  O57  1  0.50875640  0.73595507  0.70179377  1  0  -0.62695  0  2.008584  0  0  -0.565502  0  2.25501  0  0  -0.592355  0  2.243433  0  0  -0.31541  -0.546908  0  2.26265  0
O  O58  1  0.00874894  0.76404685  0.20178449  1  0  -0.626838  0  2.008581  0  0  -0.565396  0  2.254999  0  0  -0.592235  0  2.243396  0  0  -0.315342  -0.5468  0  2.262638  0
O  O59  1  0.49124567  0.26404626  0.29820956  1  0  -0.626948  0  2.008526  0  0  -0.565494  0  2.254948  0  0  -0.592314  0  2.243315  0  0  -0.315402  -0.546901  0  2.262587  0
O  O60  1  0.92888300  0.42603254  0.68885462  1  0  -0.654363  0  2.09694  0  0  -0.578469  0  2.348798  0  0  -0.608154  0  2.33625  0  0  -0.320558  -0.557465  0  2.356798  0
O  O61  1  0.57112537  0.92603958  0.81113929  1  0  -0.654303  0  2.097102  0  0  -0.578431  0  2.348984  0  0  -0.608107  0  2.336419  0  0  -0.320492  -0.557424  0  2.356982  0
O  O62  1  0.07111921  0.57396880  0.31114400  1  0  -0.654418  0  2.09686  0  0  -0.578512  0  2.348781  0  0  -0.608187  0  2.336206  0  0  -0.320535  -0.557507  0  2.356783  0
O  O63  1  0.42887679  0.07396368  0.18886121  1  0  -0.6543  0  2.097275  0  0  -0.578369  0  2.349101  0  0  -0.608066  0  2.336579  0  0  -0.320437  -0.557369  0  2.357104  0
