# generated using pymatgen
data_CdH8C6(BrN2)2
_symmetry_space_group_name_H-M   'P 1'
_cell_length_a   8.34778696
_cell_length_b   9.05971291
_cell_length_c   13.75971969
_cell_angle_alpha   89.99954036
_cell_angle_beta   90.00007124
_cell_angle_gamma   93.17418100
_symmetry_Int_Tables_number   1
_chemical_formula_structural   CdH8C6(BrN2)2
_chemical_formula_sum   'Cd4 H32 C24 Br8 N16'
_cell_volume   1039.03118066
_cell_formula_units_Z   4
loop_
 _symmetry_equiv_pos_site_id
 _symmetry_equiv_pos_as_xyz
  1  'x, y, z'
loop_
 _atom_site_type_symbol
 _atom_site_label
 _atom_site_symmetry_multiplicity
 _atom_site_fract_x
 _atom_site_fract_y
 _atom_site_fract_z
 _atom_site_occupancy
 _atom_site_hle17_bader_spin_density
 _atom_site_hle17_ddec_charge
 _atom_site_hle17_ddec_spin_density
 _atom_site_hle17_ddec_sum_bond_order
 _atom_site_hle17_magmom
 _atom_site_hse06_10hf_bader_spin_density
 _atom_site_hse06_10hf_ddec_charge
 _atom_site_hse06_10hf_ddec_spin_density
 _atom_site_hse06_10hf_ddec_sum_bond_order
 _atom_site_hse06_10hf_magmom
 _atom_site_hse06_bader_spin_density
 _atom_site_hse06_ddec_charge
 _atom_site_hse06_ddec_spin_density
 _atom_site_hse06_ddec_sum_bond_order
 _atom_site_hse06_magmom
 _atom_site_pbe_bader_spin_density
 _atom_site_pbe_cm5_charge
 _atom_site_pbe_ddec_charge
 _atom_site_pbe_ddec_spin_density
 _atom_site_pbe_ddec_sum_bond_order
 _atom_site_pbe_magmom
Cd  Cd0  1  0.74938571  0.49761442  0.00202880  1  0  0.91721  0  1.91034  0  0  0.749834  0  2.350197  0  0  0.798008  0  2.312418  0  0  0.585525  0.716123  0  2.375548  0
Cd  Cd1  1  0.75061747  0.00237551  0.50202650  1  0  0.917182  0  1.910375  0  0  0.749811  0  2.350213  0  0  0.797988  0  2.312432  0  0  0.585499  0.716103  0  2.375564  0
Cd  Cd2  1  0.25061738  0.50237673  0.99796967  1  0  0.917204  0  1.910336  0  0  0.749833  0  2.350142  0  0  0.798009  0  2.312364  0  0  0.585508  0.716122  0  2.375493  0
Cd  Cd3  1  0.24938360  0.99762118  0.49797343  1  0  0.917206  0  1.910376  0  0  0.749861  0  2.350183  0  0  0.798036  0  2.312402  0  0  0.585508  0.716151  0  2.375537  0
H  H4  1  0.86974332  0.72654844  0.81361381  1  0  0.092115  0  0.959317  0  0  0.100371  0  1.024893  0  0  0.102525  0  1.02286  0  0  0.123369  0.098714  0  1.02646  0
H  H5  1  0.63024031  0.77344343  0.31360414  1  0  0.092141  0  0.959362  0  0  0.100288  0  1.025042  0  0  0.102436  0  1.023007  0  0  0.123345  0.098628  0  1.026618  0
H  H6  1  0.13025341  0.27345492  0.18638757  1  0  0.092091  0  0.959311  0  0  0.100288  0  1.024971  0  0  0.102434  0  1.022941  0  0  0.12336  0.098638  0  1.026518  0
H  H7  1  0.36975118  0.22655332  0.68638852  1  0  0.092093  0  0.959315  0  0  0.100322  0  1.02493  0  0  0.102473  0  1.022895  0  0  0.12335  0.098665  0  1.026496  0
H  H8  1  0.71685237  0.39705056  0.60923183  1  0  0.111126  0  0.978493  0  0  0.11703  0  1.047144  0  0  0.120401  0  1.04469  0  0  0.10399  0.1145  0  1.049112  0
H  H9  1  0.78315275  0.10294691  0.10922682  1  0  0.111182  0  0.978396  0  0  0.11709  0  1.047055  0  0  0.120448  0  1.044613  0  0  0.104015  0.114561  0  1.049024  0
H  H10  1  0.28314668  0.60295167  0.39076955  1  0  0.111206  0  0.978461  0  0  0.117111  0  1.047112  0  0  0.120455  0  1.044683  0  0  0.104009  0.114581  0  1.04908  0
H  H11  1  0.21685836  0.89705635  0.89077093  1  0  0.11117  0  0.978433  0  0  0.117079  0  1.047088  0  0  0.120432  0  1.04465  0  0  0.103996  0.114549  0  1.049057  0
H  H12  1  0.64992880  0.29692610  0.79737908  1  0  0.102479  0  0.973977  0  0  0.109564  0  1.039893  0  0  0.111902  0  1.039362  0  0  0.105385  0.107859  0  1.040398  0
H  H13  1  0.85006683  0.20306696  0.29737866  1  0  0.102579  0  0.973965  0  0  0.109645  0  1.0399  0  0  0.111985  0  1.039366  0  0  0.105429  0.107939  0  1.040406  0
H  H14  1  0.35007040  0.70307834  0.20262521  1  0  0.102456  0  0.974004  0  0  0.109548  0  1.039916  0  0  0.111885  0  1.03939  0  0  0.10538  0.107844  0  1.04042  0
H  H15  1  0.14993895  0.79692860  0.70262635  1  0  0.102553  0  0.974005  0  0  0.109615  0  1.039938  0  0  0.111953  0  1.039411  0  0  0.105408  0.107911  0  1.040443  0
H  H16  1  0.95569471  0.61150678  0.20648405  1  0  0.099147  0  0.983676  0  0  0.105722  0  1.051328  0  0  0.107927  0  1.050997  0  0  0.102956  0.104089  0  1.051721  0
H  H17  1  0.54430974  0.88849508  0.70648462  1  0  0.099172  0  0.983693  0  0  0.105718  0  1.051351  0  0  0.10792  0  1.051027  0  0  0.102977  0.104088  0  1.051748  0
H  H18  1  0.04430180  0.38849326  0.79350861  1  0  0.099236  0  0.983691  0  0  0.105834  0  1.051311  0  0  0.108041  0  1.050974  0  0  0.103015  0.104199  0  1.051705  0
H  H19  1  0.45569874  0.11150488  0.29351385  1  0  0.099223  0  0.983559  0  0  0.105773  0  1.05123  0  0  0.107978  0  1.050899  0  0  0.102988  0.104142  0  1.051627  0
H  H20  1  0.85143873  0.54427578  0.39487756  1  0  0.110911  0  0.975744  0  0  0.117052  0  1.043791  0  0  0.120585  0  1.041029  0  0  0.104605  0.114437  0  1.045939  0
H  H21  1  0.64856274  0.95572937  0.89487785  1  0  0.110921  0  0.975754  0  0  0.117065  0  1.043778  0  0  0.120599  0  1.041016  0  0  0.104606  0.114447  0  1.045924  0
H  H22  1  0.14855942  0.45573089  0.60511800  1  0  0.110904  0  0.975619  0  0  0.117051  0  1.043669  0  0  0.120585  0  1.040909  0  0  0.10461  0.114439  0  1.045818  0
H  H23  1  0.35143130  0.04426958  0.10512280  1  0  0.110937  0  0.9757  0  0  0.117072  0  1.043758  0  0  0.120606  0  1.040994  0  0  0.104637  0.114453  0  1.045909  0
H  H24  1  0.52076098  0.35291331  0.19008089  1  0  0.088381  0  0.969421  0  0  0.09609  0  1.036909  0  0  0.097962  0  1.03524  0  0  0.121477  0.094618  0  1.038237  0
H  H25  1  0.97924438  0.14708541  0.69007945  1  0  0.088347  0  0.969441  0  0  0.096053  0  1.036948  0  0  0.097921  0  1.035282  0  0  0.12147  0.094582  0  1.038273  0
H  H26  1  0.47923769  0.64708340  0.80991830  1  0  0.088303  0  0.969556  0  0  0.096035  0  1.03701  0  0  0.097901  0  1.035339  0  0  0.121482  0.094563  0  1.038333  0
H  H27  1  0.02075684  0.85291350  0.30992193  1  0  0.088332  0  0.969475  0  0  0.096043  0  1.036978  0  0  0.097906  0  1.035309  0  0  0.121452  0.094573  0  1.038301  0
H  H28  1  0.85085978  0.65681800  0.63312267  1  0  0.286902  0  0.931844  0  0  0.268917  0  0.998209  0  0  0.277101  0  0.99145  0  0  0.284327  0.263048  0  1.003194  0
H  H29  1  0.64913701  0.84317927  0.13311554  1  0  0.286894  0  0.931742  0  0  0.268867  0  0.998134  0  0  0.277052  0  0.991375  0  0  0.284302  0.262995  0  1.003125  0
H  H30  1  0.14913935  0.34318534  0.36687944  1  0  0.286923  0  0.93176  0  0  0.268975  0  0.998089  0  0  0.277161  0  0.991328  0  0  0.28436  0.263105  0  1.003079  0
H  H31  1  0.35086316  0.15682185  0.86688002  1  0  0.286985  0  0.931682  0  0  0.268965  0  0.998078  0  0  0.27715  0  0.991317  0  0  0.284346  0.263089  0  1.00307  0
H  H32  1  0.59291063  0.38154299  0.37090938  1  0  0.28711  0  0.929704  0  0  0.26957  0  0.995051  0  0  0.277927  0  0.987968  0  0  0.284771  0.263607  0  1.000205  0
H  H33  1  0.90709422  0.11846018  0.87090804  1  0  0.287206  0  0.929553  0  0  0.269662  0  0.994934  0  0  0.278021  0  0.987838  0  0  0.284777  0.263697  0  1.000093  0
H  H34  1  0.40708849  0.61846035  0.62908909  1  0  0.287084  0  0.929693  0  0  0.269561  0  0.995016  0  0  0.27792  0  0.987924  0  0  0.284753  0.2636  0  1.000164  0
H  H35  1  0.09290962  0.88154202  0.12909552  1  0  0.287211  0  0.929594  0  0  0.269672  0  0.994955  0  0  0.27803  0  0.987865  0  0  0.284774  0.263707  0  1.000114  0
C  C36  1  0.81715268  0.62382010  0.78456624  1  0  0.205204  0  3.691924  0  0  0.147223  0  3.958374  0  0  0.161425  0  3.972398  0  0  0.132625  0.138071  0  3.948543  0
C  C37  1  0.68283009  0.87617765  0.28456259  1  0  0.205104  0  3.692274  0  0  0.147162  0  3.958706  0  0  0.161378  0  3.972715  0  0  0.13259  0.138009  0  3.948872  0
C  C38  1  0.18284300  0.37618547  0.21543442  1  0  0.205257  0  3.691856  0  0  0.147352  0  3.958331  0  0  0.161565  0  3.972347  0  0  0.132656  0.138203  0  3.948503  0
C  C39  1  0.31716275  0.12382131  0.71543588  1  0  0.205228  0  3.69209  0  0  0.147237  0  3.958501  0  0  0.161445  0  3.972521  0  0  0.132629  0.138087  0  3.948665  0
C  C40  1  0.73795112  0.44944147  0.67926947  1  0  -0.008682  0  3.676282  0  0  -0.0439  0  3.935307  0  0  -0.042044  0  3.953056  0  0  -0.004691  -0.045056  0  3.923414  0
C  C41  1  0.76204833  0.05055852  0.17926689  1  0  -0.008707  0  3.676118  0  0  -0.043981  0  3.93508  0  0  -0.042126  0  3.95287  0  0  -0.004727  -0.045137  0  3.92319  0
C  C42  1  0.26204801  0.55056188  0.32073264  1  0  -0.008847  0  3.676292  0  0  -0.044028  0  3.935334  0  0  -0.042152  0  3.953113  0  0  -0.004727  -0.045183  0  3.923441  0
C  C43  1  0.23795798  0.94944477  0.82073449  1  0  -0.008633  0  3.676167  0  0  -0.043902  0  3.935131  0  0  -0.042034  0  3.952907  0  0  -0.00464  -0.045056  0  3.923239  0
C  C44  1  0.70617339  0.40063068  0.77228093  1  0  -0.016527  0  3.753721  0  0  -0.050803  0  4.021489  0  0  -0.049202  0  4.042438  0  0  -0.016909  -0.051902  0  4.007414  0
C  C45  1  0.79382213  0.09936158  0.27227957  1  0  -0.016625  0  3.753814  0  0  -0.050895  0  4.021616  0  0  -0.049297  0  4.042557  0  0  -0.016938  -0.051995  0  4.007548  0
C  C46  1  0.29382686  0.59937154  0.22772045  1  0  -0.016431  0  3.75378  0  0  -0.050708  0  4.021507  0  0  -0.049108  0  4.042452  0  0  -0.016859  -0.051807  0  4.007435  0
C  C47  1  0.20618141  0.90063620  0.72772399  1  0  -0.016624  0  3.753783  0  0  -0.050871  0  4.021558  0  0  -0.049271  0  4.042501  0  0  -0.016945  -0.05197  0  4.007487  0
C  C48  1  0.84995171  0.54789738  0.23162350  1  0  -0.011456  0  3.749201  0  0  -0.045804  0  4.016089  0  0  -0.044084  0  4.037694  0  0  -0.016564  -0.046962  0  4.001532  0
C  C49  1  0.65004932  0.95210642  0.73162236  1  0  -0.011436  0  3.749229  0  0  -0.045737  0  4.016106  0  0  -0.044016  0  4.037709  0  0  -0.016552  -0.046903  0  4.001556  0
C  C50  1  0.15004449  0.45209824  0.76837352  1  0  -0.011493  0  3.74938  0  0  -0.045881  0  4.016276  0  0  -0.044162  0  4.037883  0  0  -0.016632  -0.047038  0  4.001721  0
C  C51  1  0.34995152  0.04788696  0.26837902  1  0  -0.011595  0  3.749683  0  0  -0.045931  0  4.016597  0  0  -0.044209  0  4.038198  0  0  -0.016655  -0.047093  0  4.002044  0
C  C52  1  0.79996022  0.51483805  0.32470177  1  0  -0.016173  0  3.690073  0  0  -0.052442  0  3.953286  0  0  -0.050638  0  3.9704  0  0  -0.007118  -0.053623  0  3.941887  0
C  C53  1  0.70004101  0.98516573  0.82470049  1  0  -0.01618  0  3.690054  0  0  -0.052424  0  3.953248  0  0  -0.050623  0  3.970365  0  0  -0.007119  -0.053598  0  3.941844  0
C  C54  1  0.20003524  0.48516421  0.67529815  1  0  -0.016174  0  3.689834  0  0  -0.052431  0  3.953069  0  0  -0.050631  0  3.970187  0  0  -0.007122  -0.053617  0  3.941675  0
C  C55  1  0.29996223  0.01482763  0.17530815  1  0  -0.016095  0  3.690471  0  0  -0.052324  0  3.953639  0  0  -0.050522  0  3.970758  0  0  -0.00709  -0.053498  0  3.942239  0
C  C56  1  0.62426903  0.41530827  0.21940404  1  0  0.213957  0  3.682712  0  0  0.156133  0  3.947652  0  0  0.170485  0  3.962405  0  0  0.13387  0.146871  0  3.937329  0
C  C57  1  0.87573428  0.08469453  0.71940212  1  0  0.214153  0  3.682736  0  0  0.156334  0  3.947679  0  0  0.170687  0  3.962428  0  0  0.133987  0.147073  0  3.937356  0
C  C58  1  0.37572987  0.58469175  0.78059807  1  0  0.214148  0  3.683128  0  0  0.156299  0  3.94807  0  0  0.170661  0  3.962813  0  0  0.133937  0.147037  0  3.937747  0
C  C59  1  0.12426327  0.91530329  0.28060071  1  0  0.214117  0  3.682858  0  0  0.156291  0  3.947806  0  0  0.170655  0  3.962544  0  0  0.133973  0.147028  0  3.937487  0
Br  Br60  1  0.51024005  0.72134246  0.00771500  1  0  -0.555231  0  0.980175  0  0  -0.501819  0  1.274749  0  0  -0.519802  0  1.252869  0  0  -0.264542  -0.488795  0  1.289653  0
Br  Br61  1  0.98976129  0.77865518  0.50771868  1  0  -0.555202  0  0.98019  0  0  -0.501781  0  1.274738  0  0  -0.519762  0  1.252861  0  0  -0.264524  -0.48876  0  1.289642  0
Br  Br62  1  0.48976379  0.27865975  0.99227838  1  0  -0.555211  0  0.980214  0  0  -0.501783  0  1.274801  0  0  -0.519765  0  1.252919  0  0  -0.264506  -0.488756  0  1.289705  0
Br  Br63  1  0.01023761  0.22134484  0.49227907  1  0  -0.555198  0  0.980169  0  0  -0.501786  0  1.274716  0  0  -0.519769  0  1.252841  0  0  -0.264526  -0.488764  0  1.289622  0
Br  Br64  1  0.99480436  0.27934150  0.99393631  1  0  -0.549051  0  0.960917  0  0  -0.49415  0  1.247765  0  0  -0.51155  0  1.2252  0  0  -0.268493  -0.481539  0  1.263112  0
Br  Br65  1  0.50519288  0.22065140  0.49393263  1  0  -0.54904  0  0.960963  0  0  -0.494143  0  1.247783  0  0  -0.511545  0  1.225224  0  0  -0.268502  -0.481531  0  1.26313  0
Br  Br66  1  0.00519387  0.72064857  0.00606507  1  0  -0.549059  0  0.960927  0  0  -0.494151  0  1.247757  0  0  -0.511553  0  1.22519  0  0  -0.268503  -0.481538  0  1.263105  0
Br  Br67  1  0.49480715  0.77934751  0.50606366  1  0  -0.549027  0  0.960968  0  0  -0.494137  0  1.247782  0  0  -0.511536  0  1.225215  0  0  -0.268498  -0.481526  0  1.263129  0
N  N68  1  0.75648171  0.51026817  0.83713299  1  0  -0.404483  0  3.331907  0  0  -0.319982  0  3.604824  0  0  -0.343575  0  3.626102  0  0  -0.370524  -0.303806  0  3.589656  0
N  N69  1  0.74350322  0.98972452  0.33713243  1  0  -0.404412  0  3.332264  0  0  -0.31988  0  3.605095  0  0  -0.343478  0  3.626383  0  0  -0.370437  -0.303697  0  3.589911  0
N  N70  1  0.24351756  0.48973739  0.16286766  1  0  -0.404577  0  3.332158  0  0  -0.320055  0  3.605032  0  0  -0.343643  0  3.626296  0  0  -0.370557  -0.303879  0  3.589862  0
N  N71  1  0.25649059  0.01027112  0.66286750  1  0  -0.404547  0  3.332192  0  0  -0.320068  0  3.605118  0  0  -0.343659  0  3.626386  0  0  -0.370554  -0.30389  0  3.589942  0
N  N72  1  0.80594426  0.59080729  0.68891539  1  0  -0.27696  0  3.493889  0  0  -0.207515  0  3.720622  0  0  -0.22397  0  3.736586  0  0  -0.381703  -0.196457  0  3.709698  0
N  N73  1  0.69405036  0.90919153  0.18891231  1  0  -0.277002  0  3.493712  0  0  -0.20738  0  3.72026  0  0  -0.223839  0  3.736215  0  0  -0.381705  -0.196322  0  3.709338  0
N  N74  1  0.19405734  0.40919714  0.31108672  1  0  -0.276919  0  3.493743  0  0  -0.207587  0  3.720572  0  0  -0.224046  0  3.736525  0  0  -0.381753  -0.19653  0  3.709649  0
N  N75  1  0.30594861  0.09080960  0.81108762  1  0  -0.277055  0  3.493756  0  0  -0.207485  0  3.720353  0  0  -0.223942  0  3.736308  0  0  -0.381716  -0.196423  0  3.70943  0
N  N76  1  0.73940719  0.48504758  0.16675675  1  0  -0.394499  0  3.295598  0  0  -0.307882  0  3.56362  0  0  -0.331651  0  3.585145  0  0  -0.368822  -0.291676  0  3.548479  0
N  N77  1  0.76059598  0.01495475  0.66675657  1  0  -0.394562  0  3.295622  0  0  -0.307962  0  3.563654  0  0  -0.331737  0  3.58519  0  0  -0.368857  -0.291753  0  3.548505  0
N  N78  1  0.26059276  0.51495023  0.83323736  1  0  -0.394465  0  3.295949  0  0  -0.307816  0  3.563941  0  0  -0.33159  0  3.585477  0  0  -0.368746  -0.291604  0  3.548787  0
N  N79  1  0.23940853  0.98503971  0.33324481  1  0  -0.394488  0  3.295755  0  0  -0.307873  0  3.563777  0  0  -0.331648  0  3.58531  0  0  -0.368762  -0.291662  0  3.548631  0
N  N80  1  0.65706075  0.43233528  0.31502514  1  0  -0.281494  0  3.501138  0  0  -0.21324  0  3.730159  0  0  -0.229759  0  3.745721  0  0  -0.383543  -0.202161  0  3.719538  0
N  N81  1  0.84294403  0.06766857  0.81502256  1  0  -0.281717  0  3.501215  0  0  -0.213501  0  3.730283  0  0  -0.230015  0  3.745844  0  0  -0.38365  -0.202421  0  3.71966  0
N  N82  1  0.34294196  0.56766803  0.68497769  1  0  -0.281665  0  3.501184  0  0  -0.213435  0  3.730254  0  0  -0.229951  0  3.745815  0  0  -0.383647  -0.202354  0  3.719632  0
N  N83  1  0.15705502  0.93233367  0.18498027  1  0  -0.281751  0  3.501498  0  0  -0.213545  0  3.73056  0  0  -0.23006  0  3.746116  0  0  -0.383671  -0.202463  0  3.719937  0
