# generated using pymatgen
data_Hf3H16C20(N3O8)2
_symmetry_space_group_name_H-M   'P 1'
_cell_length_a   15.82393381
_cell_length_b   15.83862576
_cell_length_c   34.30460075
_cell_angle_alpha   89.70155387
_cell_angle_beta   90.07818884
_cell_angle_gamma   89.84166673
_symmetry_Int_Tables_number   1
_chemical_formula_structural   Hf3H16C20(N3O8)2
_chemical_formula_sum   'Hf12 H64 C80 N24 O64'
_cell_volume   8597.58268138
_cell_formula_units_Z   4
loop_
 _symmetry_equiv_pos_site_id
 _symmetry_equiv_pos_as_xyz
  1  'x, y, z'
loop_
 _atom_site_type_symbol
 _atom_site_label
 _atom_site_symmetry_multiplicity
 _atom_site_fract_x
 _atom_site_fract_y
 _atom_site_fract_z
 _atom_site_occupancy
 _atom_site_pbe_bader_charge
 _atom_site_pbe_bader_spin_density
 _atom_site_pbe_cm5_charge
 _atom_site_pbe_ddec_charge
 _atom_site_pbe_ddec_spin_density
 _atom_site_pbe_ddec_sum_bond_order
 _atom_site_pbe_magmom
Hf  Hf0  1  0.90422570  0.94636754  0.45289768  1  2.600103  0  1.448171  2.12029  0  3.409434  0
Hf  Hf1  1  0.91190002  0.95009115  0.55491001  1  2.610806  0  1.461489  2.146876  0  3.355185  0
Hf  Hf2  1  0.06041178  0.10004934  0.44728676  1  2.594411  0  1.434355  2.113948  0  3.462911  0
Hf  Hf3  1  0.06657735  0.10898950  0.55074274  1  2.602173  0  1.436386  2.128021  0  3.422856  0
Hf  Hf4  1  0.87442430  0.13809013  0.50099437  1  2.580721  0  1.468013  2.122595  0  3.287501  0
Hf  Hf5  1  0.09740602  0.91429984  0.50115070  1  2.62143  0  1.47726  2.123011  0  3.304839  0
Hf  Hf6  1  0.41240270  0.60091725  0.95219443  1  2.600784  0  1.451341  2.125266  0  3.395906  0
Hf  Hf7  1  0.41850502  0.59474085  0.05435080  1  2.616067  0  1.464182  2.155396  0  3.334763  0
Hf  Hf8  1  0.56704654  0.44242111  0.94549490  1  2.600817  0  1.439976  2.129015  0  3.429477  0
Hf  Hf9  1  0.57552481  0.43852518  0.04902832  1  2.609344  0  1.455735  2.137428  0  3.361417  0
Hf  Hf10  1  0.60468325  0.62999055  0.99986591  1  2.620558  0  1.469933  2.121834  0  3.289289  0
Hf  Hf11  1  0.38147246  0.40912374  0.00081471  1  2.61816  0  1.478108  2.123131  0  3.300177  0
H  H12  1  0.94246101  0.81345642  0.50160262  1  0.587553  0  0.340987  0.427405  0  0.834686  0
H  H13  1  0.90038762  0.11594278  0.58248470  1  0.603058  0  0.3373  0.419141  0  0.853132  0
H  H14  1  0.19563663  0.07981122  0.50135459  1  0.630698  0  0.332942  0.42647  0  0.846874  0
H  H15  1  0.90490108  0.10736738  0.41556275  1  0.622738  0  0.337073  0.432884  0  0.838134  0
H  H16  1  0.88000474  0.98550352  0.63070994  1  0.589977  0  0.303085  0.388523  0  0.911312  0
H  H17  1  0.99652588  0.03604877  0.61818697  1  0.637545  0  0.28652  0.399797  0  0.942241  0
H  H18  1  0.15752225  0.24675147  0.55265882  1  0.603414  0  0.292741  0.393425  0  0.908467  0
H  H19  1  0.20641378  0.17719483  0.42425848  1  0.630683  0  0.338419  0.414695  0  0.867264  0
H  H20  1  0.07912286  0.07083273  0.37216748  1  0.590759  0  0.28918  0.390457  0  0.912234  0
H  H21  1  0.84030309  0.94861798  0.37605020  1  0.635127  0  0.342189  0.419326  0  0.858524  0
H  H22  1  0.76050307  0.85980871  0.45346586  1  0.58499  0  0.296853  0.383528  0  0.921789  0
H  H23  1  0.80618220  0.84932548  0.50883966  1  0.637325  0  0.285606  0.400056  0  0.943023  0
H  H24  1  0.13708013  0.24656259  0.43409783  1  0.646291  0  0.333071  0.414982  0  0.881457  0
H  H25  1  0.92140235  0.88901483  0.37974535  1  0.665799  0  0.333666  0.415842  0  0.884182  0
H  H26  1  0.75751146  0.87583352  0.54916263  1  0.650908  0  0.326304  0.406145  0  0.879771  0
H  H27  1  0.09544002  0.05873454  0.62473053  1  0.619859  0  0.328969  0.412644  0  0.873094  0
H  H28  1  0.28119163  0.56158892  0.00068799  1  0.597556  0  0.335458  0.414765  0  0.857683  0
H  H29  1  0.58522900  0.60248315  0.08163717  1  0.614145  0  0.33837  0.420051  0  0.851953  0
H  H30  1  0.53353731  0.30741600  0.99975139  1  0.616795  0  0.339291  0.423388  0  0.840636  0
H  H31  1  0.57204521  0.60187158  0.91481018  1  0.610571  0  0.337343  0.431742  0  0.838511  0
H  H32  1  0.45441177  0.62035551  0.13031674  1  0.607576  0  0.303947  0.388628  0  0.911194  0
H  H33  1  0.50425453  0.50656568  0.11696022  1  0.638937  0  0.284583  0.401205  0  0.942455  0
H  H34  1  0.71847025  0.35053915  0.04651070  1  0.592815  0  0.300974  0.387853  0  0.914494  0
H  H35  1  0.67084055  0.34036891  0.99155329  1  0.628329  0  0.284663  0.400117  0  0.943946  0
H  H36  1  0.53846116  0.42123815  0.87085496  1  0.592175  0  0.293024  0.392981  0  0.908385  0
H  H37  1  0.41303742  0.66867614  0.87623321  1  0.628851  0  0.342714  0.419932  0  0.859495  0
H  H38  1  0.32593230  0.74526151  0.95453765  1  0.606848  0  0.299325  0.387649  0  0.91562  0
H  H39  1  0.31548489  0.69914390  0.00819221  1  0.624488  0  0.283969  0.401471  0  0.942447  0
H  H40  1  0.71776946  0.36474078  0.95032251  1  0.62091  0  0.327328  0.407889  0  0.878605  0
H  H41  1  0.35345251  0.58768489  0.87826446  1  0.649156  0  0.336769  0.41898  0  0.876363  0
H  H42  1  0.26608561  0.68501415  0.05013115  1  0.613048  0  0.329411  0.404908  0  0.873779  0
H  H43  1  0.52875218  0.40755403  0.12389522  1  0.61638  0  0.326174  0.408465  0  0.878489  0
H  H44  1  0.40613501  0.14531482  0.93504093  1  0.10029  0  0.117527  0.136849  0  0.976504  0
H  H45  1  0.51066731  0.22978301  0.86961261  1  0.15117  0  0.121987  0.13431  0  0.973201  0
H  H46  1  0.56080870  0.90622982  0.93940305  1  0.127662  0  0.122598  0.145551  0  0.967157  0
H  H47  1  0.46438910  0.81906895  0.87240763  1  0.097277  0  0.109202  0.110546  0  0.998802  0
H  H48  1  0.87823441  0.58914740  0.06239807  1  0.110803  0  0.117781  0.138082  0  0.976353  0
H  H49  1  0.78906173  0.49005251  0.12838065  1  0.138097  0  0.119792  0.133969  0  0.973159  0
H  H50  1  0.11666007  0.44127182  0.06700904  1  0.084548  0  0.117795  0.138888  0  0.975699  0
H  H51  1  0.20056810  0.54567797  0.13228506  1  0.124852  0  0.121542  0.136566  0  0.970558  0
H  H52  1  0.87584008  0.59781486  0.93804547  1  0.112787  0  0.117012  0.136944  0  0.976328  0
H  H53  1  0.78663032  0.49543705  0.87351109  1  0.117044  0  0.122778  0.139623  0  0.970739  0
H  H54  1  0.11423000  0.44452955  0.93551315  1  0.114949  0  0.118742  0.139835  0  0.974243  0
H  H55  1  0.19826423  0.54284147  0.86796010  1  0.095553  0  0.112429  0.115659  0  0.992072  0
H  H56  1  0.52300443  0.22325922  0.13068930  1  0.120814  0  0.117706  0.12704  0  0.980146  0
H  H57  1  0.41417580  0.14295211  0.06592741  1  0.118925  0  0.118591  0.138483  0  0.974048  0
H  H58  1  0.56851200  0.89873512  0.06285828  1  0.109414  0  0.11955  0.140031  0  0.972927  0
H  H59  1  0.46572958  0.81326350  0.12858411  1  0.10751  0  0.116575  0.126001  0  0.983237  0
H  H60  1  0.95987958  0.73316102  0.63130630  1  0.131666  0  0.123461  0.138067  0  0.968519  0
H  H61  1  0.06632485  0.64963131  0.56653834  1  0.077057  0  0.116751  0.136603  0  0.977588  0
H  H62  1  0.90764824  0.41003716  0.56287698  1  0.115919  0  0.117593  0.138319  0  0.97587  0
H  H63  1  0.01345970  0.32188923  0.62713183  1  0.125457  0  0.12132  0.135571  0  0.971693  0
H  H64  1  0.96814064  0.73322846  0.36762660  1  0.099633  0  0.112288  0.115874  0  0.991923  0
H  H65  1  0.06099176  0.64816143  0.43678950  1  0.117672  0  0.119863  0.140295  0  0.972836  0
H  H66  1  0.91026100  0.41209017  0.43983145  1  0.116782  0  0.120045  0.141242  0  0.971214  0
H  H67  1  0.00970300  0.32126168  0.37470998  1  0.132512  0  0.119114  0.133205  0  0.979076  0
H  H68  1  0.36181613  0.94144795  0.56614211  1  0.117278  0  0.11591  0.134356  0  0.978836  0
H  H69  1  0.27793119  0.04646756  0.63120197  1  0.116596  0  0.1197  0.130053  0  0.978667  0
H  H70  1  0.68927502  0.99573603  0.62920922  1  0.121483  0  0.115975  0.124964  0  0.983422  0
H  H71  1  0.60282114  0.09898670  0.56358531  1  0.100608  0  0.119865  0.14279  0  0.971796  0
H  H72  1  0.27698601  0.03923938  0.36727801  1  0.125008  0  0.11685  0.127503  0  0.981949  0
H  H73  1  0.36307427  0.94575706  0.43604006  1  0.117566  0  0.119466  0.139994  0  0.972666  0
H  H74  1  0.68913064  0.00120456  0.37248350  1  0.083208  0  0.109448  0.111571  0  0.99842  0
H  H75  1  0.59865398  0.09541044  0.43922394  1  0.131241  0  0.121469  0.143418  0  0.968892  0
C  C76  1  0.73521471  0.06129914  0.44084377  1  1.598315  0  0.236942  0.670053  0  4.102533  0
C  C77  1  0.02941721  0.78476780  0.56548716  1  1.550204  0  0.237893  0.66589  0  4.105414  0
C  C78  1  0.73861332  0.06255382  0.56257678  1  1.574669  0  0.23449  0.66566  0  4.10834  0
C  C79  1  0.02926074  0.78428050  0.43610588  1  1.55963  0  0.237292  0.669519  0  4.10389  0
C  C80  1  0.22672966  0.97916939  0.43559038  1  1.563001  0  0.236061  0.669103  0  4.110252  0
C  C81  1  0.94730791  0.27519152  0.56043502  1  1.564506  0  0.237194  0.6663  0  4.103271  0
C  C82  1  0.22632347  0.97749781  0.56542862  1  1.591332  0  0.236902  0.665441  0  4.113985  0
C  C83  1  0.94737459  0.27607981  0.44218232  1  1.56019  0  0.240544  0.67215  0  4.092696  0
C  C84  1  0.98556351  0.45537649  0.36870717  1  1.075359  0  0.256775  0.424732  0  4.020911  0
C  C85  1  0.98795869  0.52342427  0.31044183  1  1.137199  0  0.2664  0.442936  0  4.09822  0
C  C86  1  0.98950831  0.59853924  0.36643070  1  1.127175  0  0.255731  0.421275  0  4.024081  0
C  C87  1  0.41209161  0.01750930  0.36546412  1  1.026626  0  0.256306  0.423943  0  4.023017  0
C  C88  1  0.48740307  0.01723747  0.30934013  1  1.216179  0  0.266651  0.445261  0  4.095236  0
C  C89  1  0.55525738  0.02261100  0.36747411  1  1.071489  0  0.254217  0.42141  0  4.028229  0
C  C90  1  0.41214791  0.02023949  0.63464748  1  1.037347  0  0.25939  0.425145  0  4.014247  0
C  C91  1  0.48577840  0.02107199  0.69131848  1  1.291219  0  0.266567  0.443057  0  4.100366  0
C  C92  1  0.55549599  0.02182722  0.63376693  1  1.141353  0  0.255757  0.420598  0  4.024772  0
C  C93  1  0.98525297  0.45519884  0.63299733  1  1.073575  0  0.256724  0.423215  0  4.017375  0
C  C94  1  0.98622901  0.59851956  0.63460082  1  1.025298  0  0.25797  0.423069  0  4.019405  0
C  C95  1  0.98561137  0.52326839  0.69088811  1  1.246171  0  0.265668  0.439989  0  4.099006  0
C  C96  1  0.49269841  0.94658959  0.13309706  1  1.05318  0  0.257431  0.423741  0  4.01727  0
C  C97  1  0.49393020  0.08985993  0.13406205  1  1.040935  0  0.25802  0.422942  0  4.018669  0
C  C98  1  0.49257965  0.01583342  0.19068328  1  1.221046  0  0.265497  0.441362  0  4.101233  0
C  C99  1  0.52589766  0.77033324  0.94048726  1  1.578103  0  0.238392  0.673635  0  4.100574  0
C  C100  1  0.25141800  0.47921895  0.06548270  1  1.548745  0  0.235887  0.665522  0  4.108304  0
C  C101  1  0.53276668  0.76313643  0.06254120  1  1.559749  0  0.238658  0.67198  0  4.093748  0
C  C102  1  0.24991695  0.47769662  0.93589062  1  1.537726  0  0.237436  0.671537  0  4.096777  0
C  C103  1  0.44337253  0.28027621  0.93569093  1  1.565494  0  0.236345  0.665332  0  4.110346  0
C  C104  1  0.74303086  0.55182679  0.05983284  1  1.551329  0  0.236616  0.66557  0  4.103482  0
C  C105  1  0.45179699  0.27751596  0.06501028  1  1.573101  0  0.236321  0.666263  0  4.113151  0
C  C106  1  0.74045746  0.55903469  0.94048178  1  1.570249  0  0.237483  0.665176  0  4.108249  0
C  C107  1  0.92265449  0.51772686  0.13383673  1  1.086251  0  0.256444  0.422367  0  4.021156  0
C  C108  1  0.99153093  0.51947279  0.19175140  1  1.158843  0  0.266642  0.442785  0  4.095173  0
C  C109  1  0.06615677  0.51858105  0.13548109  1  1.122117  0  0.256003  0.42115  0  4.02206  0
C  C110  1  0.48798175  0.95255266  0.86785627  1  1.18716  0  0.255026  0.420418  0  4.029955  0
C  C111  1  0.48498925  0.09565849  0.86633536  1  1.13212  0  0.258554  0.422747  0  4.02149  0
C  C112  1  0.48690303  0.02185463  0.80996954  1  1.127093  0  0.26651  0.444464  0  4.095631  0
C  C113  1  0.92043147  0.52194809  0.86762786  1  1.049643  0  0.257499  0.42406  0  4.014231  0
C  C114  1  0.06378362  0.51965445  0.86588419  1  1.00766  0  0.255086  0.418921  0  4.02567  0
C  C115  1  0.98887274  0.52133670  0.80960837  1  1.200966  0  0.266956  0.445941  0  4.092771  0
C  C116  1  0.44094043  0.19373747  0.91908976  1  0.000852  0  -0.07112  -0.186169  0  3.85353  0
C  C117  1  0.48095356  0.17782228  0.88541738  1  -0.098102  0  -0.06095  -0.120744  0  3.908616  0
C  C118  1  0.52770844  0.85702285  0.92338321  1  0.004225  0  -0.069387  -0.184609  0  3.844095  0
C  C119  1  0.49137440  0.87165775  0.88858214  1  -0.116127  0  -0.069226  -0.128605  0  3.933546  0
C  C120  1  0.82870265  0.55492164  0.07784826  1  -0.011193  0  -0.070836  -0.184773  0  3.854582  0
C  C121  1  0.84203479  0.51857725  0.11282765  1  -0.054643  0  -0.066889  -0.132733  0  3.91227  0
C  C122  1  0.16501402  0.47670134  0.08258964  1  -0.051002  0  -0.073409  -0.191643  0  3.862344  0
C  C123  1  0.14880375  0.51613197  0.11635648  1  -0.002728  0  -0.065219  -0.128711  0  3.910224  0
C  C124  1  0.82663271  0.56253217  0.92297068  1  -0.053411  0  -0.071284  -0.184826  0  3.854131  0
C  C125  1  0.83995007  0.52442668  0.88858601  1  -0.015027  0  -0.065638  -0.13563  0  3.912442  0
C  C126  1  0.16324542  0.47720331  0.91902541  1  0.140895  0  -0.072366  -0.190919  0  3.855802  0
C  C127  1  0.14670837  0.51537459  0.88481090  1  -0.173725  0  -0.063781  -0.117312  0  3.919493  0
C  C128  1  0.49168890  0.17259551  0.11485846  1  -0.014948  0  -0.063589  -0.123101  0  3.914996  0
C  C129  1  0.45038397  0.19047861  0.08160407  1  -0.079833  0  -0.070008  -0.183982  0  3.85269  0
C  C130  1  0.53387694  0.85018940  0.07880606  1  0.018517  0  -0.068233  -0.181374  0  3.842362  0
C  C131  1  0.49510178  0.86553666  0.11286761  1  -0.025751  0  -0.0654  -0.12685  0  3.915955  0
C  C132  1  0.98684372  0.52136974  0.76798183  1  -0.012929  0  0.003203  -0.075009  0  3.929901  0
C  C133  1  0.98604341  0.52138496  0.73255432  1  -0.222737  0  0.007319  -0.063519  0  3.924528  0
C  C134  1  0.48698571  0.02074673  0.76836120  1  -0.03343  0  0.0045  -0.070518  0  3.930504  0
C  C135  1  0.48680584  0.02080947  0.73294383  1  -0.204435  0  0.005939  -0.067749  0  3.9297  0
C  C136  1  0.48983606  0.01548685  0.26774833  1  -0.000508  0  0.002426  -0.075314  0  3.932539  0
C  C137  1  0.49133519  0.01475515  0.23233584  1  -0.238128  0  0.006573  -0.064427  0  3.927171  0
C  C138  1  0.98963123  0.52042549  0.23338563  1  -0.040978  0  0.00515  -0.068518  0  3.929193  0
C  C139  1  0.98858803  0.52127159  0.26880539  1  -0.053848  0  0.004029  -0.070796  0  3.929023  0
C  C140  1  0.98981153  0.68136408  0.61557280  1  -0.005816  0  -0.060144  -0.120249  0  3.897442  0
C  C141  1  0.03083293  0.69790739  0.58215324  1  0.014438  0  -0.072298  -0.189883  0  3.857477  0
C  C142  1  0.94385630  0.36107001  0.57795360  1  -0.072122  0  -0.072331  -0.188837  0  3.852964  0
C  C143  1  0.98307680  0.37482909  0.61210809  1  -0.003603  0  -0.064012  -0.126988  0  3.907794  0
C  C144  1  0.99391273  0.68136396  0.38503051  1  -0.081978  0  -0.065632  -0.123287  0  3.923662  0
C  C145  1  0.03000500  0.69749515  0.41962629  1  0.018644  0  -0.069382  -0.183059  0  3.848421  0
C  C146  1  0.94461735  0.36238998  0.42461517  1  -0.014466  0  -0.068084  -0.18139  0  3.847205  0
C  C147  1  0.98207123  0.37508637  0.38993117  1  -0.045985  0  -0.069011  -0.141527  0  3.925125  0
C  C148  1  0.31324949  0.97595627  0.58205805  1  -0.139619  0  -0.070251  -0.183171  0  3.850698  0
C  C149  1  0.32973341  0.01654078  0.61545676  1  0.069271  0  -0.061642  -0.121243  0  3.912794  0
C  C150  1  0.63676125  0.02492641  0.61343662  1  -0.073092  0  -0.067022  -0.127125  0  3.92281  0
C  C151  1  0.65171201  0.06391845  0.57926694  1  -0.028162  0  -0.073994  -0.193352  0  3.857716  0
C  C152  1  0.32940369  0.01346907  0.38434010  1  0.07464  0  -0.069939  -0.138763  0  3.931903  0
C  C153  1  0.31380598  0.97742596  0.41911344  1  -0.135537  0  -0.069318  -0.180621  0  3.850144  0
C  C154  1  0.63563795  0.02742591  0.38843076  1  -0.00709  0  -0.070889  -0.132964  0  3.936469  0
C  C155  1  0.64884390  0.06325003  0.42331875  1  -0.105859  0  -0.06803  -0.179602  0  3.838893  0
N  N156  1  0.98877849  0.44902630  0.32947254  1  -1.155946  0  -0.304879  -0.404561  0  3.098077  0
N  N157  1  0.98684136  0.60015795  0.32710612  1  -1.180467  0  -0.309119  -0.41258  0  3.106092  0
N  N158  1  0.98734048  0.52834011  0.38870875  1  -1.164597  0  -0.304452  -0.408465  0  3.126515  0
N  N159  1  0.41063953  0.01841994  0.32612501  1  -1.124618  0  -0.305865  -0.406451  0  3.09883  0
N  N160  1  0.56188431  0.01770952  0.32830294  1  -1.126936  0  -0.308112  -0.411546  0  3.103753  0
N  N161  1  0.48235249  0.02127571  0.38762328  1  -1.146557  0  -0.306149  -0.410186  0  3.128244  0
N  N162  1  0.40963401  0.02361860  0.67394993  1  -1.128636  0  -0.304268  -0.405558  0  3.102924  0
N  N163  1  0.56086098  0.01867944  0.67302467  1  -1.205681  0  -0.306894  -0.408683  0  3.102798  0
N  N164  1  0.48324009  0.02088303  0.61303296  1  -1.145237  0  -0.304744  -0.408528  0  3.121801  0
N  N165  1  0.98577111  0.52818615  0.61266333  1  -1.170257  0  -0.305735  -0.411807  0  3.128091  0
N  N166  1  0.98284393  0.59993798  0.67389697  1  -1.116546  0  -0.304519  -0.405372  0  3.10206  0
N  N167  1  0.98836475  0.44883671  0.67226352  1  -1.152062  0  -0.305349  -0.406942  0  3.098293  0
N  N168  1  0.49332761  0.01913311  0.11242597  1  -1.164608  0  -0.303365  -0.406285  0  3.120101  0
N  N169  1  0.49721314  0.09202273  0.17337211  1  -1.092282  0  -0.305855  -0.407483  0  3.103597  0
N  N170  1  0.48875484  0.94112457  0.17237727  1  -1.155141  0  -0.306971  -0.410255  0  3.103837  0
N  N171  1  0.91684561  0.51549966  0.17309446  1  -1.190041  0  -0.306328  -0.407189  0  3.098095  0
N  N172  1  0.06802774  0.52266285  0.17476624  1  -1.175785  0  -0.30492  -0.4053  0  3.099136  0
N  N173  1  0.99549960  0.51771856  0.11353682  1  -1.13823  0  -0.306188  -0.4117  0  3.131576  0
N  N174  1  0.48623711  0.02480876  0.88827290  1  -1.186602  0  -0.304959  -0.407925  0  3.127675  0
N  N175  1  0.48845624  0.09804288  0.82704329  1  -1.143116  0  -0.303297  -0.40338  0  3.099222  0
N  N176  1  0.48515681  0.94693255  0.82861535  1  -1.190548  0  -0.308603  -0.412416  0  3.104585  0
N  N177  1  0.99346038  0.52052549  0.88792249  1  -1.141823  0  -0.306591  -0.411395  0  3.127104  0
N  N178  1  0.06559693  0.52323863  0.82659853  1  -1.118809  0  -0.30766  -0.411056  0  3.103959  0
N  N179  1  0.91437315  0.51932361  0.82838002  1  -1.089706  0  -0.302902  -0.401722  0  3.094697  0
O  O180  1  0.78033288  0.99725404  0.43125747  1  -1.202828  0  -0.351351  -0.633501  0  2.361476  0
O  O181  1  0.75728486  0.12051049  0.46338952  1  -1.160686  0  -0.319917  -0.557638  0  2.240805  0
O  O182  1  0.96851370  0.83188018  0.57614950  1  -1.165653  0  -0.338153  -0.573214  0  2.328315  0
O  O183  1  0.08718598  0.80474445  0.54104533  1  -1.172269  0  -0.341393  -0.582609  0  2.25705  0
O  O184  1  0.78436598  0.99915829  0.57261786  1  -1.208771  0  -0.345861  -0.628514  0  2.347209  0
O  O185  1  0.76075595  0.12280485  0.54014303  1  -1.174287  0  -0.327754  -0.564714  0  2.244095  0
O  O186  1  0.97100900  0.83408449  0.42384565  1  -1.201413  0  -0.337802  -0.61663  0  2.324324  0
O  O187  1  0.08379790  0.80152341  0.46215354  1  -1.153325  0  -0.325456  -0.562289  0  2.253675  0
O  O188  1  0.81553303  0.85052865  0.46534844  1  -1.227098  0  -0.647048  -0.904743  0  1.950177  0
O  O189  1  0.89870650  0.94561942  0.38497254  1  -1.249698  0  -0.560622  -0.736228  0  2.075816  0
O  O190  1  0.81098223  0.85373584  0.53946269  1  -1.284316  0  -0.593568  -0.783056  0  2.052816  0
O  O191  1  0.92835806  0.97036648  0.61484906  1  -1.234401  0  -0.642573  -0.893342  0  1.937547  0
O  O192  1  0.87233440  0.00844328  0.50225751  1  -1.193198  0  -0.760384  -1.072768  0  2.209719  0
O  O193  1  0.95681546  0.87300266  0.50164452  1  -1.217726  0  -0.649066  -0.950168  0  2.304369  0
O  O194  1  0.17992130  0.04023242  0.42402679  1  -1.19024  0  -0.339387  -0.615372  0  2.351081  0
O  O195  1  0.20646540  0.92239319  0.46017315  1  -1.169282  0  -0.330734  -0.566357  0  2.26072  0
O  O196  1  0.01180002  0.23110983  0.56951960  1  -1.181681  0  -0.33589  -0.587126  0  2.348465  0
O  O197  1  0.88680545  0.25242587  0.53802120  1  -1.173526  0  -0.341656  -0.584231  0  2.245083  0
O  O198  1  0.17576588  0.03266580  0.57852910  1  -1.191614  0  -0.322885  -0.584474  0  2.335916  0
O  O199  1  0.21001438  0.92497096  0.53811567  1  -1.165045  0  -0.347271  -0.585573  0  2.264953  0
O  O200  1  0.01506665  0.23478020  0.43584634  1  -1.191395  0  -0.325869  -0.581881  0  2.34626  0
O  O201  1  0.88352010  0.24952922  0.46128876  1  -1.165543  0  -0.33681  -0.576822  0  2.241493  0
O  O202  1  0.16957433  0.19873691  0.44475886  1  -1.223584  0  -0.564036  -0.737336  0  2.067705  0
O  O203  1  0.04495946  0.10614372  0.38894193  1  -1.234406  0  -0.699389  -0.946802  0  1.857433  0
O  O204  1  0.16561887  0.18719298  0.54748852  1  -1.234467  0  -0.696361  -0.934295  0  1.846364  0
O  O205  1  0.04269228  0.08329318  0.61515207  1  -1.243061  0  -0.594118  -0.783642  0  2.038707  0
O  O206  1  0.13835683  0.05808410  0.49929306  1  -1.274185  0  -0.638429  -0.956098  0  2.250201  0
O  O207  1  0.00208961  0.13951846  0.49970090  1  -1.201248  0  -0.752825  -1.067284  0  2.188484  0
O  O208  1  0.03156853  0.97648515  0.45799937  1  -1.214958  0  -0.763102  -1.068975  0  2.210131  0
O  O209  1  0.92441170  0.09119245  0.55918839  1  -1.233422  0  -0.654932  -0.976174  0  2.360743  0
O  O210  1  0.92122588  0.08498817  0.44093682  1  -1.255914  0  -0.646879  -0.962283  0  2.284799  0
O  O211  1  0.03347697  0.97995726  0.54240939  1  -1.207292  0  -0.760698  -1.068068  0  2.212698  0
O  O212  1  0.46149470  0.72579298  0.93101104  1  -1.208734  0  -0.350695  -0.635036  0  2.356504  0
O  O213  1  0.58599512  0.74708641  0.96260612  1  -1.165342  0  -0.321827  -0.559733  0  2.248156  0
O  O214  1  0.29648248  0.54281324  0.07490841  1  -1.176392  0  -0.34313  -0.601171  0  2.328926  0
O  O215  1  0.27270716  0.42045546  0.04213432  1  -1.164082  0  -0.332786  -0.570592  0  2.245782  0
O  O216  1  0.47210135  0.71619317  0.07391142  1  -1.194339  0  -0.345135  -0.601943  0  2.342152  0
O  O217  1  0.59162930  0.74204146  0.03905948  1  -1.170419  0  -0.335233  -0.577057  0  2.241216  0
O  O218  1  0.29979712  0.53559389  0.92368627  1  -1.196394  0  -0.340307  -0.617111  0  2.324374  0
O  O219  1  0.26711916  0.42325109  0.96223347  1  -1.157039  0  -0.327095  -0.564648  0  2.241563  0
O  O220  1  0.31601419  0.68982841  0.96589155  1  -1.248399  0  -0.64424  -0.903899  0  1.95177  0
O  O221  1  0.40963718  0.60984260  0.88451504  1  -1.219008  0  -0.559537  -0.735896  0  2.080083  0
O  O222  1  0.32164198  0.69627291  0.03922838  1  -1.237745  0  -0.591231  -0.785555  0  2.052205  0
O  O223  1  0.43899276  0.57246424  0.11430744  1  -1.252209  0  -0.640182  -0.890756  0  1.940478  0
O  O224  1  0.47469270  0.63363919  0.00189872  1  -1.198505  0  -0.756375  -1.058407  0  2.174445  0
O  O225  1  0.34085898  0.54753846  0.00118959  1  -1.233333  0  -0.656775  -0.968963  0  2.366612  0
O  O226  1  0.50302318  0.32750208  0.92381634  1  -1.179693  0  -0.335962  -0.589715  0  2.344761  0
O  O227  1  0.38770974  0.29964068  0.96117831  1  -1.169625  0  -0.341824  -0.581468  0  2.254564  0
O  O228  1  0.69887622  0.48715164  0.06876140  1  -1.184543  0  -0.34388  -0.597778  0  2.333379  0
O  O229  1  0.72057229  0.61241007  0.03740947  1  -1.165642  0  -0.331164  -0.573805  0  2.241133  0
O  O230  1  0.51208327  0.32516827  0.07607800  1  -1.190033  0  -0.338458  -0.609688  0  2.329207  0
O  O231  1  0.39472822  0.29704440  0.04018340  1  -1.158528  0  -0.3333  -0.573786  0  2.253631  0
O  O232  1  0.69892915  0.49246425  0.93342081  1  -1.185179  0  -0.323249  -0.576979  0  2.353971  0
O  O233  1  0.71473747  0.62187527  0.96069416  1  -1.174559  0  -0.347358  -0.586657  0  2.247578  0
O  O234  1  0.66464178  0.34325629  0.96073947  1  -1.245848  0  -0.596903  -0.7875  0  2.048175  0
O  O235  1  0.56994266  0.45902864  0.88754889  1  -1.221901  0  -0.69528  -0.931677  0  1.844711  0
O  O236  1  0.66340964  0.34313691  0.03446651  1  -1.230557  0  -0.643661  -0.900328  0  1.949036  0
O  O237  1  0.55243095  0.46007075  0.11385056  1  -1.245745  0  -0.596828  -0.789103  0  2.034637  0
O  O238  1  0.52017117  0.36726960  0.99910394  1  -1.248862  0  -0.64521  -0.944155  0  2.292042  0
O  O239  1  0.60366134  0.50255403  0.99857457  1  -1.226608  0  -0.758436  -1.075181  0  2.218532  0
O  O240  1  0.44300027  0.47435086  0.95786326  1  -1.212787  0  -0.760215  -1.066463  0  2.207434  0
O  O241  1  0.56022734  0.57834794  0.05842475  1  -1.242283  0  -0.657784  -0.98118  0  2.372284  0
O  O242  1  0.54988063  0.58366261  0.93989125  1  -1.244511  0  -0.642366  -0.961503  0  2.271946  0
O  O243  1  0.44757493  0.47201922  0.04306435  1  -1.209464  0  -0.75966  -1.062397  0  2.189392  0
