# generated using pymatgen
data_BaH16C12(NO)8
_symmetry_space_group_name_H-M   'P 1'
_cell_length_a   9.08370877
_cell_length_b   10.35956876
_cell_length_c   11.68292359
_cell_angle_alpha   102.55886738
_cell_angle_beta   95.46283404
_cell_angle_gamma   105.26373490
_symmetry_Int_Tables_number   1
_chemical_formula_structural   BaH16C12(NO)8
_chemical_formula_sum   'Ba2 H32 C24 N16 O16'
_cell_volume   1021.58570776
_cell_formula_units_Z   2
loop_
 _symmetry_equiv_pos_site_id
 _symmetry_equiv_pos_as_xyz
  1  'x, y, z'
loop_
 _atom_site_type_symbol
 _atom_site_label
 _atom_site_symmetry_multiplicity
 _atom_site_fract_x
 _atom_site_fract_y
 _atom_site_fract_z
 _atom_site_occupancy
 _atom_site_hle17_bader_spin_density
 _atom_site_hle17_ddec_charge
 _atom_site_hle17_ddec_spin_density
 _atom_site_hle17_ddec_sum_bond_order
 _atom_site_hle17_magmom
 _atom_site_hse06_10hf_bader_spin_density
 _atom_site_hse06_10hf_ddec_charge
 _atom_site_hse06_10hf_ddec_spin_density
 _atom_site_hse06_10hf_ddec_sum_bond_order
 _atom_site_hse06_10hf_magmom
 _atom_site_hse06_bader_spin_density
 _atom_site_hse06_ddec_charge
 _atom_site_hse06_ddec_spin_density
 _atom_site_hse06_ddec_sum_bond_order
 _atom_site_hse06_magmom
 _atom_site_pbe_bader_spin_density
 _atom_site_pbe_cm5_charge
 _atom_site_pbe_ddec_charge
 _atom_site_pbe_ddec_spin_density
 _atom_site_pbe_ddec_sum_bond_order
 _atom_site_pbe_magmom
Ba  Ba0  1  0.75122716  0.50980171  0.00045786  1  0  1.628696  0  1.150444  0  0  1.477097  0  1.552473  0  0  1.518498  0  1.507432  0  0  0.933352  1.44638  0  1.584546  0
Ba  Ba1  1  0.24877367  0.49019760  0.99954174  1  0  1.628691  0  1.150459  0  0  1.477087  0  1.552505  0  0  1.518487  0  1.507467  0  0  0.933355  1.446371  0  1.58458  0
H  H2  1  0.42263738  0.46513816  0.36181910  1  0  0.127711  0  0.958764  0  0  0.129398  0  1.036275  0  0  0.132679  0  1.033336  0  0  0.128966  0.126995  0  1.038267  0
H  H3  1  0.57736167  0.53485907  0.63818000  1  0  0.12775  0  0.958705  0  0  0.129405  0  1.036262  0  0  0.132685  0  1.033318  0  0  0.128966  0.127  0  1.038253  0
H  H4  1  0.35856405  0.31002109  0.24575422  1  0  0.146685  0  0.922464  0  0  0.156241  0  0.980999  0  0  0.1601  0  0.977866  0  0  0.132412  0.153606  0  0.983309  0
H  H5  1  0.64143423  0.68997719  0.75424587  1  0  0.146686  0  0.922448  0  0  0.156228  0  0.980994  0  0  0.160087  0  0.977856  0  0  0.132395  0.15359  0  0.983302  0
H  H6  1  0.50451721  0.93270058  0.27415085  1  0  0.091386  0  0.959367  0  0  0.102118  0  1.023185  0  0  0.105765  0  1.01979  0  0  0.10676  0.099399  0  1.025774  0
H  H7  1  0.49548614  0.06729971  0.72584570  1  0  0.091378  0  0.95938  0  0  0.102112  0  1.023195  0  0  0.105757  0  1.019801  0  0  0.10676  0.099395  0  1.025783  0
H  H8  1  0.56523626  0.71238628  0.27278773  1  0  0.101283  0  0.969945  0  0  0.11399  0  1.025555  0  0  0.116651  0  1.025349  0  0  0.11468  0.112082  0  1.025759  0
H  H9  1  0.43476710  0.28761403  0.72721053  1  0  0.101286  0  0.969986  0  0  0.113977  0  1.025611  0  0  0.116639  0  1.025404  0  0  0.114668  0.11207  0  1.025815  0
H  H10  1  0.75383509  0.70079312  0.43785446  1  0  0.10583  0  0.954364  0  0  0.112361  0  1.022181  0  0  0.115879  0  1.019702  0  0  0.106409  0.110052  0  1.023397  0
H  H11  1  0.24616497  0.29920723  0.56214699  1  0  0.105803  0  0.954413  0  0  0.112344  0  1.022229  0  0  0.115878  0  1.019733  0  0  0.106404  0.110064  0  1.023413  0
H  H12  1  0.82823089  0.13439131  0.59718089  1  0  0.107801  0  0.960162  0  0  0.116935  0  1.025681  0  0  0.12063  0  1.022602  0  0  0.110541  0.114186  0  1.028128  0
H  H13  1  0.17176440  0.86560797  0.40281745  1  0  0.107804  0  0.96017  0  0  0.116932  0  1.025698  0  0  0.120624  0  1.022624  0  0  0.110545  0.114183  0  1.028144  0
H  H14  1  0.22525659  0.80657776  0.84350505  1  0  0.143473  0  0.906966  0  0  0.15306  0  0.969685  0  0  0.156379  0  0.966547  0  0  0.135046  0.150596  0  0.972248  0
H  H15  1  0.77474593  0.19342675  0.15649820  1  0  0.143417  0  0.906984  0  0  0.15298  0  0.969745  0  0  0.156298  0  0.966606  0  0  0.135016  0.150525  0  0.972298  0
H  H16  1  0.12105551  0.66154938  0.72564388  1  0  0.152412  0  0.902018  0  0  0.164133  0  0.956731  0  0  0.167542  0  0.954109  0  0  0.137608  0.161833  0  0.958556  0
H  H17  1  0.87894921  0.33845512  0.27435868  1  0  0.152371  0  0.901947  0  0  0.164116  0  0.956641  0  0  0.167525  0  0.954016  0  0  0.137617  0.161815  0  0.958468  0
H  H18  1  0.62238174  0.18688156  0.91024583  1  0  0.410813  0  0.853922  0  0  0.39343  0  0.90912  0  0  0.401886  0  0.896553  0  0  0.313039  0.387383  0  0.918172  0
H  H19  1  0.37761764  0.81311671  0.08975434  1  0  0.410773  0  0.853957  0  0  0.393386  0  0.909184  0  0  0.401843  0  0.896615  0  0  0.313021  0.387338  0  0.918237  0
H  H20  1  0.48282813  0.21050601  0.97493597  1  0  0.432034  0  0.867749  0  0  0.402641  0  0.928055  0  0  0.41354  0  0.912038  0  0  0.289968  0.394903  0  0.939439  0
H  H21  1  0.51717303  0.78949432  0.02506385  1  0  0.432033  0  0.867749  0  0  0.402648  0  0.928042  0  0  0.413546  0  0.912027  0  0  0.289966  0.39491  0  0.939427  0
H  H22  1  0.87238661  0.33132542  0.78091611  1  0  0.425098  0  0.877563  0  0  0.397217  0  0.935979  0  0  0.407961  0  0.920167  0  0  0.289703  0.389615  0  0.947151  0
H  H23  1  0.12761378  0.66867593  0.21908299  1  0  0.42509  0  0.877573  0  0  0.3972  0  0.936004  0  0  0.407945  0  0.920189  0  0  0.289706  0.389598  0  0.947176  0
H  H24  1  0.72840047  0.32985033  0.69582244  1  0  0.395359  0  0.913826  0  0  0.357584  0  0.99031  0  0  0.367879  0  0.97517  0  0  0.283352  0.350278  0  1.001048  0
H  H25  1  0.27160102  0.67015103  0.30417674  1  0  0.395347  0  0.913844  0  0  0.35757  0  0.990325  0  0  0.367866  0  0.975184  0  0  0.283343  0.350265  0  1.001061  0
H  H26  1  0.95322301  0.78801029  0.24967091  1  0  0.396266  0  0.91739  0  0  0.353527  0  1.001388  0  0  0.364057  0  0.986162  0  0  0.289806  0.346137  0  1.012062  0
H  H27  1  0.04677705  0.21199005  0.75032883  1  0  0.396277  0  0.917372  0  0  0.35354  0  1.001368  0  0  0.364069  0  0.986143  0  0  0.289811  0.34615  0  1.012042  0
H  H28  1  0.86892527  0.63161604  0.25593491  1  0  0.418791  0  0.883112  0  0  0.388737  0  0.945328  0  0  0.399214  0  0.930009  0  0  0.29756  0.381475  0  0.955872  0
H  H29  1  0.13107589  0.36838429  0.74406491  1  0  0.418777  0  0.883129  0  0  0.388724  0  0.945341  0  0  0.399201  0  0.930023  0  0  0.297565  0.381463  0  0.955886  0
H  H30  1  0.76963686  0.79295888  0.97848714  1  0  0.419601  0  0.88489  0  0  0.389764  0  0.94633  0  0  0.400529  0  0.930498  0  0  0.294602  0.38218  0  0.957496  0
H  H31  1  0.23036243  0.20704250  0.02151445  1  0  0.419624  0  0.884862  0  0  0.38975  0  0.946333  0  0  0.400515  0  0.930501  0  0  0.294588  0.382166  0  0.957497  0
H  H32  1  0.77173345  0.88382883  0.10563826  1  0  0.387354  0  0.92869  0  0  0.346459  0  1.008985  0  0  0.356601  0  0.994093  0  0  0.289822  0.339251  0  1.019597  0
H  H33  1  0.22826407  0.11617049  0.89436283  1  0  0.387337  0  0.928709  0  0  0.346441  0  1.009004  0  0  0.356582  0  0.994113  0  0  0.289813  0.339234  0  1.019614  0
C  C34  1  0.57144412  0.45844633  0.22852157  1  0  0.707997  0  3.878386  0  0  0.662576  0  4.176083  0  0  0.694986  0  4.169873  0  0  0.221419  0.640765  0  4.179199  0
C  C35  1  0.42855461  0.54154990  0.77147989  1  0  0.707847  0  3.878403  0  0  0.662463  0  4.176042  0  0  0.694872  0  4.169827  0  0  0.221334  0.640655  0  4.179153  0
C  C36  1  0.46090049  0.38673431  0.30252709  1  0  -0.227619  0  3.583471  0  0  -0.282289  0  3.833183  0  0  -0.284768  0  3.837151  0  0  -0.04304  -0.280573  0  3.830511  0
C  C37  1  0.53909810  0.61326495  0.69746978  1  0  -0.227656  0  3.583359  0  0  -0.282289  0  3.833018  0  0  -0.284798  0  3.837058  0  0  -0.043021  -0.280559  0  3.830322  0
C  C38  1  0.62661433  0.17539609  0.43274333  1  0  0.26294  0  3.793032  0  0  0.241155  0  4.067983  0  0  0.249099  0  4.08548  0  0  0.22357  0.235944  0  4.056002  0
C  C39  1  0.37338395  0.82460219  0.56725675  1  0  0.263028  0  3.792844  0  0  0.241281  0  4.067771  0  0  0.249229  0  4.085269  0  0  0.223616  0.23607  0  4.05579  0
C  C40  1  0.66337428  0.04707889  0.43495123  1  0  0.002035  0  3.814163  0  0  0.020831  0  4.053319  0  0  0.018219  0  4.078249  0  0  -0.007301  0.022438  0  4.036309  0
C  C41  1  0.33662433  0.95292040  0.56504822  1  0  0.002038  0  3.814149  0  0  0.020785  0  4.053346  0  0  0.018172  0  4.078276  0  0  -0.00732  0.022393  0  4.036335  0
C  C42  1  0.58939831  0.92745882  0.34402891  1  0  -0.076446  0  3.709169  0  0  -0.109297  0  3.968752  0  0  -0.110618  0  3.9893  0  0  -0.081519  -0.107809  0  3.954363  0
C  C43  1  0.41060284  0.07254150  0.65596919  1  0  -0.076438  0  3.709176  0  0  -0.109276  0  3.968763  0  0  -0.110593  0  3.989306  0  0  -0.081508  -0.107791  0  3.954377  0
C  C44  1  0.62249943  0.80390751  0.34462209  1  0  -0.058827  0  3.752388  0  0  -0.072485  0  4.011797  0  0  -0.075491  0  4.034404  0  0  -0.085252  -0.070448  0  3.99615  0
C  C45  1  0.37750139  0.19609179  0.65537752  1  0  -0.058778  0  3.75242  0  0  -0.072424  0  4.011817  0  0  -0.075429  0  4.034425  0  0  -0.085223  -0.070389  0  3.996184  0
C  C46  1  0.72815957  0.79748255  0.43632669  1  0  -0.081958  0  3.693858  0  0  -0.114246  0  3.952664  0  0  -0.115548  0  3.973437  0  0  -0.082148  -0.113334  0  3.938196  0
C  C47  1  0.27184159  0.20251779  0.56367313  1  0  -0.081965  0  3.693849  0  0  -0.114266  0  3.952665  0  0  -0.115582  0  3.973433  0  0  -0.082158  -0.113378  0  3.938189  0
C  C48  1  0.80258577  0.91675933  0.52769211  1  0  0.002089  0  3.813397  0  0  0.022011  0  4.052232  0  0  0.019533  0  4.076269  0  0  -0.007888  0.023585  0  4.036197  0
C  C49  1  0.19741318  0.08324101  0.47230840  1  0  0.002055  0  3.813445  0  0  0.021983  0  4.052294  0  0  0.019504  0  4.076334  0  0  -0.007906  0.023556  0  4.036267  0
C  C50  1  0.77044906  0.04157607  0.52674590  1  0  -0.103887  0  3.664053  0  0  -0.140125  0  3.913982  0  0  -0.141741  0  3.933805  0  0  -0.079329  -0.13923  0  3.90097  0
C  C51  1  0.22955099  0.95842425  0.47325298  1  0  -0.103902  0  3.664156  0  0  -0.14012  0  3.914092  0  0  -0.141732  0  3.933911  0  0  -0.079326  -0.139225  0  3.901077  0
C  C52  1  0.91512062  0.91098678  0.62271469  1  0  0.268926  0  3.780803  0  0  0.245173  0  4.057819  0  0  0.253297  0  4.074202  0  0  0.22947  0.239658  0  4.047006  0
C  C53  1  0.08487944  0.08901357  0.37728591  1  0  0.268978  0  3.780832  0  0  0.245188  0  4.057898  0  0  0.253313  0  4.074278  0  0  0.229488  0.239671  0  4.047086  0
C  C54  1  0.11009500  0.75003170  0.79187885  1  0  -0.225524  0  3.573701  0  0  -0.285836  0  3.833258  0  0  -0.287924  0  3.836925  0  0  -0.038276  -0.284455  0  3.830835  0
C  C55  1  0.88990829  0.24997178  0.20812427  1  0  -0.225415  0  3.573612  0  0  -0.285721  0  3.833149  0  0  -0.287813  0  3.836829  0  0  -0.038251  -0.284344  0  3.830718  0
C  C56  1  0.99879409  0.69865543  0.87483736  1  0  0.709257  0  3.889407  0  0  0.665055  0  4.183949  0  0  0.698076  0  4.176959  0  0  0.224028  0.64264  0  4.187768  0
C  C57  1  0.00120699  0.30134803  0.12516474  1  0  0.709361  0  3.889235  0  0  0.665166  0  4.183755  0  0  0.698187  0  4.176761  0  0  0.224106  0.642749  0  4.187579  0
N  N58  1  0.54120280  0.19094347  0.33917203  1  0  -0.305272  0  2.800188  0  0  -0.296155  0  3.0662  0  0  -0.302099  0  3.077534  0  0  -0.196531  -0.292526  0  3.058958  0
N  N59  1  0.45879548  0.80905480  0.66082806  1  0  -0.305387  0  2.800171  0  0  -0.296288  0  3.06619  0  0  -0.302225  0  3.07752  0  0  -0.196601  -0.292661  0  3.058952  0
N  N60  1  0.53481900  0.31948095  0.37702908  1  0  0.263055  0  3.568129  0  0  0.307996  0  3.852127  0  0  0.305381  0  3.873559  0  0  0.002476  0.309547  0  3.837633  0
N  N61  1  0.46517927  0.68051732  0.62297015  1  0  0.263129  0  3.568067  0  0  0.308062  0  3.852063  0  0  0.305447  0  3.873488  0  0  0.002502  0.309609  0  3.837569  0
N  N62  1  0.61198646  0.38345504  0.48608486  1  0  -0.084446  0  2.869376  0  0  -0.082999  0  3.153503  0  0  -0.079191  0  3.161676  0  0  -0.058613  -0.085168  0  3.14749  0
N  N63  1  0.38801402  0.61654321  0.51391367  1  0  -0.084429  0  2.869362  0  0  -0.082977  0  3.1535  0  0  -0.079173  0  3.161681  0  0  -0.058609  -0.085147  0  3.147489  0
N  N64  1  0.67043410  0.29306795  0.52305086  1  0  -0.282854  0  2.991648  0  0  -0.248491  0  3.26342  0  0  -0.257351  0  3.27279  0  0  -0.186028  -0.242425  0  3.25708  0
N  N65  1  0.32956671  0.70693134  0.47694788  1  0  -0.282905  0  2.991625  0  0  -0.248557  0  3.263392  0  0  -0.257419  0  3.272767  0  0  -0.18604  -0.242491  0  3.257053  0
N  N66  1  0.94538481  0.79443773  0.63613445  1  0  -0.281253  0  2.77807  0  0  -0.274654  0  3.047256  0  0  -0.279946  0  3.057661  0  0  -0.186825  -0.271339  0  3.040718  0
N  N67  1  0.05461594  0.20556471  0.36386830  1  0  -0.281254  0  2.777997  0  0  -0.274649  0  3.047202  0  0  -0.279942  0  3.05761  0  0  -0.186816  -0.271332  0  3.040662  0
N  N68  1  0.05458507  0.84031702  0.73132151  1  0  0.264153  0  3.574807  0  0  0.302465  0  3.866821  0  0  0.300238  0  3.887919  0  0  0.004462  0.303688  0  3.852815  0
N  N69  1  0.94541643  0.15968437  0.26867939  1  0  0.264118  0  3.574778  0  0  0.30243  0  3.866806  0  0  0.300204  0  3.8879  0  0  0.004465  0.303652  0  3.852801  0
N  N70  1  0.09119567  0.97609293  0.77699857  1  0  -0.103843  0  2.942808  0  0  -0.083517  0  3.210885  0  0  -0.081635  0  3.220051  0  0  -0.054636  -0.084589  0  3.204957  0
N  N71  1  0.90880395  0.02390947  0.22300152  1  0  -0.103867  0  2.94275  0  0  -0.083543  0  3.210833  0  0  -0.081661  0  3.219998  0  0  -0.054664  -0.084616  0  3.204906  0
N  N72  1  0.00470921  0.02277468  0.70892478  1  0  -0.264461  0  3.013477  0  0  -0.227911  0  3.277144  0  0  -0.237052  0  3.288451  0  0  -0.175785  -0.22189  0  3.2698  0
N  N73  1  0.99529162  0.97722462  0.29107482  1  0  -0.264429  0  3.013396  0  0  -0.227868  0  3.277076  0  0  -0.237008  0  3.28838  0  0  -0.175764  -0.221846  0  3.269731  0
O  O74  1  0.71520648  0.48437182  0.25996241  1  0  -0.660804  0  1.94354  0  0  -0.607236  0  2.166003  0  0  -0.632295  0  2.157457  0  0  -0.321434  -0.589691  0  2.170938  0
O  O75  1  0.28479223  0.51562438  0.74003648  1  0  -0.660769  0  1.943487  0  0  -0.607198  0  2.165911  0  0  -0.632254  0  2.157366  0  0  -0.321421  -0.589657  0  2.17085  0
O  O76  1  0.50744307  0.49023193  0.14107751  1  0  -0.742346  0  1.965107  0  0  -0.675992  0  2.208507  0  0  -0.704919  0  2.200741  0  0  -0.399361  -0.65542  0  2.212935  0
O  O77  1  0.49255520  0.50976634  0.85892172  1  0  -0.742253  0  1.965214  0  0  -0.675906  0  2.208583  0  0  -0.70483  0  2.20082  0  0  -0.399293  -0.655332  0  2.212998  0
O  O78  1  0.03993543  0.62302669  0.93568431  1  0  -0.717789  0  1.970812  0  0  -0.650959  0  2.208226  0  0  -0.680462  0  2.201255  0  0  -0.394344  -0.629827  0  2.212119  0
O  O79  1  0.96006529  0.37697571  0.06431586  1  0  -0.717894  0  1.970777  0  0  -0.651047  0  2.208145  0  0  -0.680549  0  2.201169  0  0  -0.394391  -0.629916  0  2.212041  0
O  O80  1  0.87490799  0.73277298  0.87504953  1  0  -0.67876  0  1.977459  0  0  -0.62335  0  2.197789  0  0  -0.649002  0  2.188017  0  0  -0.334279  -0.605383  0  2.204032  0
O  O81  1  0.12509529  0.26723048  0.12495273  1  0  -0.678783  0  1.977402  0  0  -0.623368  0  2.197718  0  0  -0.649023  0  2.187949  0  0  -0.334312  -0.605401  0  2.203962  0
O  O82  1  0.59797725  0.23138589  0.98540748  1  0  -0.859501  0  1.770421  0  0  -0.810282  0  1.929558  0  0  -0.828957  0  1.900804  0  0  -0.619462  -0.797007  0  1.949945  0
O  O83  1  0.40202279  0.76861443  0.01459140  1  0  -0.85947  0  1.770453  0  0  -0.810249  0  1.929597  0  0  -0.828925  0  1.900844  0  0  -0.619442  -0.796972  0  1.949984  0
O  O84  1  0.76501758  0.33849612  0.78031649  1  0  -0.889083  0  1.778294  0  0  -0.834124  0  1.950254  0  0  -0.853572  0  1.91936  0  0  -0.630516  -0.820189  0  1.971952  0
O  O85  1  0.23498467  0.66150420  0.21968169  1  0  -0.88905  0  1.778302  0  0  -0.834085  0  1.950302  0  0  -0.853532  0  1.919409  0  0  -0.630515  -0.82015  0  1.972  0
O  O86  1  0.94537340  0.68878445  0.21822916  1  0  -0.866706  0  1.890745  0  0  -0.802802  0  2.064944  0  0  -0.823076  0  2.03305  0  0  -0.594399  -0.788224  0  2.086842  0
O  O87  1  0.05462776  0.31121588  0.78177066  1  0  -0.866687  0  1.890736  0  0  -0.802792  0  2.064935  0  0  -0.823063  0  2.033037  0  0  -0.594399  -0.788213  0  2.086833  0
O  O88  1  0.70875550  0.80029560  0.04456237  1  0  -0.859657  0  1.859148  0  0  -0.799196  0  2.023332  0  0  -0.818954  0  1.992571  0  0  -0.582084  -0.785088  0  2.04492  0
O  O89  1  0.29124245  0.19970164  0.95543750  1  0  -0.859676  0  1.859093  0  0  -0.799179  0  2.023403  0  0  -0.818941  0  1.99264  0  0  -0.582071  -0.785072  0  2.04499  0
