# generated using pymatgen
data_Zn4H13C24O13F
_symmetry_space_group_name_H-M   'P 1'
_cell_length_a   13.08982108
_cell_length_b   13.26226113
_cell_length_c   15.27007613
_cell_angle_alpha   78.15387181
_cell_angle_beta   84.67905623
_cell_angle_gamma   88.64840708
_symmetry_Int_Tables_number   1
_chemical_formula_structural   Zn4H13C24O13F
_chemical_formula_sum   'Zn4 H13 C24 O13 F1'
_cell_volume   2583.22921664
_cell_formula_units_Z   1
loop_
 _symmetry_equiv_pos_site_id
 _symmetry_equiv_pos_as_xyz
  1  'x, y, z'
loop_
 _atom_site_type_symbol
 _atom_site_label
 _atom_site_symmetry_multiplicity
 _atom_site_fract_x
 _atom_site_fract_y
 _atom_site_fract_z
 _atom_site_occupancy
 _atom_site_pbe_bader_charge
 _atom_site_pbe_bader_spin_density
 _atom_site_pbe_cm5_charge
 _atom_site_pbe_ddec_charge
 _atom_site_pbe_ddec_spin_density
 _atom_site_pbe_ddec_sum_bond_order
 _atom_site_pbe_magmom
Zn  Zn0  1  0.42777907  0.40974796  0.44184411  1  1.311102  0  0.670236  0.960372  0  2.376168  0
Zn  Zn1  1  0.59992091  0.41648295  0.57528818  1  1.313571  0  0.669723  0.966113  0  2.363092  0
Zn  Zn2  1  0.41525557  0.56987366  0.58039621  1  1.315778  0  0.67009  0.962362  0  2.3778  0
Zn  Zn3  1  0.56549872  0.60542809  0.40002878  1  1.313218  0  0.671401  0.968198  0  2.353446  0
H  H4  1  0.45580419  0.61956843  0.83861543  1  0.073456  0  0.109266  0.11617  0  0.995584  0
H  H5  1  0.43637725  0.68233497  0.13856041  1  0.08623  0  0.107965  0.113103  0  0.987961  0
H  H6  1  0.53164853  0.36547399  0.16551720  1  0.075826  0  0.10889  0.115299  0  0.992618  0
H  H7  1  0.91549240  0.45724131  0.56080504  1  0.134513  0  0.119966  0.136398  0  0.97163  0
H  H8  1  0.90878061  0.57915971  0.36586620  1  0.145929  0  0.114455  0.136971  0  0.981653  0
H  H9  1  0.08798187  0.44475874  0.61179037  1  0.131118  0  0.12417  0.165201  0  0.967102  0
H  H10  1  0.44139024  0.09422942  0.45477392  1  0.098315  0  0.113082  0.111513  0  0.975049  0
H  H11  1  0.51596107  0.89855361  0.58530348  1  0.098989  0  0.111855  0.111416  0  0.967872  0
H  H12  1  0.57903392  0.07301211  0.61124754  1  0.095043  0  0.111039  0.13227  0  0.981127  0
H  H13  1  0.43172345  0.93241226  0.39889394  1  0.090373  0  0.117736  0.135754  0  0.970043  0
H  H14  1  0.58015822  0.31330179  0.86142136  1  0.088805  0  0.107414  0.113726  0  0.993025  0
H  H15  1  0.42875723  0.69750784  0.97390325  1  0.078165  0  0.106111  0.107038  0  0.989698  0
H  H16  1  0.57287288  0.29230842  0.02787541  1  0.067012  0  0.105895  0.107013  0  0.990073  0
C  C17  1  0.76919310  0.53154819  0.45516992  1  1.530872  0  0.221195  0.648565  0  4.167813  0
C  C18  1  0.05710791  0.49744202  0.47813062  1  0.429951  0  0.106992  0.315071  0  4.095812  0
C  C19  1  0.88166964  0.53778478  0.43289638  1  0.033901  0  -0.087624  -0.206622  0  3.881409  0
C  C20  1  0.23494800  0.47454511  0.52944450  1  1.568901  0  0.227679  0.682635  0  4.1582  0
C  C21  1  0.94691655  0.49566010  0.49385451  1  -0.128547  0  -0.07545  -0.132806  0  4.014779  0
C  C22  1  0.45639812  0.89049991  0.46287026  1  -0.120509  0  -0.078299  -0.207565  0  3.868035  0
C  C23  1  0.48623703  0.94174877  0.52381256  1  0.001136  0  -0.078959  -0.053534  0  4.029777  0
C  C24  1  0.53152432  0.10870418  0.55812985  1  0.024782  0  -0.096646  -0.24786  0  3.897504  0
C  C25  1  0.48392600  0.05258467  0.50959830  1  -0.06844  0  -0.068529  -0.015812  0  4.014836  0
C  C26  1  0.52590223  0.22234475  0.53894387  1  1.505556  0  0.217116  0.644879  0  4.182526  0
C  C27  1  0.46571306  0.77683660  0.47334951  1  1.597869  0  0.227702  0.653471  0  4.174773  0
C  C28  1  0.45612972  0.61727873  0.10668030  1  -0.025188  0  -0.083891  -0.096519  0  3.995133  0
C  C29  1  0.51721910  0.47869318  0.74184724  1  1.54964  0  0.227696  0.606195  0  4.166455  0
C  C30  1  0.48772949  0.51455630  0.25947972  1  1.571188  0  0.229476  0.609782  0  4.159554  0
C  C31  1  0.51725144  0.46797483  0.84095348  1  -0.034734  0  -0.01912  -0.034843  0  3.993857  0
C  C32  1  0.48405263  0.52217474  0.16103760  1  -0.087777  0  -0.015071  -0.026466  0  3.988133  0
C  C33  1  0.45287028  0.62555863  0.01575522  1  0.005099  0  -0.085694  -0.129707  0  3.995642  0
C  C34  1  0.51071116  0.43809916  0.12285186  1  0.030986  0  -0.075229  -0.139214  0  3.924509  0
C  C35  1  0.51392208  0.44634988  0.02875845  1  -0.028711  0  -0.000522  0.084208  0  3.996672  0
C  C36  1  0.48237439  0.54149349  0.97419994  1  -0.055499  0  -0.003549  0.07607  0  3.99876  0
C  C37  1  0.48245347  0.54892702  0.88055879  1  -0.011417  0  -0.074103  -0.131476  0  3.923642  0
C  C38  1  0.55205167  0.37525760  0.89446849  1  0.010955  0  -0.086616  -0.099244  0  3.998158  0
C  C39  1  0.54833105  0.36425593  0.98629396  1  -0.043267  0  -0.088295  -0.13392  0  3.997421  0
C  C40  1  0.12164137  0.46792719  0.54277051  1  0.076451  0  -0.09744  -0.358726  0  3.856621  0
O  O41  1  0.50313533  0.50079585  0.49958060  1  -1.235363  0  -0.573168  -1.034422  0  2.537857  0
O  O42  1  0.57426061  0.41701100  0.70461817  1  -1.170435  0  -0.31576  -0.546845  0  2.317867  0
O  O43  1  0.51497719  0.59555483  0.28414216  1  -1.166056  0  -0.315731  -0.549181  0  2.314725  0
O  O44  1  0.45962850  0.54913284  0.70179416  1  -1.175886  0  -0.318678  -0.550667  0  2.343558  0
O  O45  1  0.46411432  0.42823907  0.31143290  1  -1.168288  0  -0.316645  -0.545784  0  2.305922  0
O  O46  1  0.45623601  0.26480704  0.48993114  1  -1.175486  0  -0.321503  -0.556221  0  2.324781  0
O  O47  1  0.51928677  0.74577856  0.40978750  1  -1.161223  0  -0.316844  -0.547899  0  2.287693  0
O  O48  1  0.73618497  0.47411282  0.52981243  1  -1.180966  0  -0.32061  -0.557822  0  2.316858  0
O  O49  1  0.27620987  0.51276951  0.58801166  1  -1.16118  0  -0.320447  -0.552626  0  2.266884  0
O  O50  1  0.71510429  0.58533883  0.39653447  1  -1.154757  0  -0.319519  -0.549784  0  2.276595  0
O  O51  1  0.28035456  0.44147371  0.46341334  1  -1.157471  0  -0.312547  -0.543447  0  2.287919  0
O  O52  1  0.59163431  0.26892806  0.57340990  1  -1.159981  0  -0.322471  -0.553931  0  2.283185  0
O  O53  1  0.42049114  0.72135377  0.54371341  1  -1.162231  0  -0.312369  -0.541945  0  2.29415  0
F  F54  1  0.09497879  0.53565907  0.39198230  1  -0.621319  0  -0.095815  -0.134905  0  1.314995  0
