# generated using pymatgen
data_BaH8C6Cl6O7
_symmetry_space_group_name_H-M   'P 1'
_cell_length_a   8.70747530
_cell_length_b   10.80947859
_cell_length_c   12.12375169
_cell_angle_alpha   100.08652586
_cell_angle_beta   98.77580780
_cell_angle_gamma   105.75333614
_symmetry_Int_Tables_number   1
_chemical_formula_structural   BaH8C6Cl6O7
_chemical_formula_sum   'Ba2 H16 C12 Cl12 O14'
_cell_volume   1056.90262677
_cell_formula_units_Z   2
loop_
 _symmetry_equiv_pos_site_id
 _symmetry_equiv_pos_as_xyz
  1  'x, y, z'
loop_
 _atom_site_type_symbol
 _atom_site_label
 _atom_site_symmetry_multiplicity
 _atom_site_fract_x
 _atom_site_fract_y
 _atom_site_fract_z
 _atom_site_occupancy
 _atom_site_hle17_bader_spin_density
 _atom_site_hle17_ddec_charge
 _atom_site_hle17_ddec_spin_density
 _atom_site_hle17_ddec_sum_bond_order
 _atom_site_hle17_magmom
 _atom_site_hse06_10hf_bader_charge
 _atom_site_hse06_10hf_bader_spin_density
 _atom_site_hse06_10hf_ddec_charge
 _atom_site_hse06_10hf_ddec_spin_density
 _atom_site_hse06_10hf_ddec_sum_bond_order
 _atom_site_hse06_10hf_magmom
 _atom_site_hse06_bader_spin_density
 _atom_site_hse06_ddec_charge
 _atom_site_hse06_ddec_spin_density
 _atom_site_hse06_ddec_sum_bond_order
 _atom_site_hse06_magmom
 _atom_site_pbe_bader_spin_density
 _atom_site_pbe_cm5_charge
 _atom_site_pbe_ddec_charge
 _atom_site_pbe_ddec_spin_density
 _atom_site_pbe_ddec_sum_bond_order
 _atom_site_pbe_magmom
Ba  Ba0  1  0.27873973  0.60478277  0.00649831  1  0  1.669466  0  1.133647  0  1.731419  0  1.517556  0  1.538875  0  0  1.557891  0  1.494529  0  0  0.929528  1.487867  0  1.570358  0
Ba  Ba1  1  0.72125391  0.39521712  0.99349535  1  0  1.669429  0  1.133829  0  1.731403  0  1.517569  0  1.539004  0  0  1.557907  0  1.494658  0  0  0.929517  1.487882  0  1.57049  0
H  H2  1  0.48312115  0.03532305  0.16088539  1  0  0.05727  0  0.914362  0  0.050064  0  0.069415  0  0.97955  0  0  0.070566  0  0.977648  0  0  0.096151  0.068508  0  0.981001  0
H  H3  1  0.51688665  0.96467116  0.83911564  1  0  0.057256  0  0.914403  0  0.05014  0  0.06941  0  0.979557  0  0  0.070564  0  0.977658  0  0  0.096136  0.068506  0  0.981009  0
H  H4  1  0.27280018  0.95173327  0.09373400  1  0  0.067717  0  0.955588  0  0.083248  0  0.076023  0  1.029746  0  0  0.076783  0  1.028726  0  0  0.101323  0.07536  0  1.030625  0
H  H5  1  0.72720879  0.04826094  0.90626469  1  0  0.067846  0  0.955402  0  0.083563  0  0.076085  0  1.029604  0  0  0.07685  0  1.028588  0  0  0.101323  0.075426  0  1.030488  0
H  H6  1  0.61721850  0.82470296  0.95515086  1  0  0.079206  0  0.934493  0  0.095607  0  0.093262  0  0.997262  0  0  0.093393  0  0.997703  0  0  0.111426  0.093092  0  0.997033  0
H  H7  1  0.38279829  0.17529036  0.04484859  1  0  0.079234  0  0.934573  0  0.095758  0  0.093248  0  0.997352  0  0  0.093382  0  0.997794  0  0  0.111444  0.093081  0  0.997127  0
H  H8  1  0.68698303  0.95863170  0.07939365  1  0  0.051368  0  0.939477  0  0.056969  0  0.056191  0  1.021536  0  0  0.056756  0  1.020668  0  0  0.088005  0.055672  0  1.022301  0
H  H9  1  0.31303356  0.04136753  0.92060913  1  0  0.051333  0  0.939641  0  0.057044  0  0.056167  0  1.021638  0  0  0.056731  0  1.02078  0  0  0.087991  0.055651  0  1.022407  0
H  H10  1  0.52253673  0.60112156  0.81104397  1  0  0.431267  0  0.869161  0  0.666477  0  0.400388  0  0.933446  0  0  0.411317  0  0.917377  0  0  0.290831  0.392666  0  0.944781  0
H  H11  1  0.47745691  0.39887833  0.18894970  1  0  0.431458  0  0.868864  0  0.666343  0  0.400508  0  0.933294  0  0  0.411434  0  0.917229  0  0  0.290851  0.392781  0  0.944643  0
H  H12  1  0.34653093  0.55716136  0.73617515  1  0  0.402414  0  0.874844  0  0.596989  0  0.378417  0  0.938092  0  0  0.386498  0  0.926099  0  0  0.292929  0.372689  0  0.946606  0
H  H13  1  0.65346676  0.44284642  0.26381603  1  0  0.402496  0  0.874765  0  0.597009  0  0.378505  0  0.937988  0  0  0.386588  0  0.92599  0  0  0.292964  0.372776  0  0.946504  0
H  H14  1  0.05341715  0.71442552  0.17318181  1  0  0.437078  0  0.866184  0  0.669386  0  0.404173  0  0.933476  0  0  0.415541  0  0.916787  0  0  0.292205  0.396142  0  0.94525  0
H  H15  1  0.94657963  0.28557343  0.82681289  1  0  0.437148  0  0.866067  0  0.669479  0  0.404259  0  0.933341  0  0  0.415621  0  0.916663  0  0  0.292258  0.396227  0  0.945117  0
H  H16  1  0.22251679  0.79088012  0.25539193  1  0  0.41563  0  0.839697  0  0.626762  0  0.400893  0  0.890843  0  0  0.408016  0  0.880476  0  0  0.314251  0.395844  0  0.898229  0
H  H17  1  0.77747918  0.20911981  0.74460201  1  0  0.415617  0  0.839771  0  0.62669  0  0.400868  0  0.890901  0  0  0.407994  0  0.880529  0  0  0.314235  0.395818  0  0.898288  0
C  C18  1  0.26791168  0.31985587  0.83768826  1  0  0.621545  0  3.972131  0  1.759268  0  0.566493  0  4.277422  0  0  0.598293  0  4.272415  0  0  0.210848  0.544935  0  4.280164  0
C  C19  1  0.73207644  0.68014500  0.16231235  1  0  0.621524  0  3.972191  0  1.759297  0  0.566398  0  4.27754  0  0  0.598206  0  4.272537  0  0  0.210773  0.544842  0  4.280282  0
C  C20  1  0.24609562  0.22608813  0.71677013  1  0  0.164443  0  3.531468  0  0.346383  0  0.170973  0  3.820324  0  0  0.177716  0  3.824728  0  0  0.08676  0.16586  0  3.817595  0
C  C21  1  0.75391234  0.77391298  0.28323360  1  0  0.164497  0  3.531346  0  0.346248  0  0.171166  0  3.819997  0  0  0.177861  0  3.824497  0  0  0.086845  0.16605  0  3.817272  0
C  C22  1  0.14629547  0.38993208  0.15285026  1  0  0.620538  0  3.967737  0  1.761393  0  0.566735  0  4.271558  0  0  0.598798  0  4.26638  0  0  0.205274  0.545041  0  4.274308  0
C  C23  1  0.85370539  0.61007189  0.84715226  1  0  0.620466  0  3.967731  0  1.760941  0  0.566644  0  4.271616  0  0  0.598707  0  4.266446  0  0  0.205305  0.544947  0  4.274363  0
C  C24  1  0.08799893  0.27025145  0.21035016  1  0  0.158272  0  3.548314  0  0.341607  0  0.162311  0  3.841152  0  0  0.168632  0  3.846163  0  0  0.085948  0.157446  0  3.838112  0
C  C25  1  0.91200971  0.72975449  0.78964281  1  0  0.158226  0  3.548388  0  0.341566  0  0.16233  0  3.841106  0  0  0.168651  0  3.846121  0  0  0.085845  0.157472  0  3.838046  0
C  C26  1  0.39602206  0.98826548  0.07806267  1  0  0.048298  0  3.653947  0  0.426996  0  -0.010881  0  3.925452  0  0  -0.004625  0  3.931491  0  0  -0.076391  -0.015069  0  3.921252  0
C  C27  1  0.60398762  0.01173073  0.92193886  1  0  0.048227  0  3.653773  0  0.42657  0  -0.010818  0  3.925243  0  0  -0.004594  0  3.931318  0  0  -0.07634  -0.015025  0  3.92106  0
C  C28  1  0.59555629  0.91434706  0.99830569  1  0  0.041827  0  3.655429  0  0.379221  0  -0.017731  0  3.929633  0  0  -0.01143  0  3.935987  0  0  -0.079162  -0.021989  0  3.925278  0
C  C29  1  0.40445841  0.08565019  0.00169740  1  0  0.041801  0  3.655626  0  0.378847  0  -0.017626  0  3.929763  0  0  -0.011346  0  3.936141  0  0  -0.079193  -0.021902  0  3.925422  0
Cl  Cl30  1  0.07654329  0.08280590  0.69748862  1  0  -0.094166  0  1.3023  0  -0.160065  0  -0.095585  0  1.528143  0  0  -0.097379  0  1.516947  0  0  -0.019513  -0.09419  0  1.536042  0
Cl  Cl31  1  0.92346531  0.91718454  0.30253008  1  0  -0.09409  0  1.302486  0  -0.159965  0  -0.095543  0  1.528282  0  0  -0.097325  0  1.51711  0  0  -0.019503  -0.094148  0  1.536179  0
Cl  Cl32  1  0.42199027  0.17701563  0.70169942  1  0  -0.090438  0  1.287602  0  -0.175686  0  -0.083253  0  1.502562  0  0  -0.0842  0  1.491521  0  0  0.006249  -0.082644  0  1.51036  0
Cl  Cl33  1  0.57801663  0.82297968  0.29831817  1  0  -0.090479  0  1.287475  0  -0.175669  0  -0.083333  0  1.502374  0  0  -0.084269  0  1.491353  0  0  0.006187  -0.082724  0  1.510172  0
Cl  Cl34  1  0.20818828  0.31533621  0.60937666  1  0  -0.103995  0  1.281532  0  -0.174542  0  -0.096847  0  1.497934  0  0  -0.098362  0  1.485376  0  0  -0.017492  -0.095779  0  1.506866  0
Cl  Cl35  1  0.79181106  0.68464125  0.39062751  1  0  -0.104137  0  1.281259  0  -0.17459  0  -0.097017  0  1.497607  0  0  -0.098517  0  1.485067  0  0  -0.017576  -0.095949  0  1.506541  0
Cl  Cl36  1  0.23914841  0.26758508  0.32429555  1  0  -0.07945  0  1.306155  0  -0.153554  0  -0.075946  0  1.521432  0  0  -0.077425  0  1.510842  0  0  -0.021597  -0.074877  0  1.528958  0
Cl  Cl37  1  0.76084507  0.73243060  0.67570870  1  0  -0.07948  0  1.30611  0  -0.153593  0  -0.075999  0  1.521373  0  0  -0.077477  0  1.510783  0  0  -0.02157  -0.074929  0  1.528897  0
Cl  Cl38  1  0.90560099  0.26995725  0.25930941  1  0  -0.083681  0  1.268034  0  -0.166235  0  -0.078492  0  1.480822  0  0  -0.079094  0  1.470163  0  0  0.00852  -0.078082  0  1.488452  0
Cl  Cl39  1  0.09438259  0.73004057  0.74068445  1  0  -0.083557  0  1.2684  0  -0.16622  0  -0.078388  0  1.481171  0  0  -0.078992  0  1.470515  0  0  0.008624  -0.077979  0  1.488795  0
Cl  Cl40  1  0.04682386  0.12608556  0.09763850  1  0  -0.080361  0  1.334655  0  -0.179739  0  -0.064769  0  1.583973  0  0  -0.067682  0  1.573926  0  0  0.00863  -0.062748  0  1.591211  0
Cl  Cl41  1  0.95317862  0.87391648  0.90236556  1  0  -0.080474  0  1.334585  0  -0.180009  0  -0.064892  0  1.58387  0  0  -0.067805  0  1.573822  0  0  0.008562  -0.062871  0  1.591105  0
O  O42  1  0.43541109  0.87445931  0.02384862  1  0  -0.375237  0  2.286748  0  -1.087327  0  -0.29608  0  2.541221  0  0  -0.314665  0  2.544173  0  0  -0.270954  -0.282848  0  2.5388  0
O  O43  1  0.56460951  0.12554786  0.97615909  1  0  -0.375164  0  2.28659  0  -1.087244  0  -0.296112  0  2.541027  0  0  -0.314686  0  2.54399  0  0  -0.270887  -0.282872  0  2.53862  0
O  O44  1  0.14633665  0.35847377  0.85167615  1  0  -0.652555  0  2.064178  0  -1.220345  0  -0.594777  0  2.294546  0  0  -0.621623  0  2.287136  0  0  -0.341496  -0.575859  0  2.299069  0
O  O45  1  0.85365586  0.64152324  0.14832603  1  0  -0.652533  0  2.064075  0  -1.22015  0  -0.594771  0  2.29451  0  0  -0.621629  0  2.287116  0  0  -0.341475  -0.575842  0  2.299009  0
O  O46  1  0.40164889  0.35158358  0.90674530  1  0  -0.649928  0  2.039118  0  -1.230834  0  -0.598684  0  2.289907  0  0  -0.624298  0  2.283219  0  0  -0.354391  -0.580614  0  2.293975  0
O  O47  1  0.59834928  0.64843213  0.09325702  1  0  -0.649865  0  2.03937  0  -1.2309  0  -0.598538  0  2.290061  0  0  -0.624147  0  2.283369  0  0  -0.354283  -0.580471  0  2.294128  0
O  O48  1  0.29768752  0.44087890  0.16397855  1  0  -0.636574  0  2.026653  0  -1.220119  0  -0.582386  0  2.254745  0  0  -0.608129  0  2.246465  0  0  -0.332108  -0.56428  0  2.259866  0
O  O49  1  0.70227955  0.55911185  0.83601238  1  0  -0.636591  0  2.0262  0  -1.220027  0  -0.582448  0  2.254284  0  0  -0.608201  0  2.246015  0  0  -0.33215  -0.56434  0  2.259396  0
O  O50  1  0.03515414  0.42104242  0.09590330  1  0  -0.677927  0  2.037501  0  -1.239476  0  -0.621392  0  2.281058  0  0  -0.648314  0  2.274603  0  0  -0.372527  -0.602409  0  2.284864  0
O  O51  1  0.96482066  0.57896312  0.90408576  1  0  -0.677729  0  2.03807  0  -1.23913  0  -0.621154  0  2.281561  0  0  -0.648062  0  2.275104  0  0  -0.372447  -0.602179  0  2.285366  0
O  O52  1  0.41413779  0.61577411  0.80768471  1  0  -0.866499  0  1.795055  0  -1.277021  0  -0.818145  0  1.960799  0  0  -0.836584  0  1.933141  0  0  -0.619812  -0.805025  0  1.980139  0
O  O53  1  0.58586006  0.38422780  0.19230973  1  0  -0.866753  0  1.794724  0  -1.276976  0  -0.818374  0  1.960416  0  0  -0.836809  0  1.932756  0  0  -0.619848  -0.80525  0  1.979768  0
O  O54  1  0.17288850  0.74909137  0.17555292  1  0  -0.875589  0  1.789405  0  -1.306664  0  -0.827969  0  1.962543  0  0  -0.84648  0  1.934581  0  0  -0.623489  -0.814809  0  1.982049  0
O  O55  1  0.82710271  0.25091145  0.82444173  1  0  -0.875647  0  1.789402  0  -1.306602  0  -0.828036  0  1.962442  0  0  -0.846546  0  1.934489  0  0  -0.623533  -0.814875  0  1.981952  0
