# generated using pymatgen
data_ZnH15C21N5O4
_symmetry_space_group_name_H-M   'P 1'
_cell_length_a   10.84255765
_cell_length_b   13.78803084
_cell_length_c   15.23419511
_cell_angle_alpha   89.72721280
_cell_angle_beta   89.58529441
_cell_angle_gamma   90.86404142
_symmetry_Int_Tables_number   1
_chemical_formula_structural   ZnH15C21N5O4
_chemical_formula_sum   'Zn2 H30 C42 N10 O8'
_cell_volume   2277.12875045
_cell_formula_units_Z   2
loop_
 _symmetry_equiv_pos_site_id
 _symmetry_equiv_pos_as_xyz
  1  'x, y, z'
loop_
 _atom_site_type_symbol
 _atom_site_label
 _atom_site_symmetry_multiplicity
 _atom_site_fract_x
 _atom_site_fract_y
 _atom_site_fract_z
 _atom_site_occupancy
 _atom_site_pbe_bader_charge
 _atom_site_pbe_bader_spin_density
 _atom_site_pbe_cm5_charge
 _atom_site_pbe_ddec_charge
 _atom_site_pbe_ddec_spin_density
 _atom_site_pbe_ddec_sum_bond_order
 _atom_site_pbe_magmom
Zn  Zn0  1  0.49661219  0.40119916  0.50174265  1  1.276657  0  0.664956  0.810134  0  2.442237  0
Zn  Zn1  1  0.50352035  0.60346419  0.50054501  1  1.282829  0  0.664701  0.810651  0  2.460902  0
H  H2  1  0.09373412  0.41391557  0.61922872  1  0.041223  0  0.091972  0.098391  0  1.000387  0
H  H3  1  0.90536488  0.58988465  0.37343420  1  0.056904  0  0.090758  0.096392  0  1.003081  0
H  H4  1  0.45584721  0.25071816  0.92406205  1  0.047151  0  0.099461  0.101264  0  0.996573  0
H  H5  1  0.54683351  0.74301312  0.07783430  1  0.048946  0  0.098942  0.10004  0  0.997133  0
H  H6  1  0.67179065  0.25566979  0.44440011  1  0.110508  0  0.119667  0.090825  0  1.033645  0
H  H7  1  0.32738113  0.74963369  0.55612645  1  0.112008  0  0.121662  0.097184  0  1.023003  0
H  H8  1  0.32592083  0.25074655  0.55540804  1  0.079732  0  0.120287  0.09222  0  1.011371  0
H  H9  1  0.67914672  0.75509378  0.45456424  1  0.10926  0  0.119525  0.095157  0  1.01747  0
H  H10  1  0.97225141  0.26055192  0.50608137  1  0.396525  0  0.283206  0.27264  0  0.972792  0
H  H11  1  0.83549740  0.30429126  0.53583831  1  0.411552  0  0.282214  0.273834  0  0.993746  0
H  H12  1  0.02796515  0.74090072  0.47245401  1  0.389969  0  0.279723  0.266208  0  0.981931  0
H  H13  1  0.17062242  0.69670180  0.46648062  1  0.442577  0  0.27973  0.270399  0  1.010193  0
H  H14  1  0.00521810  0.39080064  0.30278265  1  0.388693  0  0.287367  0.277512  0  0.970475  0
H  H15  1  0.14272399  0.44452042  0.31057634  1  0.407387  0  0.289079  0.282233  0  0.964819  0
H  H16  1  0.99573279  0.63870556  0.67286312  1  0.40454  0  0.286629  0.276301  0  0.977674  0
H  H17  1  0.88606684  0.55611809  0.69507156  1  0.398171  0  0.291719  0.283231  0  0.959629  0
H  H18  1  0.54275499  0.65330220  0.22053379  1  0.064248  0  0.099514  0.107714  0  1.012016  0
H  H19  1  0.45351547  0.34140468  0.78076814  1  0.092433  0  0.100173  0.108208  0  1.01156  0
H  H20  1  0.50585647  0.34339086  0.22605736  1  0.079258  0  0.10253  0.112426  0  1.004967  0
H  H21  1  0.50050101  0.65055580  0.77630423  1  0.096836  0  0.103807  0.114032  0  1.004924  0
H  H22  1  0.47708559  0.25125959  0.08565554  1  0.059827  0  0.099939  0.101829  0  0.996332  0
H  H23  1  0.52758290  0.74224453  0.91574183  1  0.072113  0  0.101338  0.104228  0  0.993551  0
H  H24  1  0.20224210  0.16859069  0.61634246  1  0.426988  0  0.30357  0.292003  0  0.961816  0
H  H25  1  0.14765683  0.06256584  0.65465465  1  0.417893  0  0.303525  0.291604  0  0.950038  0
H  H26  1  0.80401853  0.83985564  0.38327262  1  0.453072  0  0.308829  0.299608  0  0.955353  0
H  H27  1  0.88820238  0.94466051  0.38757488  1  0.43708  0  0.304509  0.292308  0  0.97015  0
H  H28  1  0.85670028  0.08603135  0.35283207  1  0.427933  0  0.301054  0.285323  0  0.953585  0
H  H29  1  0.82093195  0.18108107  0.41646321  1  0.468429  0  0.28866  0.284077  0  1.015674  0
H  H30  1  0.17285484  0.82717517  0.57813724  1  0.45778  0  0.288461  0.280527  0  1.015122  0
H  H31  1  0.10281173  0.93486048  0.58523647  1  0.438339  0  0.301999  0.291162  0  0.952853  0
C  C32  1  0.47280062  0.49611379  0.67177848  1  1.53842  0  0.209306  0.588323  0  4.18137  0
C  C33  1  0.52586390  0.50122093  0.33007897  1  1.589693  0  0.207816  0.586213  0  4.183146  0
C  C34  1  0.50769604  0.49690004  0.04729614  1  0.031985  0  0.002248  0.003546  0  3.909882  0
C  C35  1  0.49601535  0.49656810  0.95443037  1  -0.019329  0  0.002117  0.003011  0  3.910749  0
C  C36  1  0.52545237  0.58667730  0.09253667  1  -0.01634  0  -0.012832  0.071679  0  4.055793  0
C  C37  1  0.47699883  0.40708740  0.90891523  1  -0.001616  0  -0.011994  0.072219  0  4.048957  0
C  C38  1  0.48218246  0.31906503  0.04838952  1  -0.091291  0  -0.095273  -0.138753  0  4.032368  0
C  C39  1  0.52211982  0.67465484  0.95329333  1  -0.05046  0  -0.094325  -0.137852  0  4.032645  0
C  C40  1  0.47039927  0.31878955  0.95913884  1  0.025419  0  -0.096877  -0.139842  0  4.033287  0
C  C41  1  0.53281951  0.67504399  0.04251150  1  -0.083978  0  -0.096106  -0.138202  0  4.034733  0
C  C42  1  0.59839228  0.20827166  0.46985323  1  0.444016  0  0.040172  0.03285  0  3.897077  0
C  C43  1  0.40201933  0.79697041  0.53251174  1  0.453845  0  0.041726  0.03466  0  3.893552  0
C  C44  1  0.40114677  0.20511741  0.53323136  1  0.550433  0  0.042604  0.034853  0  3.908014  0
C  C45  1  0.60187116  0.80024116  0.47365827  1  0.534824  0  0.042014  0.035138  0  3.899636  0
C  C46  1  0.39597969  0.10346871  0.53578563  1  -0.037551  0  -0.007785  -0.03834  0  4.047506  0
C  C47  1  0.60607422  0.90186594  0.47007696  1  -0.05458  0  -0.007142  -0.039914  0  4.034331  0
C  C48  1  0.60604922  0.10678309  0.47013946  1  0.039766  0  -0.006919  -0.035663  0  4.031748  0
C  C49  1  0.39493941  0.89838760  0.53312917  1  0.061929  0  -0.007328  -0.03954  0  4.03101  0
C  C50  1  0.50093818  0.05364914  0.50250539  1  -0.01919  0  -0.006404  -0.001698  0  4.025829  0
C  C51  1  0.50048088  0.95183629  0.50178201  1  0.013429  0  -0.004  0.00484  0  4.023975  0
C  C52  1  0.29118516  0.04974939  0.56897574  1  0.392152  0  0.077191  0.126154  0  4.073993  0
C  C53  1  0.71236679  0.95533640  0.43825294  1  0.41484  0  0.083906  0.143737  0  4.081153  0
C  C54  1  0.71282669  0.05668118  0.43823101  1  0.481314  0  0.080735  0.133972  0  4.066656  0
C  C55  1  0.28779536  0.94863212  0.56412727  1  0.485492  0  0.08532  0.144043  0  4.074469  0
C  C56  1  0.73840809  0.50173812  0.51141025  1  1.573656  0  0.212588  0.613277  0  4.166225  0
C  C57  1  0.26044739  0.50429412  0.48493289  1  1.524579  0  0.212657  0.607578  0  4.172011  0
C  C58  1  0.95723649  0.40724637  0.49604249  1  0.389298  0  0.081881  0.212833  0  3.723662  0
C  C59  1  0.04020491  0.59600521  0.49645259  1  0.406124  0  0.082382  0.212901  0  3.720146  0
C  C60  1  0.03335999  0.45815842  0.41941631  1  0.428558  0  0.089951  0.221105  0  3.730681  0
C  C61  1  0.96537141  0.54524038  0.57322431  1  0.435229  0  0.091562  0.22133  0  3.740012  0
C  C62  1  0.04907985  0.45238275  0.56514686  1  -0.071127  0  -0.093347  -0.210671  0  3.641259  0
C  C63  1  0.94888684  0.55084045  0.42765591  1  -0.084774  0  -0.095175  -0.211417  0  3.661064  0
C  C64  1  0.12362529  0.50457234  0.48890006  1  0.040736  0  -0.010848  -0.122087  0  3.668504  0
C  C65  1  0.87435545  0.49860036  0.50299889  1  -0.027942  0  -0.013803  -0.121654  0  3.669471  0
C  C66  1  0.53273848  0.58563813  0.18429725  1  0.017101  0  -0.08756  -0.151774  0  3.952962  0
C  C67  1  0.46690871  0.40867251  0.81711574  1  -0.077859  0  -0.087034  -0.150323  0  3.943708  0
C  C68  1  0.52505955  0.49852094  0.23159244  1  -0.043051  0  -0.024208  -0.028156  0  4.014745  0
C  C69  1  0.47604618  0.49604029  0.77026599  1  -0.031168  0  -0.022448  -0.028446  0  4.011083  0
C  C70  1  0.51110213  0.41025381  0.18757469  1  -0.027894  0  -0.085347  -0.150263  0  3.939903  0
C  C71  1  0.49337615  0.58370597  0.81464537  1  -0.006672  0  -0.084378  -0.145801  0  3.940128  0
C  C72  1  0.50091848  0.40776553  0.09576557  1  -0.037796  0  -0.012608  0.071759  0  4.048725  0
C  C73  1  0.50337293  0.58582211  0.90624714  1  -0.034783  0  -0.012147  0.071342  0  4.055298  0
N  N74  1  0.49892901  0.25411515  0.50063833  1  -1.263642  0  -0.331008  -0.185561  0  3.605073  0
N  N75  1  0.50260073  0.75095209  0.50372320  1  -1.25577  0  -0.328858  -0.186282  0  3.59609  0
N  N76  1  0.90692533  0.31078558  0.49182777  1  -1.145402  0  -0.615064  -0.642756  0  3.26735  0
N  N77  1  0.08837069  0.69352766  0.49973782  1  -1.196736  0  -0.617401  -0.644314  0  3.259502  0
N  N78  1  0.07559861  0.40727273  0.34447380  1  -1.143233  0  -0.622314  -0.650725  0  3.26714  0
N  N79  1  0.92541640  0.59827465  0.64704198  1  -1.153037  0  -0.619668  -0.644062  0  3.27802  0
N  N80  1  0.18800736  0.09735269  0.60246116  1  -1.191449  0  -0.599788  -0.605244  0  3.308204  0
N  N81  1  0.81654357  0.90516334  0.41230476  1  -1.248298  0  -0.598161  -0.609661  0  3.35954  0
N  N82  1  0.81868848  0.10731255  0.41071879  1  -1.240009  0  -0.602468  -0.612684  0  3.346175  0
N  N83  1  0.18311383  0.89881214  0.59367764  1  -1.249613  0  -0.597695  -0.600245  0  3.33232  0
O  O84  1  0.45297935  0.41527714  0.63384706  1  -1.174802  0  -0.325414  -0.55709  0  2.318968  0
O  O85  1  0.50904879  0.58345696  0.36532876  1  -1.166129  0  -0.322708  -0.551618  0  2.323777  0
O  O86  1  0.54092839  0.42121946  0.37069477  1  -1.170084  0  -0.322469  -0.552156  0  2.316111  0
O  O87  1  0.49259907  0.57728125  0.63357728  1  -1.17357  0  -0.318506  -0.547491  0  2.330857  0
O  O88  1  0.68063584  0.42358408  0.53297196  1  -1.171048  0  -0.320486  -0.554372  0  2.301058  0
O  O89  1  0.31526332  0.58647629  0.49242808  1  -1.176068  0  -0.31491  -0.547204  0  2.351167  0
O  O90  1  0.31221966  0.42276926  0.47605197  1  -1.170884  0  -0.317171  -0.541393  0  2.310621  0
O  O91  1  0.68980271  0.58367486  0.49705404  1  -1.162526  0  -0.315705  -0.543772  0  2.339308  0
