# generated using pymatgen
data_HgH9C8SCl2
_symmetry_space_group_name_H-M   'P 1'
_cell_length_a   5.85782518
_cell_length_b   11.75742810
_cell_length_c   15.03803647
_cell_angle_alpha   92.31334616
_cell_angle_beta   89.99995622
_cell_angle_gamma   89.99980030
_symmetry_Int_Tables_number   1
_chemical_formula_structural   HgH9C8SCl2
_chemical_formula_sum   'Hg4 H36 C32 S4 Cl8'
_cell_volume   1034.86997393
_cell_formula_units_Z   4
loop_
 _symmetry_equiv_pos_site_id
 _symmetry_equiv_pos_as_xyz
  1  'x, y, z'
loop_
 _atom_site_type_symbol
 _atom_site_label
 _atom_site_symmetry_multiplicity
 _atom_site_fract_x
 _atom_site_fract_y
 _atom_site_fract_z
 _atom_site_occupancy
 _atom_site_hle17_bader_spin_density
 _atom_site_hle17_ddec_charge
 _atom_site_hle17_ddec_spin_density
 _atom_site_hle17_ddec_sum_bond_order
 _atom_site_hle17_magmom
 _atom_site_hse06_10hf_bader_spin_density
 _atom_site_hse06_10hf_ddec_charge
 _atom_site_hse06_10hf_ddec_spin_density
 _atom_site_hse06_10hf_ddec_sum_bond_order
 _atom_site_hse06_10hf_magmom
 _atom_site_hse06_bader_spin_density
 _atom_site_hse06_ddec_charge
 _atom_site_hse06_ddec_spin_density
 _atom_site_hse06_ddec_sum_bond_order
 _atom_site_hse06_magmom
 _atom_site_pbe_bader_spin_density
 _atom_site_pbe_cm5_charge
 _atom_site_pbe_ddec_charge
 _atom_site_pbe_ddec_spin_density
 _atom_site_pbe_ddec_sum_bond_order
 _atom_site_pbe_magmom
Hg  Hg0  1  0.93839456  0.12487147  0.75928434  1  0  0.663846  0  2.135457  0  0  0.536739  0  2.635889  0  0  0.579086  0  2.603872  0  0  0.44229  0.507874  0  2.657288  0
Hg  Hg1  1  0.43840443  0.87512395  0.74071580  1  0  0.663806  0  2.135443  0  0  0.536699  0  2.635856  0  0  0.579046  0  2.60384  0  0  0.442277  0.507838  0  2.657252  0
Hg  Hg2  1  0.06159634  0.87512277  0.24071402  1  0  0.663824  0  2.135463  0  0  0.536717  0  2.63589  0  0  0.579064  0  2.603879  0  0  0.442278  0.507854  0  2.657293  0
Hg  Hg3  1  0.56158647  0.12488050  0.25928619  1  0  0.663826  0  2.135458  0  0  0.536707  0  2.635899  0  0  0.579055  0  2.603883  0  0  0.442276  0.507844  0  2.657289  0
H  H4  1  0.23968585  0.33145418  0.68609985  1  0  0.094602  0  0.965107  0  0  0.103886  0  1.032091  0  0  0.106338  0  1.031219  0  0  0.094524  0.102084  0  1.032793  0
H  H5  1  0.73970627  0.66853991  0.81390428  1  0  0.094649  0  0.965059  0  0  0.103889  0  1.032086  0  0  0.106346  0  1.031219  0  0  0.094494  0.102088  0  1.032788  0
H  H6  1  0.76029823  0.66853752  0.31390441  1  0  0.09463  0  0.964965  0  0  0.103868  0  1.031999  0  0  0.106325  0  1.03113  0  0  0.094491  0.102063  0  1.032708  0
H  H7  1  0.26028292  0.33147390  0.18609068  1  0  0.094609  0  0.964953  0  0  0.103841  0  1.03201  0  0  0.106297  0  1.031137  0  0  0.094466  0.102039  0  1.032706  0
H  H8  1  0.30161937  0.54044790  0.69740372  1  0  0.088542  0  0.970754  0  0  0.098471  0  1.033586  0  0  0.100004  0  1.035317  0  0  0.09636  0.097344  0  1.032496  0
H  H9  1  0.80163954  0.45954437  0.80260167  1  0  0.088599  0  0.970721  0  0  0.098474  0  1.033611  0  0  0.100033  0  1.035247  0  0  0.096417  0.097345  0  1.032516  0
H  H10  1  0.69837153  0.45954210  0.30260382  1  0  0.088507  0  0.970675  0  0  0.098414  0  1.033541  0  0  0.099955  0  1.035242  0  0  0.096346  0.097283  0  1.032447  0
H  H11  1  0.19837526  0.54047367  0.19739009  1  0  0.088549  0  0.97058  0  0  0.098399  0  1.033538  0  0  0.09996  0  1.035181  0  0  0.096368  0.097272  0  1.032442  0
H  H12  1  0.00614585  0.67211728  0.64230072  1  0  0.086204  0  0.973919  0  0  0.091116  0  1.047263  0  0  0.094172  0  1.045172  0  0  0.087766  0.088916  0  1.048768  0
H  H13  1  0.50616506  0.32787551  0.85770009  1  0  0.086276  0  0.973844  0  0  0.091228  0  1.047156  0  0  0.094233  0  1.04513  0  0  0.087779  0.088998  0  1.048685  0
H  H14  1  0.99385700  0.32787612  0.35770427  1  0  0.086239  0  0.973848  0  0  0.091164  0  1.047183  0  0  0.094219  0  1.045092  0  0  0.087752  0.088962  0  1.048686  0
H  H15  1  0.49387364  0.67213318  0.14229338  1  0  0.086359  0  0.973805  0  0  0.09131  0  1.04711  0  0  0.094325  0  1.045055  0  0  0.087818  0.089082  0  1.048635  0
H  H16  1  0.64593826  0.59518520  0.57652794  1  0  0.088649  0  0.98694  0  0  0.096885  0  1.053103  0  0  0.100006  0  1.051346  0  0  0.08831  0.09462  0  1.054423  0
H  H17  1  0.14595253  0.40480817  0.92346422  1  0  0.088662  0  0.986988  0  0  0.096903  0  1.053153  0  0  0.100025  0  1.051397  0  0  0.088327  0.094678  0  1.054431  0
H  H18  1  0.35406971  0.40481328  0.42346590  1  0  0.088691  0  0.986931  0  0  0.096923  0  1.053101  0  0  0.100047  0  1.051341  0  0  0.08833  0.094673  0  1.054418  0
H  H19  1  0.85408105  0.59518777  0.07653485  1  0  0.088662  0  0.987046  0  0  0.096885  0  1.053218  0  0  0.100006  0  1.051466  0  0  0.088301  0.094661  0  1.054517  0
H  H20  1  0.58810867  0.38456670  0.55961010  1  0  0.099079  0  0.955217  0  0  0.109786  0  1.017039  0  0  0.112492  0  1.015941  0  0  0.098052  0.107841  0  1.017897  0
H  H21  1  0.08811974  0.61542422  0.94038466  1  0  0.099018  0  0.955343  0  0  0.10974  0  1.01716  0  0  0.112437  0  1.016061  0  0  0.09804  0.107795  0  1.01802  0
H  H22  1  0.41189248  0.61543092  0.44038171  1  0  0.099065  0  0.955253  0  0  0.109772  0  1.017082  0  0  0.112478  0  1.015988  0  0  0.098041  0.107824  0  1.017944  0
H  H23  1  0.91189506  0.38457003  0.05962035  1  0  0.099078  0  0.955198  0  0  0.109782  0  1.017039  0  0  0.112487  0  1.015945  0  0  0.098046  0.107836  0  1.017899  0
H  H24  1  0.08417667  0.19595676  0.47723728  1  0  0.110294  0  0.929314  0  0  0.126113  0  0.989616  0  0  0.127138  0  0.989589  0  0  0.09832  0.125246  0  0.989841  0
H  H25  1  0.58417308  0.80404137  0.02276476  1  0  0.110217  0  0.929311  0  0  0.126025  0  0.98962  0  0  0.127048  0  0.989598  0  0  0.098307  0.125157  0  0.989847  0
H  H26  1  0.91581765  0.80403322  0.52276028  1  0  0.110273  0  0.92934  0  0  0.126042  0  0.989692  0  0  0.127076  0  0.989658  0  0  0.098313  0.12517  0  0.989922  0
H  H27  1  0.41581953  0.19596480  0.97723928  1  0  0.110247  0  0.92931  0  0  0.126045  0  0.989671  0  0  0.127069  0  0.989647  0  0  0.098326  0.125178  0  0.989895  0
H  H28  1  0.25883526  0.18145750  0.57397416  1  0  0.097899  0  0.952546  0  0  0.109003  0  1.022879  0  0  0.110153  0  1.02276  0  0  0.089882  0.108106  0  1.023072  0
H  H29  1  0.75883898  0.81853996  0.92603140  1  0  0.097809  0  0.95257  0  0  0.108878  0  1.022956  0  0  0.110028  0  1.022838  0  0  0.089824  0.107978  0  1.023155  0
H  H30  1  0.74116076  0.81853163  0.42602271  1  0  0.097844  0  0.952592  0  0  0.108935  0  1.022923  0  0  0.110087  0  1.022804  0  0  0.089833  0.108033  0  1.023119  0
H  H31  1  0.24115533  0.18146961  0.07397407  1  0  0.097807  0  0.952593  0  0  0.108926  0  1.022917  0  0  0.110077  0  1.022799  0  0  0.08983  0.108013  0  1.023129  0
H  H32  1  0.12198138  0.98213614  0.58892167  1  0  0.061961  0  0.979182  0  0  0.074738  0  1.053961  0  0  0.074873  0  1.055239  0  0  0.069127  0.074507  0  1.053198  0
H  H33  1  0.62198207  0.01786070  0.91108057  1  0  0.061932  0  0.979194  0  0  0.074727  0  1.053983  0  0  0.074861  0  1.055262  0  0  0.069125  0.074496  0  1.053222  0
H  H34  1  0.87800952  0.01785468  0.41107659  1  0  0.061896  0  0.979246  0  0  0.074695  0  1.053988  0  0  0.074823  0  1.055269  0  0  0.069127  0.074463  0  1.053226  0
H  H35  1  0.37801054  0.98214632  0.08892615  1  0  0.061966  0  0.979246  0  0  0.074712  0  1.054008  0  0  0.074846  0  1.055287  0  0  0.069137  0.07448  0  1.053248  0
H  H36  1  0.26187124  0.00280539  0.48754236  1  0  0.085179  0  0.927054  0  0  0.103133  0  0.986428  0  0  0.103824  0  0.986933  0  0  0.088609  0.10256  0  0.986228  0
H  H37  1  0.76186978  0.99719157  0.01246095  1  0  0.085092  0  0.927099  0  0  0.103074  0  0.986485  0  0  0.103763  0  0.986993  0  0  0.088595  0.102501  0  0.986286  0
H  H38  1  0.73811795  0.99718374  0.51245718  1  0  0.085104  0  0.927077  0  0  0.103015  0  0.986494  0  0  0.103704  0  0.986998  0  0  0.08858  0.10244  0  0.986296  0
H  H39  1  0.23811600  0.00281460  0.98754509  1  0  0.085144  0  0.927065  0  0  0.103036  0  0.986455  0  0  0.103726  0  0.986962  0  0  0.088603  0.102461  0  0.986258  0
C  C40  1  0.91091281  0.34628106  0.62117548  1  0  0.008961  0  3.782414  0  0  0.03055  0  4.032773  0  0  0.029491  0  4.059108  0  0  -0.01859  0.031182  0  4.014951  0
C  C41  1  0.41092039  0.65371015  0.87882255  1  0  0.008862  0  3.782268  0  0  0.030404  0  4.032717  0  0  0.029346  0  4.059047  0  0  -0.018662  0.031032  0  4.014907  0
C  C42  1  0.08908150  0.65371317  0.37882288  1  0  0.009011  0  3.782378  0  0  0.030588  0  4.032753  0  0  0.029532  0  4.059088  0  0  -0.01856  0.031222  0  4.014932  0
C  C43  1  0.58907222  0.34629345  0.12117742  1  0  0.008834  0  3.782383  0  0  0.03042  0  4.032776  0  0  0.029362  0  4.05911  0  0  -0.018619  0.031056  0  4.014951  0
C  C44  1  0.11172864  0.38916400  0.66047348  1  0  -0.117932  0  3.768306  0  0  -0.135475  0  4.011255  0  0  -0.138153  0  4.033897  0  0  -0.094483  -0.133526  0  3.995892  0
C  C45  1  0.61174426  0.61083287  0.83953009  1  0  -0.117945  0  3.768296  0  0  -0.135416  0  4.011233  0  0  -0.138107  0  4.033886  0  0  -0.094446  -0.133475  0  3.995876  0
C  C46  1  0.88826567  0.61082939  0.33952884  1  0  -0.118036  0  3.768417  0  0  -0.135525  0  4.011365  0  0  -0.138213  0  4.034014  0  0  -0.094497  -0.133581  0  3.996007  0
C  C47  1  0.38826029  0.38918434  0.16046364  1  0  -0.117825  0  3.768465  0  0  -0.135293  0  4.011339  0  0  -0.137975  0  4.033983  0  0  -0.094336  -0.133351  0  3.995975  0
C  C48  1  0.14516726  0.50658536  0.66735428  1  0  -0.056896  0  3.75268  0  0  -0.066323  0  3.992094  0  0  -0.068984  0  4.015455  0  0  -0.087163  -0.064501  0  3.976255  0
C  C49  1  0.64518541  0.49341655  0.83264810  1  0  -0.056905  0  3.752624  0  0  -0.066293  0  3.992077  0  0  -0.068932  0  4.015435  0  0  -0.087174  -0.064461  0  3.976215  0
C  C50  1  0.85482364  0.49341400  0.33265154  1  0  -0.05673  0  3.752648  0  0  -0.066134  0  3.992065  0  0  -0.06879  0  4.015433  0  0  -0.087101  -0.06431  0  3.976214  0
C  C51  1  0.35482939  0.50659469  0.16734478  1  0  -0.056925  0  3.752618  0  0  -0.066283  0  3.992041  0  0  -0.068933  0  4.015407  0  0  -0.087207  -0.064455  0  3.97618  0
C  C52  1  0.97827659  0.58041959  0.63648531  1  0  -0.054842  0  3.73286  0  0  -0.068363  0  3.977911  0  0  -0.069705  0  3.999165  0  0  -0.085084  -0.067359  0  3.96351  0
C  C53  1  0.47829604  0.41957404  0.86350879  1  0  -0.05506  0  3.732786  0  0  -0.068612  0  3.977812  0  0  -0.069927  0  3.999087  0  0  -0.085144  -0.067582  0  3.963438  0
C  C54  1  0.02171773  0.41957635  0.36351376  1  0  -0.054999  0  3.732743  0  0  -0.068549  0  3.977824  0  0  -0.069893  0  3.999084  0  0  -0.085092  -0.067539  0  3.963419  0
C  C55  1  0.52172388  0.58043294  0.13648397  1  0  -0.055115  0  3.732719  0  0  -0.068691  0  3.977768  0  0  -0.069996  0  3.99904  0  0  -0.085141  -0.067658  0  3.963396  0
C  C56  1  0.77707584  0.53694818  0.59870452  1  0  -0.058322  0  3.747427  0  0  -0.067974  0  3.989175  0  0  -0.071066  0  4.011795  0  0  -0.089433  -0.065808  0  3.973827  0
C  C57  1  0.27708976  0.46304072  0.90129479  1  0  -0.058162  0  3.747048  0  0  -0.06782  0  3.988839  0  0  -0.07091  0  4.011445  0  0  -0.089379  -0.065687  0  3.973471  0
C  C58  1  0.22292360  0.46304520  0.40129447  1  0  -0.058178  0  3.747117  0  0  -0.067821  0  3.988879  0  0  -0.070912  0  4.011496  0  0  -0.089361  -0.065683  0  3.97352  0
C  C59  1  0.72293016  0.53696203  0.09870383  1  0  -0.058236  0  3.747056  0  0  -0.067873  0  3.988835  0  0  -0.070962  0  4.011444  0  0  -0.08942  -0.065757  0  3.973473  0
C  C60  1  0.74283658  0.41951959  0.59033062  1  0  -0.093239  0  3.73391  0  0  -0.112674  0  3.975691  0  0  -0.114477  0  3.997473  0  0  -0.087774  -0.111314  0  3.960823  0
C  C61  1  0.24283603  0.58047276  0.90966547  1  0  -0.093226  0  3.733522  0  0  -0.112672  0  3.975364  0  0  -0.114462  0  3.997134  0  0  -0.087796  -0.1113  0  3.960499  0
C  C62  1  0.25717139  0.58047718  0.40966382  1  0  -0.093392  0  3.733746  0  0  -0.112832  0  3.975567  0  0  -0.114641  0  3.997352  0  0  -0.087893  -0.111469  0  3.960709  0
C  C63  1  0.75717365  0.41952828  0.09033442  1  0  -0.09326  0  3.733351  0  0  -0.112707  0  3.975172  0  0  -0.114514  0  3.996957  0  0  -0.087818  -0.111338  0  3.960317  0
C  C64  1  0.10315476  0.15186578  0.53983750  1  0  -0.14189  0  3.612747  0  0  -0.181649  0  3.872607  0  0  -0.180283  0  3.884205  0  0  -0.148348  -0.18244  0  3.864692  0
C  C65  1  0.60315819  0.84813366  0.96016615  1  0  -0.141642  0  3.612586  0  0  -0.181314  0  3.872406  0  0  -0.179947  0  3.884003  0  0  -0.148241  -0.1821  0  3.864492  0
C  C66  1  0.89683955  0.84812250  0.46015935  1  0  -0.141764  0  3.612741  0  0  -0.181454  0  3.872529  0  0  -0.180097  0  3.884123  0  0  -0.148286  -0.182235  0  3.864605  0
C  C67  1  0.39683612  0.15187591  0.03983932  1  0  -0.141613  0  3.612642  0  0  -0.181372  0  3.872395  0  0  -0.180007  0  3.883998  0  0  -0.148274  -0.182149  0  3.864481  0
C  C68  1  0.10450384  0.02339208  0.52495463  1  0  -0.10656  0  3.696385  0  0  -0.1405  0  3.94197  0  0  -0.142185  0  3.957588  0  0  -0.177886  -0.139139  0  3.931105  0
C  C69  1  0.60450294  0.97660649  0.97504767  1  0  -0.106375  0  3.696381  0  0  -0.14043  0  3.942021  0  0  -0.142115  0  3.957648  0  0  -0.177852  -0.139068  0  3.931154  0
C  C70  1  0.89548876  0.97659789  0.47504427  1  0  -0.106361  0  3.696319  0  0  -0.140207  0  3.941789  0  0  -0.141896  0  3.95744  0  0  -0.177786  -0.138839  0  3.930919  0
C  C71  1  0.39548796  0.02339967  0.02495703  1  0  -0.106593  0  3.696438  0  0  -0.140304  0  3.941877  0  0  -0.141988  0  3.9575  0  0  -0.17783  -0.138939  0  3.931009  0
S  S72  1  0.85807120  0.19764569  0.60743478  1  0  0.110647  0  2.731153  0  0  0.139696  0  3.120966  0  0  0.132332  0  3.122062  0  0  0.072039  0.144307  0  3.120381  0
S  S73  1  0.35808284  0.80234562  0.89256459  1  0  0.110602  0  2.73108  0  0  0.139664  0  3.120885  0  0  0.132299  0  3.121978  0  0  0.072032  0.144274  0  3.120304  0
S  S74  1  0.14192140  0.80234854  0.39256291  1  0  0.110618  0  2.731205  0  0  0.139663  0  3.121008  0  0  0.132296  0  3.122109  0  0  0.072032  0.144272  0  3.120418  0
S  S75  1  0.64190806  0.19766054  0.10743811  1  0  0.110627  0  2.731167  0  0  0.139672  0  3.121029  0  0  0.132306  0  3.122124  0  0  0.072025  0.144282  0  3.120434  0
Cl  Cl76  1  0.91273907  0.90035019  0.75274584  1  0  -0.506937  0  1.076352  0  0  -0.44441  0  1.380183  0  0  -0.465099  0  1.360112  0  0  -0.282109  -0.429544  0  1.393265  0
Cl  Cl77  1  0.41273371  0.09964528  0.74725364  1  0  -0.506937  0  1.076329  0  0  -0.444404  0  1.380153  0  0  -0.465095  0  1.360088  0  0  -0.282101  -0.429538  0  1.39323  0
Cl  Cl78  1  0.08726378  0.09964406  0.24725717  1  0  -0.50694  0  1.076352  0  0  -0.444417  0  1.380188  0  0  -0.465105  0  1.360116  0  0  -0.282111  -0.429551  0  1.393268  0
Cl  Cl79  1  0.58726402  0.90035833  0.25274766  1  0  -0.506941  0  1.076329  0  0  -0.444418  0  1.38018  0  0  -0.465102  0  1.360094  0  0  -0.282104  -0.429552  0  1.393256  0
Cl  Cl80  1  0.92938560  0.21060589  0.90785131  1  0  -0.459267  0  1.019742  0  0  -0.402816  0  1.301563  0  0  -0.420025  0  1.286103  0  0  -0.25444  -0.391029  0  1.312007  0
Cl  Cl81  1  0.42938110  0.78938869  0.59214948  1  0  -0.459254  0  1.019744  0  0  -0.402778  0  1.301534  0  0  -0.419992  0  1.286089  0  0  -0.254434  -0.390983  0  1.311977  0
Cl  Cl82  1  0.07062066  0.78939260  0.09214718  1  0  -0.459243  0  1.01974  0  0  -0.402768  0  1.301566  0  0  -0.419999  0  1.286144  0  0  -0.254413  -0.390977  0  1.312017  0
Cl  Cl83  1  0.57061834  0.21060555  0.40785487  1  0  -0.45926  0  1.019734  0  0  -0.402781  0  1.301551  0  0  -0.420008  0  1.286127  0  0  -0.254427  -0.390988  0  1.311994  0
