# generated using pymatgen
data_CaH2C2O5
_symmetry_space_group_name_H-M   'P 1'
_cell_length_a   6.33092088
_cell_length_b   9.97084731
_cell_length_c   14.60815496
_cell_angle_alpha   90.00000209
_cell_angle_beta   89.99988311
_cell_angle_gamma   106.99811558
_symmetry_Int_Tables_number   1
_chemical_formula_structural   CaH2C2O5
_chemical_formula_sum   'Ca8 H16 C16 O40'
_cell_volume   881.85057255
_cell_formula_units_Z   8
loop_
 _symmetry_equiv_pos_site_id
 _symmetry_equiv_pos_as_xyz
  1  'x, y, z'
loop_
 _atom_site_type_symbol
 _atom_site_label
 _atom_site_symmetry_multiplicity
 _atom_site_fract_x
 _atom_site_fract_y
 _atom_site_fract_z
 _atom_site_occupancy
 _atom_site_hle17_bader_spin_density
 _atom_site_hle17_ddec_charge
 _atom_site_hle17_ddec_spin_density
 _atom_site_hle17_ddec_sum_bond_order
 _atom_site_hle17_magmom
 _atom_site_hse06_10hf_bader_spin_density
 _atom_site_hse06_10hf_ddec_charge
 _atom_site_hse06_10hf_ddec_spin_density
 _atom_site_hse06_10hf_ddec_sum_bond_order
 _atom_site_hse06_10hf_magmom
 _atom_site_hse06_bader_spin_density
 _atom_site_hse06_ddec_charge
 _atom_site_hse06_ddec_spin_density
 _atom_site_hse06_ddec_sum_bond_order
 _atom_site_hse06_magmom
 _atom_site_pbe_bader_spin_density
 _atom_site_pbe_cm5_charge
 _atom_site_pbe_ddec_charge
 _atom_site_pbe_ddec_spin_density
 _atom_site_pbe_ddec_sum_bond_order
 _atom_site_pbe_magmom
Ca  Ca0  1  0.90814187  0.94797158  0.12387631  1  0  1.53671  0  1.123748  0  0  1.397383  0  1.476641  0  0  1.443745  0  1.430563  0  0  0.891297  1.362446  0  1.509265  0
Ca  Ca1  1  0.59185850  0.55202686  0.62387662  1  0  1.536717  0  1.123771  0  0  1.397412  0  1.47662  0  0  1.443779  0  1.430535  0  0  0.891296  1.362474  0  1.509248  0
Ca  Ca2  1  0.09185742  0.05202785  0.87612361  1  0  1.536707  0  1.123768  0  0  1.397386  0  1.476647  0  0  1.443755  0  1.430555  0  0  0.891288  1.362447  0  1.509272  0
Ca  Ca3  1  0.40814079  0.44797257  0.37612330  1  0  1.536708  0  1.123796  0  0  1.39738  0  1.476695  0  0  1.443766  0  1.430578  0  0  0.891296  1.362441  0  1.509322  0
Ca  Ca4  1  0.56046759  0.56320222  0.12311182  1  0  1.518369  0  1.14005  0  0  1.379337  0  1.489996  0  0  1.426605  0  1.444132  0  0  0.895347  1.343833  0  1.5223  0
Ca  Ca5  1  0.93953328  0.93679727  0.62311251  1  0  1.518383  0  1.139997  0  0  1.379395  0  1.489865  0  0  1.426662  0  1.444003  0  0  0.895338  1.343854  0  1.522233  0
Ca  Ca6  1  0.43953219  0.43679826  0.87688810  1  0  1.518375  0  1.140012  0  0  1.37937  0  1.489902  0  0  1.426636  0  1.444039  0  0  0.895337  1.343825  0  1.522281  0
Ca  Ca7  1  0.06046650  0.06320321  0.37688809  1  0  1.518391  0  1.140007  0  0  1.379408  0  1.489869  0  0  1.426673  0  1.444008  0  0  0.895348  1.343836  0  1.52229  0
H  H8  1  0.94281843  0.45170664  0.13457648  1  0  0.42328  0  0.88232  0  0  0.391082  0  0.947315  0  0  0.402954  0  0.930176  0  0  0.301718  0.382696  0  0.959393  0
H  H9  1  0.55718084  0.04829270  0.63457613  1  0  0.423261  0  0.882347  0  0  0.391064  0  0.947342  0  0  0.402936  0  0.930201  0  0  0.301712  0.382678  0  0.959419  0
H  H10  1  0.05718086  0.54829280  0.86542344  1  0  0.423279  0  0.882327  0  0  0.391074  0  0.947333  0  0  0.402946  0  0.930192  0  0  0.301713  0.382688  0  0.95941  0
H  H11  1  0.44281894  0.95170778  0.36542379  1  0  0.423269  0  0.882336  0  0  0.391071  0  0.947333  0  0  0.402943  0  0.930192  0  0  0.301717  0.382684  0  0.959411  0
H  H12  1  0.79785731  0.40673308  0.22337009  1  0  0.409032  0  0.884728  0  0  0.381097  0  0.952148  0  0  0.39021  0  0.938854  0  0  0.31036  0.374678  0  0.961521  0
H  H13  1  0.70214200  0.09326723  0.72337030  1  0  0.409042  0  0.884722  0  0  0.381102  0  0.952144  0  0  0.390215  0  0.93885  0  0  0.310361  0.374684  0  0.961517  0
H  H14  1  0.20214405  0.59326740  0.77662982  1  0  0.409014  0  0.884732  0  0  0.381086  0  0.952151  0  0  0.3902  0  0.938854  0  0  0.310346  0.374669  0  0.961521  0
H  H15  1  0.29785729  0.90673220  0.27662961  1  0  0.409041  0  0.884725  0  0  0.381103  0  0.952143  0  0  0.390216  0  0.93885  0  0  0.310355  0.374686  0  0.961515  0
H  H16  1  0.53809042  0.06371843  0.12549131  1  0  0.420555  0  0.884002  0  0  0.38914  0  0.948482  0  0  0.400642  0  0.931506  0  0  0.298047  0.380928  0  0.960581  0
H  H17  1  0.96190939  0.43628196  0.62549130  1  0  0.420539  0  0.88402  0  0  0.389119  0  0.948509  0  0  0.400623  0  0.931529  0  0  0.298037  0.380906  0  0.960609  0
H  H18  1  0.46190936  0.93628205  0.87450860  1  0  0.420543  0  0.884014  0  0  0.389126  0  0.948498  0  0  0.400631  0  0.931518  0  0  0.29804  0.380914  0  0.960598  0
H  H19  1  0.03809039  0.56371852  0.37450861  1  0  0.420557  0  0.884  0  0  0.389142  0  0.948479  0  0  0.400644  0  0.931504  0  0  0.298047  0.38093  0  0.960579  0
H  H20  1  0.72647763  0.21264145  0.12741961  1  0  0.431076  0  0.863362  0  0  0.402474  0  0.9222  0  0  0.412778  0  0.907124  0  0  0.29526  0.39485  0  0.93332  0
H  H21  1  0.77352216  0.28735894  0.62741907  1  0  0.431145  0  0.863257  0  0  0.402454  0  0.922243  0  0  0.41278  0  0.907143  0  0  0.295237  0.394818  0  0.933371  0
H  H22  1  0.27352215  0.78735903  0.87258099  1  0  0.431156  0  0.863242  0  0  0.402467  0  0.922225  0  0  0.412793  0  0.907125  0  0  0.29524  0.394832  0  0.933352  0
H  H23  1  0.22647761  0.71264154  0.37258084  1  0  0.431079  0  0.863357  0  0  0.402479  0  0.922192  0  0  0.412782  0  0.907118  0  0  0.295261  0.394855  0  0.933314  0
C  C24  1  0.73692689  0.75518761  0.31995796  1  0  0.589259  0  3.861284  0  0  0.543393  0  4.154527  0  0  0.575244  0  4.144156  0  0  0.248627  0.52146  0  4.161149  0
C  C25  1  0.76307297  0.74481171  0.81995812  1  0  0.589295  0  3.861278  0  0  0.54344  0  4.154532  0  0  0.575293  0  4.144159  0  0  0.248632  0.521502  0  4.161156  0
C  C26  1  0.26307082  0.24481183  0.68004196  1  0  0.589195  0  3.861353  0  0  0.543397  0  4.154525  0  0  0.575248  0  4.144153  0  0  0.248618  0.521461  0  4.161149  0
C  C27  1  0.23692632  0.25518773  0.18004249  1  0  0.589242  0  3.861343  0  0  0.543409  0  4.154553  0  0  0.575261  0  4.144181  0  0  0.248631  0.521475  0  4.161177  0
C  C28  1  0.75293985  0.75015612  0.42690164  1  0  0.597412  0  3.849325  0  0  0.551638  0  4.140253  0  0  0.583383  0  4.130319  0  0  0.251997  0.529832  0  4.146558  0
C  C29  1  0.74705945  0.74984310  0.92690181  1  0  0.597397  0  3.849266  0  0  0.551574  0  4.140266  0  0  0.583318  0  4.130334  0  0  0.251997  0.529772  0  4.146569  0
C  C30  1  0.24705785  0.24984333  0.57309828  1  0  0.597501  0  3.849177  0  0  0.551643  0  4.140216  0  0  0.583387  0  4.13028  0  0  0.252012  0.529834  0  4.146525  0
C  C31  1  0.25294141  0.25015633  0.07309879  1  0  0.597426  0  3.849264  0  0  0.551603  0  4.140257  0  0  0.583346  0  4.130322  0  0  0.251985  0.529798  0  4.146559  0
C  C32  1  0.33554345  0.81786880  0.12785653  1  0  0.574417  0  3.888693  0  0  0.526533  0  4.184218  0  0  0.55726  0  4.173825  0  0  0.245036  0.505536  0  4.190879  0
C  C33  1  0.16445865  0.68213094  0.62785472  1  0  0.574459  0  3.888594  0  0  0.526576  0  4.184123  0  0  0.557304  0  4.17373  0  0  0.245063  0.505577  0  4.190781  0
C  C34  1  0.66445791  0.18213168  0.87214339  1  0  0.574505  0  3.888568  0  0  0.526624  0  4.184099  0  0  0.557352  0  4.173703  0  0  0.245091  0.505626  0  4.190755  0
C  C35  1  0.83554162  0.31787059  0.37214451  1  0  0.57441  0  3.888618  0  0  0.526538  0  4.184129  0  0  0.557269  0  4.173733  0  0  0.245074  0.50554  0  4.190784  0
C  C36  1  0.13413462  0.68630556  0.11771571  1  0  0.572604  0  3.893825  0  0  0.526826  0  4.188833  0  0  0.557751  0  4.178897  0  0  0.241381  0.505671  0  4.195194  0
C  C37  1  0.36586654  0.81369209  0.61771441  1  0  0.572509  0  3.893827  0  0  0.526728  0  4.18886  0  0  0.55765  0  4.178929  0  0  0.241336  0.505571  0  4.195216  0
C  C38  1  0.86586466  0.31369387  0.88228421  1  0  0.572527  0  3.893897  0  0  0.526746  0  4.188914  0  0  0.557669  0  4.178981  0  0  0.241365  0.505591  0  4.195267  0
C  C39  1  0.63413274  0.18630735  0.38228482  1  0  0.572517  0  3.893894  0  0  0.526758  0  4.188883  0  0  0.557677  0  4.178958  0  0  0.241353  0.505602  0  4.195235  0
O  O40  1  0.84243289  0.86903089  0.28154649  1  0  -0.68248  0  2.071909  0  0  -0.625345  0  2.32675  0  0  -0.653515  0  2.317857  0  0  -0.361429  -0.60519  0  2.332171  0
O  O41  1  0.65756874  0.63096845  0.78154606  1  0  -0.682494  0  2.071877  0  0  -0.625363  0  2.326728  0  0  -0.653536  0  2.317835  0  0  -0.361442  -0.605223  0  2.332176  0
O  O42  1  0.15756639  0.13096855  0.71845343  1  0  -0.682476  0  2.071956  0  0  -0.625364  0  2.326775  0  0  -0.653538  0  2.317882  0  0  -0.361447  -0.605214  0  2.332197  0
O  O43  1  0.34243213  0.36903098  0.21845455  1  0  -0.682472  0  2.071914  0  0  -0.62534  0  2.326743  0  0  -0.653516  0  2.317851  0  0  -0.36144  -0.605184  0  2.332136  0
O  O44  1  0.87121684  0.86012713  0.46573743  1  0  -0.678746  0  2.070539  0  0  -0.620308  0  2.322487  0  0  -0.649002  0  2.313827  0  0  -0.367531  -0.599869  0  2.327682  0
O  O45  1  0.62878384  0.63987205  0.96573771  1  0  -0.678734  0  2.070529  0  0  -0.62028  0  2.322548  0  0  -0.648969  0  2.313878  0  0  -0.367536  -0.599851  0  2.327741  0
O  O46  1  0.12877929  0.13987232  0.53426249  1  0  -0.678773  0  2.070501  0  0  -0.620293  0  2.322467  0  0  -0.648988  0  2.313812  0  0  -0.367541  -0.599853  0  2.327664  0
O  O47  1  0.37121860  0.36012738  0.03426289  1  0  -0.678755  0  2.070501  0  0  -0.620295  0  2.322479  0  0  -0.648989  0  2.313822  0  0  -0.367538  -0.599865  0  2.32767  0
O  O48  1  0.62038112  0.64524016  0.28072239  1  0  -0.679857  0  2.078904  0  0  -0.622494  0  2.331759  0  0  -0.650717  0  2.323218  0  0  -0.357801  -0.602341  0  2.336911  0
O  O49  1  0.87961893  0.85475919  0.78072245  1  0  -0.679876  0  2.078922  0  0  -0.622519  0  2.331772  0  0  -0.650737  0  2.323229  0  0  -0.357786  -0.602356  0  2.336926  0
O  O50  1  0.37961708  0.35476033  0.71927685  1  0  -0.679848  0  2.078931  0  0  -0.622504  0  2.331748  0  0  -0.65072  0  2.323204  0  0  -0.357778  -0.602341  0  2.336901  0
O  O51  1  0.12038193  0.14524024  0.21927747  1  0  -0.679863  0  2.07894  0  0  -0.622514  0  2.331778  0  0  -0.650731  0  2.323236  0  0  -0.357787  -0.602349  0  2.336929  0
O  O52  1  0.64686563  0.63696652  0.46557460  1  0  -0.67097  0  2.057384  0  0  -0.611742  0  2.305808  0  0  -0.640595  0  2.298267  0  0  -0.356073  -0.591222  0  2.310285  0
O  O53  1  0.85313505  0.86303266  0.96557469  1  0  -0.670949  0  2.057309  0  0  -0.611718  0  2.305782  0  0  -0.640567  0  2.298241  0  0  -0.356091  -0.591198  0  2.310257  0
O  O54  1  0.35313365  0.36303291  0.53442531  1  0  -0.670991  0  2.057306  0  0  -0.611749  0  2.30578  0  0  -0.640602  0  2.298236  0  0  -0.35608  -0.591229  0  2.310258  0
O  O55  1  0.14686424  0.13696678  0.03442591  1  0  -0.670953  0  2.057337  0  0  -0.61171  0  2.305789  0  0  -0.64056  0  2.298246  0  0  -0.356059  -0.59119  0  2.310262  0
O  O56  1  0.29301685  0.93186180  0.14690892  1  0  -0.652043  0  2.08194  0  0  -0.589746  0  2.307897  0  0  -0.61521  0  2.298501  0  0  -0.309194  -0.571945  0  2.314052  0
O  O57  1  0.20698516  0.56813792  0.64690913  1  0  -0.652058  0  2.081911  0  0  -0.589766  0  2.307873  0  0  -0.615232  0  2.298478  0  0  -0.309209  -0.571965  0  2.31403  0
O  O58  1  0.70698244  0.06813763  0.85309100  1  0  -0.652076  0  2.081862  0  0  -0.589796  0  2.307838  0  0  -0.61526  0  2.298441  0  0  -0.309245  -0.571996  0  2.313994  0
O  O59  1  0.79301511  0.43186361  0.35309079  1  0  -0.652052  0  2.081882  0  0  -0.589772  0  2.307848  0  0  -0.61524  0  2.298451  0  0  -0.30924  -0.571974  0  2.314005  0
O  O60  1  0.52502708  0.80166544  0.12085761  1  0  -0.668496  0  2.10313  0  0  -0.60952  0  2.355365  0  0  -0.636816  0  2.346717  0  0  -0.35557  -0.589911  0  2.36074  0
O  O61  1  0.97497123  0.69833196  0.62085622  1  0  -0.668526  0  2.103141  0  0  -0.609563  0  2.355376  0  0  -0.636859  0  2.346731  0  0  -0.355574  -0.589948  0  2.36075  0
O  O62  1  0.47497269  0.19833504  0.87914162  1  0  -0.668519  0  2.103071  0  0  -0.609552  0  2.355315  0  0  -0.636849  0  2.346665  0  0  -0.355576  -0.589939  0  2.360689  0
O  O63  1  0.02502648  0.30166748  0.37914370  1  0  -0.668472  0  2.103174  0  0  -0.609517  0  2.355408  0  0  -0.636816  0  2.34676  0  0  -0.355561  -0.5899  0  2.360783  0
O  O64  1  0.94519259  0.70495039  0.12120586  1  0  -0.683361  0  2.103352  0  0  -0.624375  0  2.351065  0  0  -0.651894  0  2.342948  0  0  -0.356664  -0.604581  0  2.356039  0
O  O65  1  0.55480888  0.79504700  0.62120553  1  0  -0.683311  0  2.103429  0  0  -0.624324  0  2.351141  0  0  -0.651843  0  2.343025  0  0  -0.356643  -0.604525  0  2.356115  0
O  O66  1  0.05480670  0.29504904  0.87879405  1  0  -0.68334  0  2.103386  0  0  -0.624343  0  2.351076  0  0  -0.651861  0  2.34296  0  0  -0.356655  -0.604544  0  2.356049  0
O  O67  1  0.44519041  0.20495244  0.37879439  1  0  -0.68332  0  2.103466  0  0  -0.62434  0  2.351165  0  0  -0.651859  0  2.34305  0  0  -0.356651  -0.60454  0  2.356141  0
O  O68  1  0.17547745  0.56986498  0.10962021  1  0  -0.620227  0  2.040395  0  0  -0.563341  0  2.266073  0  0  -0.589042  0  2.256742  0  0  -0.310479  -0.545355  0  2.272053  0
O  O69  1  0.32452376  0.93013268  0.60962032  1  0  -0.620169  0  2.040309  0  0  -0.563312  0  2.266009  0  0  -0.589011  0  2.256678  0  0  -0.310473  -0.54532  0  2.271988  0
O  O70  1  0.82452341  0.43013445  0.89037902  1  0  -0.620189  0  2.040418  0  0  -0.563308  0  2.266106  0  0  -0.589008  0  2.256776  0  0  -0.310475  -0.545316  0  2.272086  0
O  O71  1  0.67547710  0.06986675  0.39037891  1  0  -0.62018  0  2.04034  0  0  -0.563323  0  2.26602  0  0  -0.589021  0  2.256692  0  0  -0.310478  -0.545326  0  2.272  0
O  O72  1  0.79102021  0.39623988  0.15630208  1  0  -0.848108  0  1.84131  0  0  -0.787404  0  2.011059  0  0  -0.809037  0  1.981407  0  0  -0.576881  -0.771668  0  2.031741  0
O  O73  1  0.70897895  0.10375944  0.65630160  1  0  -0.848146  0  1.841307  0  0  -0.787406  0  2.011066  0  0  -0.80904  0  1.981423  0  0  -0.576873  -0.771664  0  2.031744  0
O  O74  1  0.20897957  0.60376061  0.84369852  1  0  -0.848135  0  1.841296  0  0  -0.787398  0  2.011086  0  0  -0.809033  0  1.981446  0  0  -0.576859  -0.771653  0  2.031762  0
O  O75  1  0.29102034  0.89623999  0.34369832  1  0  -0.848123  0  1.841305  0  0  -0.787432  0  2.011051  0  0  -0.809062  0  1.981401  0  0  -0.576878  -0.771684  0  2.031739  0
O  O76  1  0.69559920  0.11198207  0.11225549  1  0  -0.888432  0  1.781282  0  0  -0.834634  0  1.954901  0  0  -0.854758  0  1.922776  0  0  -0.627425  -0.819835  0  1.977734  0
O  O77  1  0.80440018  0.38801729  0.61225561  1  0  -0.888465  0  1.781232  0  0  -0.834612  0  1.954936  0  0  -0.854764  0  1.922755  0  0  -0.627403  -0.819795  0  1.977807  0
O  O78  1  0.30440008  0.88801737  0.88774443  1  0  -0.888481  0  1.781216  0  0  -0.83462  0  1.954908  0  0  -0.85477  0  1.922726  0  0  -0.6274  -0.819802  0  1.977778  0
O  O79  1  0.19559911  0.61198214  0.38774499  1  0  -0.888438  0  1.781287  0  0  -0.834637  0  1.954898  0  0  -0.854764  0  1.922774  0  0  -0.62743  -0.819837  0  1.977734  0
