# generated using pymatgen
data_MnH18C20(I2O3)4
_symmetry_space_group_name_H-M   'P 1'
_cell_length_a   9.74050648
_cell_length_b   10.13632071
_cell_length_c   10.26127812
_cell_angle_alpha   100.55007326
_cell_angle_beta   101.06194736
_cell_angle_gamma   111.82633626
_symmetry_Int_Tables_number   1
_chemical_formula_structural   MnH18C20(I2O3)4
_chemical_formula_sum   'Mn1 H18 C20 I8 O12'
_cell_volume   886.30164970
_cell_formula_units_Z   1
loop_
 _symmetry_equiv_pos_site_id
 _symmetry_equiv_pos_as_xyz
  1  'x, y, z'
loop_
 _atom_site_type_symbol
 _atom_site_label
 _atom_site_symmetry_multiplicity
 _atom_site_fract_x
 _atom_site_fract_y
 _atom_site_fract_z
 _atom_site_occupancy
 _atom_site_hle17_ddec_charge
 _atom_site_hle17_ddec_spin_density
 _atom_site_hle17_ddec_sum_bond_order
 _atom_site_hle17_magmom
 _atom_site_hse06_10hf_ddec_charge
 _atom_site_hse06_10hf_ddec_spin_density
 _atom_site_hse06_10hf_ddec_sum_bond_order
 _atom_site_hse06_10hf_magmom
 _atom_site_hse06_ddec_charge
 _atom_site_hse06_ddec_spin_density
 _atom_site_hse06_ddec_sum_bond_order
 _atom_site_hse06_magmom
 _atom_site_pbe_cm5_charge
 _atom_site_pbe_ddec_charge
 _atom_site_pbe_ddec_spin_density
 _atom_site_pbe_ddec_sum_bond_order
 _atom_site_pbe_magmom
Mn  Mn0  1  0.50000076  0.49999960  0.49999814  1  0.907927  1.089639  2.491589  1.054  0.793492  1.0428  3.037131  1.003  0.851421  1.017546  2.958482  0.978  0.568747  0.771206  1.112421  3.075568  1.073
H  H1  1  0.78473163  0.32512540  0.40563457  1  0.054642  -0.000985  0.98422  -0.001  0.062376  -0.000973  1.070191  0.0  0.060756  -0.001074  1.071978  0.0  0.073926  0.065196  -0.000804  1.067313  0.0
H  H2  1  0.21527094  0.67487493  0.59435233  1  0.054703  -0.000992  0.984284  -0.001  0.062455  -0.000972  1.070219  0.0  0.060837  -0.001073  1.072004  0.0  0.073968  0.065272  -0.000804  1.067341  0.0
H  H3  1  0.73709592  0.32475700  0.56684699  1  0.087435  0.000484  0.945497  0.0  0.102311  0.000695  1.012647  0.001  0.102848  0.000541  1.011793  0.0  0.090359  0.10264  0.000888  1.012598  0.001
H  H4  1  0.26290809  0.67524883  0.43314608  1  0.087378  0.000486  0.945553  0.0  0.102264  0.000695  1.012694  0.001  0.102805  0.000541  1.011841  0.0  0.090392  0.102598  0.000888  1.012626  0.001
H  H5  1  0.82656232  0.49609184  0.52644423  1  0.076175  -0.000335  0.964853  0.0  0.088771  -0.000109  1.039558  0.0  0.088775  -2.5e-05  1.039478  0.0  0.088998  0.089182  -0.000212  1.039414  0.0
H  H6  1  0.17343696  0.50391056  0.47354360  1  0.076148  -0.000333  0.964786  0.0  0.088747  -0.000109  1.039537  0.0  0.08875  -2.5e-05  1.039458  0.0  0.088999  0.089158  -0.000212  1.039396  0.0
H  H7  1  0.47992415  0.59586717  0.20805367  1  0.075855  0.000175  0.979377  0.0  0.086442  4.5e-05  1.058166  0.0  0.086518  2.2e-05  1.058532  0.0  0.085246  0.086858  0.000103  1.057512  0.0
H  H8  1  0.52007663  0.40413745  0.79194749  1  0.075917  0.000172  0.979375  0.0  0.086533  4.5e-05  1.05812  0.0  0.086606  2.2e-05  1.058499  0.0  0.085277  0.08696  0.000103  1.057442  0.0
H  H9  1  0.30774294  0.44025929  0.09938942  1  0.073896  -0.00115  0.954539  -0.001  0.089331  -0.000288  1.021988  0.0  0.087557  -7e-05  1.024154  0.0  0.088319  0.092089  -0.000452  1.018982  0.0
H  H10  1  0.69226055  0.55974761  0.90060574  1  0.073914  -0.001155  0.954586  -0.001  0.08934  -0.000288  1.022052  0.0  0.087562  -7e-05  1.024216  0.0  0.088321  0.0921  -0.000452  1.019045  0.0
H  H11  1  0.47727806  0.41488151  0.17108406  1  0.06821  0.000334  0.986217  0.0  0.07892  5.2e-05  1.063528  0.0  0.080315  5.6e-05  1.061724  0.0  0.080088  0.078457  -3.6e-05  1.064631  0.0
H  H12  1  0.52272907  0.58512661  0.82891186  1  0.068284  0.000334  0.986099  0.0  0.078995  5.2e-05  1.063406  0.0  0.080393  5.6e-05  1.061598  0.0  0.080137  0.078531  -3.6e-05  1.064511  0.0
H  H13  1  0.51456967  0.26921502  0.39593726  1  0.369654  -0.000221  0.910049  0.001  0.346224  6.9e-05  0.974515  0.001  0.356263  0.00025  0.964541  0.001  0.302157  0.339572  -0.000151  0.980686  0.001
H  H14  1  0.48543304  0.73078422  0.60406213  1  0.369705  -0.000221  0.910005  0.001  0.346267  6.9e-05  0.974476  0.001  0.356306  0.00025  0.964503  0.001  0.302176  0.339616  -0.000151  0.980644  0.001
H  H15  1  0.26502674  0.36603853  0.28679014  1  0.328383  0.000321  0.923146  0.0  0.30418  -0.001017  1.00325  -0.001  0.31279  -0.001415  0.994135  -0.001  0.290458  0.298403  -0.000615  1.009656  0.0
H  H16  1  0.73497373  0.63395845  0.71320264  1  0.328351  0.000321  0.92321  0.0  0.304144  -0.001018  1.003322  -0.001  0.312753  -0.001415  0.994209  -0.001  0.290434  0.29837  -0.000615  1.009729  0.0
H  H17  1  0.71041681  0.03583186  0.68080593  1  0.407523  4.8e-05  0.875896  0.0  0.375699  2.8e-05  0.954699  0.0  0.387974  2.7e-05  0.941776  0.0  0.295608  0.367161  2e-05  0.963452  0.0
H  H18  1  0.28957942  0.96415516  0.31920378  1  0.407374  4.8e-05  0.876009  0.0  0.37563  2.8e-05  0.954703  0.0  0.387909  2.7e-05  0.941775  0.0  0.295603  0.367092  2e-05  0.963451  0.0
C  C19  1  0.28699987  0.18817597  0.45736616  1  0.631615  -0.023525  3.878869  -0.013  0.571915  -0.015979  4.189303  -0.009  0.614446  -0.007387  4.174154  -0.004  0.198239  0.543979  -0.020213  4.198078  -0.013
C  C20  1  0.71300289  0.81182327  0.54263421  1  0.63146  -0.023529  3.879035  -0.013  0.571752  -0.015978  4.189495  -0.009  0.614281  -0.007383  4.174345  -0.004  0.198161  0.543821  -0.020214  4.198266  -0.013
C  C21  1  0.13823894  0.08703065  0.47647028  1  -0.093744  -0.001551  3.767967  0.001  -0.08361  -0.001057  4.016111  0.0  -0.0885  -0.00064  4.034308  0.0  -0.032875  -0.080927  -0.002354  4.004067  0.0
C  C22  1  0.86176501  0.91296862  0.52353319  1  -0.093774  -0.00155  3.76814  0.001  -0.08363  -0.001057  4.016269  0.0  -0.088529  -0.000639  4.034491  0.0  -0.032878  -0.080951  -0.002354  4.004231  0.0
C  C23  1  0.14140378  0.01721586  0.58265349  1  -0.024666  -0.001726  3.664964  -0.001  -0.013496  -0.000787  3.931  -0.001  -0.010889  -0.000342  3.951862  0.0  -0.062619  -0.015497  -0.002007  3.917102  -0.001
C  C24  1  0.85859967  0.98278230  0.41734872  1  -0.024629  -0.001722  3.664923  -0.001  -0.013481  -0.000787  3.930986  -0.001  -0.010872  -0.000341  3.951844  0.0  -0.062592  -0.015479  -0.002007  3.917087  -0.001
C  C25  1  0.00344653  0.93111672  0.60723034  1  -0.026984  -0.002371  3.655817  -0.001  -0.01807  -0.00104  3.92579  -0.001  -0.015437  -0.00031  3.946912  0.0  -0.061751  -0.019795  -0.002627  3.911481  -0.002
C  C26  1  0.99655410  0.06888245  0.39276971  1  -0.027  -0.002372  3.655788  -0.001  -0.018092  -0.00104  3.9258  -0.001  -0.015459  -0.000307  3.946923  0.0  -0.061742  -0.019817  -0.002627  3.911487  -0.002
C  C27  1  0.74518998  0.37951331  0.48380055  1  -0.032474  0.000792  3.633487  0.001  -0.12815  -0.002856  3.902802  -0.002  -0.119956  -0.003943  3.909952  -0.002  -0.157983  -0.133921  -0.001134  3.894751  0.0
C  C28  1  0.25480968  0.62049455  0.51619328  1  -0.032437  0.000795  3.633391  0.001  -0.128161  -0.002857  3.902712  -0.002  -0.119976  -0.003945  3.909854  -0.002  -0.158058  -0.13392  -0.001134  3.894638  0.0
C  C29  1  0.40875186  0.47770335  0.18903756  1  -0.021238  -0.006127  3.592513  -0.004  -0.111071  -0.000225  3.848788  0.0  -0.103801  -0.000154  3.854976  0.0  -0.150457  -0.116128  0.000143  3.841241  0.0
C  C30  1  0.59125303  0.52230141  0.81096128  1  -0.021409  -0.006113  3.592577  -0.004  -0.11128  -0.000225  3.8489  0.0  -0.104009  -0.000159  3.855085  0.0  -0.150546  -0.116335  0.000143  3.841365  0.0
C  C31  1  0.85421831  0.18805206  0.84698881  1  0.638689  -9.5e-05  3.891841  0.0  0.588851  -9.3e-05  4.199838  0.0  0.620361  -1e-05  4.192264  0.0  0.204565  0.567872  -0.001006  4.204245  -0.001
C  C32  1  0.14577702  0.81194584  0.15302000  1  0.638936  -9.2e-05  3.891989  0.0  0.589063  -9.4e-05  4.200038  0.0  0.620574  -1.1e-05  4.192459  0.0  0.204664  0.568086  -0.001006  4.204443  -0.001
C  C33  1  0.92484270  0.35144208  0.92039718  1  -0.07641  3.4e-05  3.732491  0.0  -0.069007  -2e-05  3.976728  0.0  -0.071441  -1e-06  3.994657  0.0  -0.026123  -0.06856  -0.000243  3.966728  0.0
C  C34  1  0.07515433  0.64855806  0.07960646  1  -0.076369  3.1e-05  3.732405  0.0  -0.068961  -1.9e-05  3.97663  0.0  -0.071396  -2e-06  3.994557  0.0  -0.026106  -0.068517  -0.000242  3.966631  0.0
C  C35  1  0.86572449  0.40406107  0.02249399  1  -0.020094  -0.000149  3.651762  0.0  -0.008674  -0.00038  3.916614  0.0  -0.005809  -4.4e-05  3.937129  0.0  -0.058173  -0.011892  -0.004456  3.905116  -0.003
C  C36  1  0.13427042  0.59593900  0.97750933  1  -0.020279  -0.000148  3.651862  0.0  -0.008838  -0.00038  3.916718  0.0  -0.005974  -4.3e-05  3.937233  0.0  -0.058216  -0.012055  -0.004456  3.905223  -0.003
C  C37  1  0.94087564  0.55233497  0.10287459  1  -0.035224  -0.000882  3.665665  -0.001  -0.023124  -0.000327  3.931058  0.0  -0.020078  4.7e-05  3.95074  0.0  -0.060314  -0.02596  -0.003872  3.91965  -0.003
C  C38  1  0.05911536  0.44766279  0.89713162  1  -0.035038  -0.000875  3.665572  -0.001  -0.022967  -0.000327  3.930986  0.0  -0.019921  4.6e-05  3.950667  0.0  -0.060218  -0.025795  -0.003873  3.919558  -0.003
I  I39  1  0.35856218  0.05726690  0.70921670  1  0.037785  -0.000566  1.5158  0.0  0.023533  -0.000867  1.837325  0.0  0.024906  -0.000387  1.823607  0.0  0.107744  0.021823  -0.002979  1.847968  -0.001
I  I40  1  0.64143783  0.94272788  0.29078533  1  0.03779  -0.000568  1.515751  0.0  0.023555  -0.000867  1.837267  0.0  0.024926  -0.000388  1.823549  0.0  0.107741  0.021846  -0.002979  1.84791  -0.001
I  I41  1  0.00957157  0.84442811  0.77869610  1  0.097602  -0.000273  1.587138  0.0  0.08321  -0.002097  1.92362  -0.001  0.084786  -0.001448  1.907926  0.0  0.156893  0.081334  -0.004193  1.933177  -0.002
I  I42  1  0.99042730  0.15556664  0.22130381  1  0.097626  -0.000272  1.587214  0.0  0.083233  -0.002097  1.923712  -0.001  0.084807  -0.001449  1.908018  0.0  0.1569  0.081356  -0.004192  1.933267  -0.002
I  I43  1  0.65930636  0.25660641  0.04885680  1  0.044779  -0.000624  1.512214  0.0  0.03455  -0.000804  1.834672  0.0  0.035113  -0.000124  1.820359  0.0  0.123589  0.027105  -0.00985  1.848009  -0.004
I  I44  1  0.34068287  0.74339566  0.95114123  1  0.044778  -0.000626  1.51227  0.0  0.034549  -0.000804  1.834703  0.0  0.035112  -0.000125  1.820391  0.0  0.123576  0.027102  -0.009851  1.848037  -0.004
I  I45  1  0.85670071  0.63368287  0.25861777  1  0.099598  -0.001674  1.500232  0.0  0.081961  -0.00095  1.820443  0.0  0.081183  -0.000257  1.812043  0.0  0.147866  0.075754  -0.008482  1.828684  -0.004
I  I46  1  0.14329052  0.36631599  0.74138381  1  0.099558  -0.001672  1.500126  0.0  0.08196  -0.00095  1.820296  0.0  0.081169  -0.000257  1.811913  0.0  0.147858  0.075751  -0.008483  1.82854  -0.004
O  O47  1  0.33000506  0.32589358  0.51341841  1  -0.567103  -0.005832  2.184558  -0.004  -0.510561  0.001698  2.475241  0.001  -0.541379  0.001681  2.459724  0.0  -0.302973  -0.490336  0.001238  2.483415  0.001
O  O48  1  0.66999580  0.67410669  0.48657702  1  -0.566993  -0.00583  2.184517  -0.004  -0.510424  0.001698  2.475163  0.001  -0.541254  0.001678  2.459679  0.0  -0.302905  -0.490196  0.001238  2.483328  0.001
O  O49  1  0.35911402  0.13350637  0.38843254  1  -0.594017  -0.006504  2.040074  -0.004  -0.537682  -0.004457  2.258249  -0.003  -0.559007  -0.002057  2.243592  -0.001  -0.296621  -0.522493  -0.005608  2.267499  -0.004
O  O50  1  0.64089184  0.86648969  0.61157252  1  -0.594045  -0.006501  2.040258  -0.004  -0.537674  -0.004457  2.258473  -0.003  -0.558989  -0.002055  2.243811  -0.001  -0.296592  -0.522491  -0.005608  2.267726  -0.004
O  O51  1  0.59681762  0.37345929  0.41741574  1  -0.504486  0.007606  2.296115  0.002  -0.427291  0.008977  2.557714  0.005  -0.458335  0.006746  2.55014  0.003  -0.398105  -0.403919  0.011404  2.55877  0.006
O  O52  1  0.40318032  0.62653651  0.58257742  1  -0.504555  0.007607  2.295931  0.002  -0.427343  0.008979  2.557559  0.005  -0.458394  0.006749  2.54999  0.003  -0.398132  -0.403975  0.011405  2.558614  0.006
O  O53  1  0.35726477  0.46039411  0.31065584  1  -0.469332  -9.7e-05  2.330168  0.0  -0.389143  0.00132  2.579303  0.0  -0.415695  0.001488  2.57071  0.0  -0.388373  -0.369268  0.001551  2.580969  -0.001
O  O54  1  0.64273710  0.53960619  0.68933876  1  -0.469264  -9.7e-05  2.330224  0.0  -0.389066  0.00132  2.579363  0.0  -0.415619  0.001488  2.570774  0.0  -0.38832  -0.369194  0.001552  2.581029  -0.001
O  O55  1  0.89328114  0.10468765  0.90181839  1  -0.529984  1.8e-05  1.984045  0.0  -0.492358  -1.8e-05  2.212968  0.0  -0.514357  -2e-06  2.207432  0.0  -0.289031  -0.476709  -0.000232  2.214387  0.0
O  O56  1  0.10672277  0.89531490  0.09820133  1  -0.529992  1.5e-05  1.984378  0.0  -0.492366  -1.8e-05  2.213336  0.0  -0.514365  -2e-06  2.207801  0.0  -0.289041  -0.47672  -0.000232  2.214755  0.0
O  O57  1  0.75145260  0.14843935  0.72532020  1  -0.550044  4.6e-05  2.110263  0.0  -0.502812  6.2e-05  2.336378  0.0  -0.525627  5.9e-05  2.323354  0.0  -0.3331  -0.487665  -3.2e-05  2.345027  0.0
O  O58  1  0.24854347  0.85154984  0.27468992  1  -0.550108  4.8e-05  2.110246  0.0  -0.502918  6.2e-05  2.336273  0.0  -0.525735  5.9e-05  2.323255  0.0  -0.333165  -0.487774  -3.2e-05  2.344914  0.0
