# generated using pymatgen
data_CoH28C26(NO)6
_symmetry_space_group_name_H-M   'P 1'
_cell_length_a   8.88099338
_cell_length_b   9.82165382
_cell_length_c   11.29979635
_cell_angle_alpha   63.80676002
_cell_angle_beta   87.96181604
_cell_angle_gamma   71.75143564
_symmetry_Int_Tables_number   1
_chemical_formula_structural   CoH28C26(NO)6
_chemical_formula_sum   'Co1 H28 C26 N6 O6'
_cell_volume   833.82531603
_cell_formula_units_Z   1
loop_
 _symmetry_equiv_pos_site_id
 _symmetry_equiv_pos_as_xyz
  1  'x, y, z'
loop_
 _atom_site_type_symbol
 _atom_site_label
 _atom_site_symmetry_multiplicity
 _atom_site_fract_x
 _atom_site_fract_y
 _atom_site_fract_z
 _atom_site_occupancy
 _atom_site_hle17_ddec_charge
 _atom_site_hle17_ddec_spin_density
 _atom_site_hle17_ddec_sum_bond_order
 _atom_site_hle17_magmom
 _atom_site_hse06_10hf_ddec_charge
 _atom_site_hse06_10hf_ddec_spin_density
 _atom_site_hse06_10hf_ddec_sum_bond_order
 _atom_site_hse06_10hf_magmom
 _atom_site_hse06_ddec_charge
 _atom_site_hse06_ddec_spin_density
 _atom_site_hse06_ddec_sum_bond_order
 _atom_site_hse06_magmom
 _atom_site_pbe_cm5_charge
 _atom_site_pbe_ddec_charge
 _atom_site_pbe_ddec_spin_density
 _atom_site_pbe_ddec_sum_bond_order
 _atom_site_pbe_magmom
Co  Co0  1  0.50000266  0.50000151  0.50000041  1  0.599195  1.130827  2.449782  1.026  0.562224  1.047817  2.877199  0.974  0.621587  1.046586  2.815886  0.983  0.671032  0.531181  1.037504  2.912967  0.951
H  H1  1  0.25703989  0.93619198  0.82831501  1  0.065091  4e-05  0.928072  0.0  0.083859  9e-06  0.986435  0.0  0.084599  6e-06  0.986969  0.0  0.090579  0.08322  2.2e-05  0.986221  0.0
H  H2  1  0.74294679  0.06382295  0.17168449  1  0.065092  4e-05  0.927964  0.0  0.083883  9e-06  0.986299  0.0  0.084625  6e-06  0.986834  0.0  0.090556  0.083242  2.2e-05  0.986087  0.0
H  H3  1  0.06832332  0.00548332  0.87591889  1  0.066601  2.1e-05  0.936975  0.0  0.085284  -3e-06  0.996677  0.0  0.08579  2e-06  0.997898  0.0  0.089667  0.084814  -3.1e-05  0.996032  0.0
H  H4  1  0.93166248  0.99452077  0.12408210  1  0.066571  2.1e-05  0.937035  0.0  0.085268  -3e-06  0.996718  0.0  0.085774  2e-06  0.997944  0.0  0.08969  0.084795  -3.1e-05  0.996066  0.0
H  H5  1  0.03328618  0.73692747  0.94362727  1  0.078668  5e-06  0.915769  0.0  0.098537  1.4e-05  0.968361  0.0  0.100046  8e-06  0.967854  0.0  0.095876  0.097375  1.5e-05  0.968888  0.0
H  H6  1  0.96672005  0.26306949  0.05638025  1  0.078677  5e-06  0.915763  0.0  0.098531  1.5e-05  0.968377  0.0  0.100041  8e-06  0.96787  0.0  0.095886  0.09737  1.5e-05  0.968903  0.0
H  H7  1  0.22087275  0.66898459  0.89270512  1  0.077916  -0.000352  0.934485  0.0  0.095232  -0.000169  0.993686  0.0  0.096228  -0.000103  0.994465  0.0  0.093428  0.094537  -0.000239  0.993107  0.0
H  H8  1  0.77912872  0.33102321  0.10729488  1  0.077888  -0.000353  0.934509  0.0  0.09518  -0.000169  0.993744  0.0  0.096176  -0.000103  0.994522  0.0  0.093419  0.094492  -0.00024  0.993162  0.0
H  H9  1  0.59462033  0.60645802  0.23249047  1  0.089494  -0.000131  0.959144  0.0  0.095372  -0.000229  1.02332  0.0  0.098181  -0.000168  1.019374  0.0  0.119537  0.093193  -0.00025  1.026365  0.0
H  H10  1  0.40538602  0.39354863  0.76750717  1  0.089494  -0.000131  0.959123  0.0  0.095349  -0.000229  1.023316  0.0  0.098161  -0.000168  1.019365  0.0  0.119521  0.093165  -0.00025  1.026361  0.0
H  H11  1  0.46931482  0.69227006  0.00689024  1  0.107664  -0.000342  0.935626  0.0  0.120882  -5.5e-05  0.987399  0.0  0.123734  -6.1e-05  0.987503  0.0  0.109561  0.118732  -4e-05  0.987778  0.0
H  H12  1  0.53069337  0.30773781  0.99310687  1  0.107583  -0.000342  0.93574  0.0  0.120796  -5.5e-05  0.987516  0.0  0.123657  -6.1e-05  0.987611  0.0  0.109534  0.118644  -4e-05  0.987894  0.0
H  H13  1  0.02398938  0.68637183  0.17393097  1  0.118444  -0.000313  0.943721  0.0  0.127295  -4.8e-05  1.003035  0.0  0.130978  -5.9e-05  1.001245  0.0  0.110114  0.124612  -2.6e-05  1.004476  0.0
H  H14  1  0.97601810  0.31363482  0.82606752  1  0.118393  -0.000314  0.943814  0.0  0.127266  -4.8e-05  1.003098  0.0  0.13095  -5.9e-05  1.001309  0.0  0.11008  0.124569  -2.6e-05  1.004555  0.0
H  H15  1  0.16539079  0.59795880  0.38903868  1  0.084309  -5.2e-05  0.983163  0.0  0.088647  -4.7e-05  1.055035  0.0  0.090093  -4.4e-05  1.052503  0.0  0.120336  0.08724  -1.5e-05  1.057117  0.0
H  H16  1  0.83461933  0.40204666  0.61096018  1  0.084528  -5.1e-05  0.98304  0.0  0.088842  -4.7e-05  1.054899  0.0  0.090294  -4.4e-05  1.052368  0.0  0.120376  0.087432  -1.5e-05  1.056985  0.0
H  H17  1  0.93559519  0.97163900  0.70367176  1  0.081528  -2.3e-05  0.918149  0.0  0.100918  -1.6e-05  0.971261  0.0  0.102263  -1.2e-05  0.97137  0.0  0.094296  0.099782  -2.2e-05  0.97147  0.0
H  H18  1  0.06439721  0.02835549  0.29633269  1  0.081479  -2.3e-05  0.918132  0.0  0.100864  -1.6e-05  0.971239  0.0  0.102209  -1.2e-05  0.971347  0.0  0.094268  0.099727  -2.2e-05  0.971447  0.0
H  H19  1  0.04956483  0.10257022  0.63529039  1  0.096525  -0.000275  0.968339  0.0  0.105043  -0.000181  1.042796  0.0  0.106659  -0.000114  1.042596  0.0  0.096386  0.104016  -0.000201  1.042695  0.0
H  H20  1  0.95042562  0.89742669  0.36470965  1  0.096586  -0.000275  0.968355  0.0  0.105123  -0.000181  1.042746  0.0  0.106738  -0.000114  1.042551  0.0  0.096442  0.104095  -0.000201  1.042638  0.0
H  H21  1  0.16573282  0.55706863  0.58099827  1  0.083541  -0.000131  0.997146  0.0  0.083208  -0.000127  1.074812  0.0  0.085544  -0.000106  1.071157  0.0  0.117649  0.081705  -0.000122  1.077097  0.0
H  H22  1  0.83427072  0.44292957  0.41900089  1  0.083555  -0.000131  0.997122  0.0  0.083207  -0.000127  1.074804  0.0  0.085547  -0.000106  1.071152  0.0  0.117647  0.081709  -0.000122  1.077094  0.0
H  H23  1  0.98832784  0.74204762  0.65484718  1  0.119555  -0.000227  0.939378  0.0  0.128477  -4.4e-05  0.998098  0.0  0.131964  -4.8e-05  0.996797  0.0  0.10961  0.126102  -4.8e-05  0.998972  0.0
H  H24  1  0.01167250  0.25794332  0.34515572  1  0.119526  -0.000228  0.939175  0.0  0.12841  -4.4e-05  0.997942  0.0  0.131946  -4.8e-05  0.996583  0.0  0.109604  0.126042  -4.8e-05  0.998811  0.0
H  H25  1  0.34420315  0.97486309  0.59393408  1  0.116245  -0.000205  0.951794  0.0  0.126993  -1.2e-05  1.006787  0.0  0.129727  -2.8e-05  1.006665  0.0  0.107578  0.124874  2e-06  1.007297  0.0
H  H26  1  0.65578643  0.02513981  0.40606813  1  0.116258  -0.000206  0.951862  0.0  0.127001  -1.2e-05  1.006833  0.0  0.12973  -2.8e-05  1.006714  0.0  0.107576  0.124884  2e-06  1.007336  0.0
H  H27  1  0.50896081  0.78158476  0.51706013  1  0.08921  -7.6e-05  1.009392  0.0  0.087952  -4.2e-05  1.08621  0.0  0.091668  -4.1e-05  1.080768  0.0  0.112676  0.084999  -5e-05  1.090595  0.0
H  H28  1  0.49103043  0.21842662  0.48293527  1  0.089224  -7.6e-05  1.00931  0.0  0.087979  -4.2e-05  1.086149  0.0  0.091703  -4.1e-05  1.080693  0.0  0.112659  0.085024  -5e-05  1.090533  0.0
C  C29  1  0.13770001  0.92339274  0.83673105  1  -0.085647  -0.001157  3.66457  -0.001  -0.124245  -0.000541  3.926868  0.0  -0.125236  -0.000357  3.941106  0.0  -0.157012  -0.123305  -0.000721  3.917011  -0.001
C  C30  1  0.86228949  0.07661377  0.16326979  1  -0.085573  -0.001158  3.664461  -0.001  -0.124195  -0.000542  3.926758  0.0  -0.125189  -0.000357  3.941001  0.0  -0.157007  -0.123256  -0.000721  3.916897  -0.001
C  C31  1  0.15275198  0.74925360  0.93422989  1  -0.16155  4e-05  3.719906  0.001  -0.205319  -0.000122  3.974467  0.0  -0.207349  -6.4e-05  3.985989  0.0  -0.158613  -0.20387  -0.000233  3.966806  0.0
C  C32  1  0.84725069  0.25075058  0.06577233  1  -0.161526  4.1e-05  3.719852  0.001  -0.205273  -0.000122  3.974463  0.0  -0.207302  -6.4e-05  3.985982  0.0  -0.158612  -0.203833  -0.000233  3.96681  0.0
C  C33  1  0.46926676  0.62255888  0.21488612  1  0.123619  -0.013504  3.684508  -0.009  0.094156  -0.004876  3.937286  -0.003  0.104818  -0.003799  3.953986  -0.002  0.040578  0.086595  -0.005814  3.92736  -0.004
C  C34  1  0.53073470  0.37744893  0.78511299  1  0.123603  -0.013517  3.684433  -0.009  0.094184  -0.004878  3.937118  -0.003  0.104842  -0.003801  3.953822  -0.002  0.040565  0.086632  -0.005817  3.927174  -0.004
C  C35  1  0.39706486  0.67243317  0.08922640  1  -0.183819  0.003755  3.734686  0.005  -0.200421  0.000553  3.978817  0.001  -0.210205  0.000615  3.999793  0.001  -0.08956  -0.194227  0.000566  3.965551  0.001
C  C36  1  0.60294406  0.32757591  0.91077023  1  -0.183798  0.003759  3.734698  0.005  -0.200395  0.000553  3.978828  0.001  -0.210186  0.000616  3.999803  0.001  -0.089582  -0.194206  0.000566  3.965563  0.001
C  C37  1  0.23395900  0.69594188  0.06893259  1  0.151373  -0.013359  3.747113  -0.009  0.167022  -0.004993  3.985874  -0.003  0.174882  -0.003413  4.007276  -0.002  0.00998  0.16133  -0.006556  3.971811  -0.004
C  C38  1  0.76604705  0.30406233  0.93106952  1  0.151558  -0.013371  3.746924  -0.009  0.16714  -0.004996  3.985791  -0.003  0.175002  -0.003414  4.007194  -0.002  0.010049  0.161449  -0.006558  3.971728  -0.004
C  C39  1  0.15125533  0.66964892  0.18009962  1  -0.171841  0.003399  3.700347  0.005  -0.188633  0.000379  3.944998  0.001  -0.198513  0.00053  3.965068  0.001  -0.085103  -0.182288  0.000296  3.932271  0.001
C  C40  1  0.84875583  0.33036017  0.81989783  1  -0.171817  0.003405  3.700233  0.005  -0.188608  0.00038  3.944886  0.001  -0.198486  0.000531  3.964955  0.001  -0.085091  -0.182252  0.000296  3.932165  0.001
C  C41  1  0.23115899  0.61833638  0.30360907  1  0.143338  -0.01352  3.659255  -0.009  0.108524  -0.005086  3.920329  -0.003  0.120155  -0.003985  3.936893  -0.003  0.048693  0.100477  -0.005838  3.910087  -0.004
C  C42  1  0.76884849  0.38167026  0.69639030  1  0.143021  -0.013528  3.659502  -0.009  0.108254  -0.005085  3.920505  -0.003  0.119874  -0.003985  3.93708  -0.003  0.048649  0.10021  -0.005838  3.910258  -0.004
C  C43  1  0.05784144  0.97674225  0.69757226  1  -0.176776  -0.000115  3.697347  0.0  -0.220291  -0.000218  3.951314  0.0  -0.222956  -0.000122  3.963682  0.0  -0.163945  -0.218426  -0.000253  3.942809  0.0
C  C44  1  0.94215095  0.02325226  0.30242952  1  -0.176901  -0.000114  3.697435  0.0  -0.220328  -0.000218  3.951331  0.0  -0.222992  -0.000122  3.963698  0.0  -0.163958  -0.218465  -0.000253  3.94282  0.0
C  C45  1  0.20205964  0.65262291  0.58166526  1  0.108255  -0.008547  3.692429  -0.006  0.07765  -0.003606  3.955925  -0.002  0.087423  -0.002851  3.972378  -0.002  0.040391  0.07052  -0.004518  3.945625  -0.003
C  C46  1  0.79794429  0.34737412  0.41833080  1  0.108142  -0.008556  3.692549  -0.006  0.077545  -0.003607  3.955989  -0.002  0.087306  -0.002852  3.972463  -0.002  0.04035  0.070385  -0.004519  3.945748  -0.003
C  C47  1  0.10366411  0.75558936  0.62749377  1  -0.173286  0.001531  3.707265  0.002  -0.192043  -2e-05  3.957586  0.0  -0.201327  0.000145  3.978259  0.0  -0.084975  -0.185817  -3.3e-05  3.943543  0.0
C  C48  1  0.89632796  0.24440273  0.37250894  1  -0.173164  0.001534  3.707408  0.002  -0.191833  -2e-05  3.957747  0.0  -0.201157  0.000145  3.978408  0.0  -0.084956  -0.185608  -3.3e-05  3.943705  0.0
C  C49  1  0.15220185  0.87335827  0.63661594  1  0.160291  -0.007935  3.722158  -0.005  0.175818  -0.003411  3.960276  -0.002  0.182833  -0.0024  3.982102  -0.002  0.012488  0.171063  -0.004446  3.945339  -0.003
C  C50  1  0.84779722  0.12663987  0.36338780  1  0.16034  -0.007942  3.721918  -0.005  0.175683  -0.003412  3.960237  -0.002  0.182697  -0.002401  3.982075  -0.002  0.012446  0.170934  -0.004446  3.945296  -0.003
C  C51  1  0.29992275  0.88349158  0.59315240  1  -0.169008  0.001792  3.699928  0.003  -0.184816  0.000123  3.94237  0.0  -0.194536  0.000259  3.964129  0.001  -0.08678  -0.178433  4.9e-05  3.928109  0.0
C  C52  1  0.70006780  0.11650170  0.40685168  1  -0.169048  0.001796  3.699507  0.003  -0.184784  0.000124  3.941968  0.0  -0.194498  0.000259  3.963728  0.001  -0.086749  -0.178405  4.9e-05  3.927701  0.0
C  C53  1  0.39216865  0.77789743  0.54751712  1  0.112044  -0.008531  3.680342  -0.006  0.081066  -0.003521  3.938328  -0.002  0.091775  -0.002782  3.952601  -0.002  0.034747  0.073626  -0.004017  3.92957  -0.003
C  C54  1  0.60782831  0.22211035  0.45248214  1  0.112144  -0.008536  3.680188  -0.006  0.081142  -0.003521  3.938105  -0.002  0.091839  -0.00278  3.95239  -0.002  0.034829  0.073714  -0.004016  3.929334  -0.003
N  N55  1  0.38854290  0.59279675  0.32271384  1  -0.246071  -0.013459  3.354183  -0.008  -0.197228  -0.009996  3.639261  -0.007  -0.224546  -0.010004  3.658025  -0.008  -0.335141  -0.181032  -0.008728  3.627009  -0.006
N  N56  1  0.61146682  0.40720992  0.67728368  1  -0.246013  -0.013455  3.354395  -0.008  -0.197156  -0.009996  3.639374  -0.007  -0.22447  -0.010003  3.658145  -0.008  -0.335079  -0.180959  -0.008729  3.627114  -0.006
N  N57  1  0.34603251  0.66115598  0.54265135  1  -0.259064  -0.014974  3.367345  -0.01  -0.210036  -0.010301  3.650422  -0.008  -0.237729  -0.01037  3.67129  -0.008  -0.334948  -0.192568  -0.008937  3.63598  -0.006
N  N58  1  0.65396502  0.33884338  0.45734932  1  -0.259194  -0.01497  3.367403  -0.01  -0.210122  -0.010302  3.650439  -0.008  -0.237808  -0.010371  3.671298  -0.008  -0.335001  -0.192652  -0.008938  3.635996  -0.006
N  N59  1  0.76659872  0.69702861  0.42879958  1  0.706251  0.002239  4.108484  0.004  0.726196  0.003621  4.424352  0.006  0.755054  0.002425  4.429305  0.005  0.091186  0.706346  0.004593  4.419449  0.007
N  N60  1  0.23340265  0.30296597  0.57120014  1  0.70627  0.002238  4.108624  0.004  0.726213  0.003621  4.424481  0.006  0.755072  0.002425  4.429433  0.005  0.091228  0.706349  0.004592  4.419597  0.007
O  O61  1  0.64223665  0.67750288  0.39184805  1  -0.515366  0.011194  1.844637  0.017  -0.505456  0.010347  2.093352  0.014  -0.524227  0.007281  2.08186  0.01  -0.205249  -0.491018  0.01513  2.10001  0.021
O  O62  1  0.35775836  0.32250734  0.60814503  1  -0.515325  0.011196  1.844725  0.017  -0.505445  0.010349  2.093441  0.014  -0.524213  0.007284  2.081943  0.01  -0.205222  -0.491004  0.015132  2.1001  0.021
O  O63  1  0.76300267  0.73783152  0.52049298  1  -0.46914  0.001464  1.728911  0.003  -0.454936  0.002345  1.936732  0.004  -0.468652  0.001664  1.930996  0.003  -0.189522  -0.445207  0.003241  1.940326  0.005
O  O64  1  0.23699772  0.26217271  0.47950132  1  -0.469181  0.001462  1.728905  0.003  -0.454953  0.002345  1.936721  0.004  -0.468673  0.001663  1.930995  0.003  -0.189574  -0.445218  0.003239  1.940332  0.005
O  O65  1  0.88966757  0.67437578  0.37139811  1  -0.467983  0.006352  1.751484  0.011  -0.455841  0.006368  1.974154  0.011  -0.469956  0.004704  1.96717  0.008  -0.190035  -0.444574  0.008478  1.977399  0.014
O  O66  1  0.11034156  0.32559231  0.62861500  1  -0.468001  0.00635  1.751577  0.011  -0.455855  0.006365  1.97426  0.011  -0.469974  0.004702  1.96728  0.008  -0.190049  -0.444581  0.008476  1.977508  0.014
