# generated using pymatgen
data_Lu2P2H16C14N2O19
_symmetry_space_group_name_H-M   'P 1'
_cell_length_a   11.24572299
_cell_length_b   14.74658046
_cell_length_c   16.11587655
_cell_angle_alpha   89.99972121
_cell_angle_beta   89.99879240
_cell_angle_gamma   90.00039814
_symmetry_Int_Tables_number   1
_chemical_formula_structural   Lu2P2H16C14N2O19
_chemical_formula_sum   'Lu8 P8 H64 C56 N8 O76'
_cell_volume   2672.59183909
_cell_formula_units_Z   4
loop_
 _symmetry_equiv_pos_site_id
 _symmetry_equiv_pos_as_xyz
  1  'x, y, z'
loop_
 _atom_site_type_symbol
 _atom_site_label
 _atom_site_symmetry_multiplicity
 _atom_site_fract_x
 _atom_site_fract_y
 _atom_site_fract_z
 _atom_site_occupancy
 _atom_site_pbe_bader_charge
 _atom_site_pbe_bader_spin_density
 _atom_site_pbe_cm5_charge
 _atom_site_pbe_ddec_charge
 _atom_site_pbe_ddec_spin_density
 _atom_site_pbe_ddec_sum_bond_order
 _atom_site_pbe_magmom
Lu  Lu0  1  0.72831747  0.25202768  0.56681277  1  2.174644  0  1.308371  1.613637  0  2.816017  0
Lu  Lu1  1  0.77169754  0.74797935  0.06684537  1  2.174448  0  1.308389  1.613703  0  2.815859  0
Lu  Lu2  1  0.27169349  0.75203225  0.93317424  1  2.17431  0  1.30839  1.613585  0  2.816325  0
Lu  Lu3  1  0.22829737  0.24796542  0.43316564  1  2.174133  0  1.308466  1.613712  0  2.81598  0
Lu  Lu4  1  0.75390433  0.19883814  0.94673619  1  2.191206  0  1.320897  1.640783  0  2.78646  0
Lu  Lu5  1  0.74611164  0.80117027  0.44673604  1  2.191347  0  1.320903  1.640722  0  2.786445  0
Lu  Lu6  1  0.24611326  0.69881611  0.55328891  1  2.191505  0  1.320944  1.641018  0  2.785951  0
Lu  Lu7  1  0.25388908  0.30117748  0.05327474  1  2.191494  0  1.320873  1.64095  0  2.786047  0
P  P8  1  0.73042791  0.18272521  0.17267177  1  3.357951  0  0.377892  1.313741  0  5.348047  0
P  P9  1  0.76956967  0.81727177  0.67267576  1  3.357483  0  0.377764  1.313469  0  5.348183  0
P  P10  1  0.26956463  0.68272491  0.32733581  1  3.358004  0  0.377794  1.313678  0  5.34807  0
P  P11  1  0.23042587  0.31727875  0.82732771  1  3.357844  0  0.377821  1.31374  0  5.348061  0
P  P12  1  0.68488744  0.04338423  0.45785268  1  3.404406  0  0.379364  1.333658  0  5.293317  0
P  P13  1  0.81509263  0.95660378  0.95786097  1  3.40465  0  0.379366  1.333844  0  5.29297  0
P  P14  1  0.31510918  0.54339721  0.04215180  1  3.404439  0  0.379445  1.333811  0  5.29339  0
P  P15  1  0.18490328  0.45659711  0.54214437  1  3.404908  0  0.379348  1.33371  0  5.292962  0
H  H16  1  0.58264199  0.24018065  0.24583660  1  0.638348  0  0.344731  0.408307  0  0.864393  0
H  H17  1  0.91738183  0.75981729  0.74583495  1  0.638252  0  0.344673  0.408271  0  0.864421  0
H  H18  1  0.41736085  0.74018560  0.25416576  1  0.638349  0  0.344631  0.408234  0  0.864527  0
H  H19  1  0.08261497  0.25982388  0.75416443  1  0.638231  0  0.344732  0.4084  0  0.864341  0
H  H20  1  0.53054749  0.95958061  0.46361380  1  0.670178  0  0.309161  0.377521  0  0.966666  0
H  H21  1  0.96944841  0.04041211  0.96361645  1  0.670268  0  0.309171  0.377586  0  0.966572  0
H  H22  1  0.46946446  0.45959991  0.03639503  1  0.670707  0  0.30919  0.377652  0  0.966481  0
H  H23  1  0.03054195  0.54039377  0.53638950  1  0.670408  0  0.309259  0.377736  0  0.966364  0
H  H24  1  0.73018909  0.46053851  0.52510622  1  0.651962  0  0.349404  0.432768  0  0.840774  0
H  H25  1  0.76979695  0.53947553  0.02511495  1  0.652291  0  0.349487  0.432939  0  0.840651  0
H  H26  1  0.26976507  0.96054353  0.97488545  1  0.651932  0  0.349251  0.432645  0  0.840995  0
H  H27  1  0.23023342  0.03945867  0.47487279  1  0.652093  0  0.349422  0.432799  0  0.840818  0
H  H28  1  0.73011549  0.43144676  0.61996057  1  0.619105  0  0.32838  0.409458  0  0.895448  0
H  H29  1  0.76987656  0.56855999  0.11998345  1  0.62  0  0.328402  0.409532  0  0.895314  0
H  H30  1  0.26987486  0.93144551  0.88002378  1  0.619288  0  0.328475  0.409699  0  0.895086  0
H  H31  1  0.23013095  0.06856058  0.38000727  1  0.619816  0  0.328436  0.40948  0  0.895293  0
H  H32  1  0.76585810  0.97560775  0.30366851  1  0.519013  0  0.311107  0.247987  0  0.988049  0
H  H33  1  0.73416219  0.02438988  0.80367283  1  0.518992  0  0.31107  0.247972  0  0.988092  0
H  H34  1  0.23413798  0.47560596  0.19632784  1  0.519  0  0.311118  0.24794  0  0.988175  0
H  H35  1  0.26584492  0.52438958  0.69631892  1  0.518997  0  0.311102  0.247959  0  0.988182  0
H  H36  1  0.14430180  0.83459860  0.26162728  1  0.577309  0  0.31114  0.301643  0  1.001738  0
H  H37  1  0.35569958  0.16541422  0.76162608  1  0.576944  0  0.311002  0.301393  0  1.002055  0
H  H38  1  0.85570635  0.33459718  0.23836784  1  0.577324  0  0.311098  0.301579  0  1.001805  0
H  H39  1  0.64429191  0.66540826  0.73837310  1  0.577266  0  0.311074  0.301593  0  1.001884  0
H  H40  1  0.65897219  0.02874960  0.19296071  1  0.111993  0  0.137558  0.16938  0  0.933956  0
H  H41  1  0.84103367  0.97125472  0.69296482  1  0.111984  0  0.137593  0.169467  0  0.934044  0
H  H42  1  0.34101718  0.52873894  0.30704136  1  0.112079  0  0.137599  0.16947  0  0.933973  0
H  H43  1  0.15896593  0.47126550  0.80702618  1  0.111591  0  0.137596  0.169436  0  0.934028  0
H  H44  1  0.81063469  0.03091939  0.16745679  1  0.12491  0  0.129567  0.155414  0  0.994809  0
H  H45  1  0.68937639  0.96908575  0.66746438  1  0.124475  0  0.129572  0.155515  0  0.994638  0
H  H46  1  0.18936270  0.53091321  0.33254217  1  0.125144  0  0.129566  0.155392  0  0.994848  0
H  H47  1  0.31061519  0.46908771  0.83252911  1  0.124544  0  0.129503  0.155421  0  0.994617  0
H  H48  1  0.59533468  0.07899667  0.32440349  1  0.085779  0  0.128348  0.152068  0  0.965419  0
H  H49  1  0.90465565  0.92098865  0.82441372  1  0.085839  0  0.128318  0.152036  0  0.965404  0
H  H50  1  0.40465959  0.57900264  0.17561014  1  0.086316  0  0.128372  0.15212  0  0.965356  0
H  H51  1  0.09534172  0.42098013  0.67559798  1  0.085796  0  0.128333  0.152021  0  0.965394  0
H  H52  1  0.70040211  0.16380975  0.35470185  1  0.094491  0  0.126551  0.147877  0  1.019481  0
H  H53  1  0.79957752  0.83618830  0.85469166  1  0.094348  0  0.126588  0.147975  0  1.019455  0
H  H54  1  0.29959471  0.66382007  0.14531203  1  0.094459  0  0.126479  0.147882  0  1.019435  0
H  H55  1  0.20040752  0.33617099  0.64530553  1  0.094264  0  0.126531  0.147972  0  1.019426  0
H  H56  1  0.90780712  0.05389728  0.38437069  1  0.138539  0  0.131682  0.12759  0  0.964281  0
H  H57  1  0.59218584  0.94611417  0.88436802  1  0.138577  0  0.13177  0.127689  0  0.964239  0
H  H58  1  0.09219581  0.55391140  0.11562816  1  0.139151  0  0.131699  0.127587  0  0.964214  0
H  H59  1  0.40781710  0.44609745  0.61563053  1  0.138644  0  0.131668  0.127565  0  0.964309  0
H  H60  1  0.90496220  0.14839869  0.31396912  1  0.12885  0  0.122699  0.132021  0  1.006691  0
H  H61  1  0.59503289  0.85161177  0.81397179  1  0.128747  0  0.122719  0.132051  0  1.006756  0
H  H62  1  0.09503003  0.64840703  0.18603800  1  0.129186  0  0.122668  0.131944  0  1.006677  0
H  H63  1  0.40496919  0.35159331  0.68603401  1  0.128812  0  0.122689  0.131991  0  1.006694  0
H  H64  1  0.00425469  0.13396281  0.17484588  1  0.108535  0  0.122137  0.122544  0  0.979961  0
H  H65  1  0.49574042  0.86605184  0.67484943  1  0.108785  0  0.122146  0.12258  0  0.980007  0
H  H66  1  0.99574274  0.63395622  0.32515323  1  0.108692  0  0.122114  0.122527  0  0.979902  0
H  H67  1  0.50424756  0.36604808  0.82516065  1  0.108772  0  0.122152  0.122652  0  0.979887  0
H  H68  1  0.15392939  0.05167927  0.09007825  1  0.180805  0  0.120419  0.132574  0  1.01279  0
H  H69  1  0.34605850  0.94833514  0.59008922  1  0.18108  0  0.120485  0.132549  0  1.012759  0
H  H70  1  0.84607885  0.55166194  0.40992309  1  0.18064  0  0.120483  0.132631  0  1.012685  0
H  H71  1  0.65391155  0.44833784  0.90992795  1  0.180657  0  0.120511  0.132716  0  1.012578  0
H  H72  1  0.21938402  0.89324595  0.13855293  1  0.184165  0  0.138269  0.118506  0  0.991357  0
H  H73  1  0.28060151  0.10676686  0.63856427  1  0.183948  0  0.138261  0.11848  0  0.9913  0
H  H74  1  0.78063354  0.39322788  0.36144565  1  0.184159  0  0.138213  0.118353  0  0.991513  0
H  H75  1  0.71936277  0.60677081  0.86144697  1  0.184184  0  0.138162  0.118287  0  0.991503  0
H  H76  1  0.00527731  0.90922683  0.34764641  1  0.205313  0  0.134262  0.122852  0  1.048246  0
H  H77  1  0.49474103  0.09078351  0.84764165  1  0.205262  0  0.13427  0.122837  0  1.048509  0
H  H78  1  0.99472261  0.40923339  0.15234154  1  0.205107  0  0.134265  0.122779  0  1.04839  0
H  H79  1  0.50527025  0.59077047  0.65234608  1  0.205122  0  0.134261  0.122807  0  1.048382  0
C  C80  1  0.74286983  0.06421157  0.20569031  1  -0.264419  0  -0.066258  -0.387744  0  3.767903  0
C  C81  1  0.75714098  0.93579336  0.70569520  1  -0.263685  0  -0.066295  -0.387859  0  3.767861  0
C  C82  1  0.25712786  0.56420867  0.29431221  1  -0.26474  0  -0.066368  -0.387873  0  3.768068  0
C  C83  1  0.24285475  0.43579313  0.79429720  1  -0.263487  0  -0.066271  -0.387836  0  3.768165  0
C  C84  1  0.68351718  0.09055951  0.35144510  1  -0.234103  0  -0.071364  -0.396913  0  3.756218  0
C  C85  1  0.81646966  0.90943380  0.85144985  1  -0.23419  0  -0.071464  -0.397071  0  3.756562  0
C  C86  1  0.31648342  0.59057058  0.14856041  1  -0.234497  0  -0.07135  -0.396948  0  3.756302  0
C  C87  1  0.18352227  0.40942386  0.64855135  1  -0.234413  0  -0.071438  -0.397007  0  3.75664  0
C  C88  1  0.89822678  0.07461749  0.31935346  1  0.183557  0  -0.052661  -0.127316  0  3.758192  0
C  C89  1  0.60177259  0.92539091  0.81935385  1  0.183725  0  -0.052771  -0.127515  0  3.758117  0
C  C90  1  0.10177101  0.57462725  0.18064778  1  0.182423  0  -0.052619  -0.12711  0  3.757948  0
C  C91  1  0.39823193  0.42537652  0.68064666  1  0.183373  0  -0.052647  -0.127159  0  3.758011  0
C  C92  1  0.98964612  0.02798808  0.26658381  1  0.081953  0  0.00494  0.054855  0  3.957615  0
C  C93  1  0.51035040  0.97202467  0.76658472  1  0.081789  0  0.005019  0.055187  0  3.956886  0
C  C94  1  0.01034591  0.52799368  0.23341019  1  0.081648  0  0.004939  0.054936  0  3.957525  0
C  C95  1  0.48964921  0.47201252  0.73341248  1  0.081596  0  0.004966  0.054871  0  3.957378  0
C  C96  1  0.03462921  0.06676150  0.19371975  1  -0.048899  0  -0.040205  -0.043398  0  3.862357  0
C  C97  1  0.46536711  0.93325169  0.69372282  1  -0.048452  0  -0.040193  -0.043464  0  3.862553  0
C  C98  1  0.96537295  0.56675349  0.30628277  1  -0.048617  0  -0.040185  -0.043398  0  3.862377  0
C  C99  1  0.53461881  0.43325024  0.80628510  1  -0.048771  0  -0.040199  -0.04343  0  3.862501  0
C  C100  1  0.11854873  0.02055452  0.14603334  1  0.091283  0  -0.060015  -0.089231  0  3.933208  0
C  C101  1  0.38145080  0.97945620  0.64604116  1  0.090751  0  -0.060163  -0.08936  0  3.933715  0
C  C102  1  0.88146635  0.52053904  0.35397063  1  0.091233  0  -0.060059  -0.089386  0  3.933574  0
C  C103  1  0.61852664  0.47946037  0.85397090  1  0.091105  0  -0.060153  -0.089572  0  3.933576  0
C  C104  1  0.15686572  0.93598984  0.17221823  1  0.34711  0  0.079516  0.103451  0  3.827969  0
C  C105  1  0.34312681  0.06402279  0.67222264  1  0.347066  0  0.079596  0.103694  0  3.828237  0
C  C106  1  0.84314957  0.43597838  0.32778077  1  0.346792  0  0.079633  0.103726  0  3.828421  0
C  C107  1  0.65684510  0.56402252  0.82778321  1  0.347062  0  0.079739  0.103916  0  3.828395  0
C  C108  1  0.03320984  0.94366826  0.29063403  1  0.38626  0  0.071987  0.040941  0  3.80481  0
C  C109  1  0.46679333  0.05635458  0.79063169  1  0.385648  0  0.07195  0.040914  0  3.805113  0
C  C110  1  0.96678773  0.44367234  0.20935501  1  0.386631  0  0.07191  0.040945  0  3.805027  0
C  C111  1  0.53320963  0.55633801  0.70936116  1  0.386723  0  0.071923  0.040972  0  3.804959  0
C  C112  1  0.50289843  0.26160587  0.45247685  1  1.606955  0  0.210823  0.471945  0  4.250577  0
C  C113  1  0.99710047  0.73838826  0.95249088  1  1.607135  0  0.21067  0.471852  0  4.250698  0
C  C114  1  0.49710727  0.76162997  0.04752604  1  1.606524  0  0.210659  0.471859  0  4.250222  0
C  C115  1  0.00289702  0.23837178  0.54750612  1  1.606207  0  0.210725  0.472046  0  4.25022  0
C  C116  1  0.45682881  0.23806921  0.54031236  1  1.601741  0  0.218776  0.485916  0  4.220222  0
C  C117  1  0.04315791  0.76192444  0.04033336  1  1.602586  0  0.218848  0.4858  0  4.220021  0
C  C118  1  0.54317223  0.73807849  0.95968526  1  1.602501  0  0.218718  0.485664  0  4.220265  0
C  C119  1  0.95684424  0.26191697  0.45966828  1  1.602263  0  0.218743  0.485733  0  4.220363  0
C  C120  1  0.74142870  0.17843525  0.74909334  1  1.593438  0  0.22431  0.475745  0  4.200493  0
C  C121  1  0.75857635  0.82154979  0.24911277  1  1.593458  0  0.224233  0.475436  0  4.200423  0
C  C122  1  0.25859671  0.67843327  0.75090269  1  1.593729  0  0.224457  0.475834  0  4.200287  0
C  C123  1  0.24142812  0.32155656  0.25089481  1  1.593272  0  0.224309  0.475678  0  4.200178  0
C  C124  1  0.74623255  0.28136078  0.76342428  1  1.606778  0  0.219311  0.488646  0  4.235827  0
C  C125  1  0.75374094  0.71862893  0.26343308  1  1.606616  0  0.219175  0.488281  0  4.236244  0
C  C126  1  0.25377511  0.78135003  0.73657501  1  1.606876  0  0.219271  0.488694  0  4.236398  0
C  C127  1  0.24626793  0.21863851  0.23656628  1  1.606807  0  0.21921  0.488467  0  4.236066  0
C  C128  1  0.52855856  0.30217244  0.01308626  1  1.564657  0  0.21933  0.475032  0  4.219702  0
C  C129  1  0.97145362  0.69781995  0.51309216  1  1.563693  0  0.219303  0.474951  0  4.219311  0
C  C130  1  0.47145551  0.80215949  0.48690900  1  1.564724  0  0.219128  0.47446  0  4.219883  0
C  C131  1  0.02854350  0.19783519  0.98690254  1  1.564905  0  0.219186  0.474679  0  4.219926  0
C  C132  1  0.48325423  0.20834121  0.98517541  1  1.620627  0  0.219864  0.484218  0  4.229649  0
C  C133  1  0.01675462  0.79166093  0.48518426  1  1.620093  0  0.219725  0.483898  0  4.229887  0
C  C134  1  0.51675989  0.70832694  0.51481924  1  1.620103  0  0.220031  0.484525  0  4.229157  0
C  C135  1  0.98324513  0.29166342  0.01480485  1  1.620169  0  0.219988  0.4844  0  4.229593  0
N  N136  1  0.77285047  0.04790730  0.29499958  1  -0.996709  0  -0.334472  0.073669  0  3.589453  0
N  N137  1  0.72715230  0.95209242  0.79500359  1  -0.996762  0  -0.334479  0.073637  0  3.589718  0
N  N138  1  0.22714618  0.54790742  0.20500116  1  -0.996607  0  -0.334504  0.073543  0  3.58944  0
N  N139  1  0.27284890  0.45208739  0.70499060  1  -0.996496  0  -0.334448  0.07356  0  3.589867  0
N  N140  1  0.11407933  0.90095022  0.24338571  1  -1.286289  0  -0.328598  -0.119286  0  3.654695  0
N  N141  1  0.38591549  0.09906541  0.74338437  1  -1.28544  0  -0.328514  -0.119324  0  3.655578  0
N  N142  1  0.88593120  0.40094819  0.25661159  1  -1.285967  0  -0.328593  -0.119297  0  3.655077  0
N  N143  1  0.61407007  0.59905851  0.75661387  1  -1.286164  0  -0.328582  -0.119363  0  3.655293  0
O  O144  1  0.81771304  0.23821004  0.22214210  1  -1.471589  0  -0.36554  -0.743131  0  2.216991  0
O  O145  1  0.68228037  0.76179617  0.72215816  1  -1.471483  0  -0.365432  -0.743006  0  2.216965  0
O  O146  1  0.18228178  0.73821089  0.27785903  1  -1.471689  0  -0.365542  -0.743096  0  2.216925  0
O  O147  1  0.31770755  0.26180117  0.77784245  1  -1.471426  0  -0.365441  -0.742996  0  2.217054  0
O  O148  1  0.74244897  0.17786741  0.08012134  1  -1.443984  0  -0.441068  -0.759809  0  2.378924  0
O  O149  1  0.75755763  0.82213413  0.58012673  1  -1.443863  0  -0.440957  -0.759729  0  2.378904  0
O  O150  1  0.25756665  0.67785435  0.41988502  1  -1.444222  0  -0.440939  -0.759897  0  2.378753  0
O  O151  1  0.24242995  0.32214747  0.91987796  1  -1.443859  0  -0.440911  -0.759863  0  2.378858  0
O  O152  1  0.59487401  0.21277040  0.19131953  1  -1.376595  0  -0.37947  -0.642874  0  2.179547  0
O  O153  1  0.90512745  0.78723054  0.69132104  1  -1.376546  0  -0.379398  -0.642769  0  2.17962  0
O  O154  1  0.40511791  0.71276211  0.30867551  1  -1.376525  0  -0.379311  -0.642767  0  2.179716  0
O  O155  1  0.09486693  0.28723690  0.80867885  1  -1.376565  0  -0.379522  -0.643046  0  2.179526  0
O  O156  1  0.75439178  0.95611127  0.45717689  1  -1.459517  0  -0.416885  -0.760585  0  2.312797  0
O  O157  1  0.74560609  0.04388216  0.95717537  1  -1.459667  0  -0.416849  -0.760734  0  2.312839  0
O  O158  1  0.24561568  0.45612120  0.04281706  1  -1.459778  0  -0.416857  -0.760727  0  2.313107  0
O  O159  1  0.25439142  0.54388058  0.54282312  1  -1.459602  0  -0.416844  -0.760692  0  2.312959  0
O  O160  1  0.72979645  0.11770245  0.51377654  1  -1.456256  0  -0.450776  -0.761087  0  2.347526  0
O  O161  1  0.77016503  0.88229470  0.01379367  1  -1.45595  0  -0.450687  -0.761044  0  2.347276  0
O  O162  1  0.27020618  0.61771894  0.98622472  1  -1.456183  0  -0.450834  -0.761076  0  2.347519  0
O  O163  1  0.22981331  0.38228320  0.48621178  1  -1.456251  0  -0.450748  -0.760983  0  2.347367  0
O  O164  1  0.54758954  0.02582042  0.47673573  1  -1.435639  0  -0.39178  -0.666475  0  2.199065  0
O  O165  1  0.95238907  0.97417359  0.97674502  1  -1.4359  0  -0.391827  -0.666587  0  2.198729  0
O  O166  1  0.45240602  0.52583627  0.02327317  1  -1.436083  0  -0.391859  -0.666593  0  2.19881  0
O  O167  1  0.04760967  0.47416155  0.52325527  1  -1.435916  0  -0.391897  -0.666655  0  2.198514  0
O  O168  1  0.61250560  0.27916754  0.44631934  1  -1.182508  0  -0.343989  -0.532657  0  2.306722  0
O  O169  1  0.88750771  0.72082459  0.94632885  1  -1.18247  0  -0.343815  -0.532523  0  2.306905  0
O  O170  1  0.38750204  0.77920187  0.05368285  1  -1.182731  0  -0.343861  -0.532557  0  2.306543  0
O  O171  1  0.11249051  0.22080460  0.55366202  1  -1.18253  0  -0.343857  -0.532591  0  2.306964  0
O  O172  1  0.42691219  0.26019533  0.39426091  1  -1.203921  0  -0.360976  -0.5514  0  2.271097  0
O  O173  1  0.07310563  0.73979781  0.89427557  1  -1.203954  0  -0.360983  -0.551363  0  2.270888  0
O  O174  1  0.57310417  0.76021952  0.10573951  1  -1.203365  0  -0.360873  -0.551288  0  2.270865  0
O  O175  1  0.92689010  0.23977781  0.60572266  1  -1.203088  0  -0.360998  -0.551385  0  2.270531  0
O  O176  1  0.34768759  0.21890446  0.54616396  1  -1.181731  0  -0.350744  -0.536596  0  2.354058  0
O  O177  1  0.15230607  0.78108781  0.04618761  1  -1.182285  0  -0.350726  -0.536325  0  2.353756  0
O  O178  1  0.65230617  0.71891299  0.95383499  1  -1.182439  0  -0.350588  -0.536365  0  2.354008  0
O  O179  1  0.84769892  0.28108859  0.45381891  1  -1.182222  0  -0.350717  -0.53636  0  2.353925  0
O  O180  1  0.53143585  0.24040878  0.59926610  1  -1.177372  0  -0.36171  -0.539969  0  2.290277  0
O  O181  1  0.96854438  0.75958994  0.09928334  1  -1.177959  0  -0.361786  -0.540059  0  2.290526  0
O  O182  1  0.46855454  0.74041933  0.90073772  1  -1.177477  0  -0.361824  -0.53995  0  2.290628  0
O  O183  1  0.03145152  0.25958395  0.40071894  1  -1.177545  0  -0.361678  -0.53993  0  2.29079  0
O  O184  1  0.72616340  0.14879260  0.67722836  1  -1.159185  0  -0.325243  -0.48992  0  2.335529  0
O  O185  1  0.77386160  0.85119689  0.17725178  1  -1.159044  0  -0.325083  -0.489562  0  2.335211  0
O  O186  1  0.27386529  0.64879099  0.82276966  1  -1.159317  0  -0.325217  -0.489878  0  2.335371  0
O  O187  1  0.22615114  0.35119778  0.32275319  1  -1.159205  0  -0.324977  -0.489627  0  2.335361  0
O  O188  1  0.75196749  0.13029852  0.81489060  1  -1.194793  0  -0.341807  -0.529759  0  2.388641  0
O  O189  1  0.74804713  0.86969092  0.31490749  1  -1.194451  0  -0.341919  -0.529692  0  2.388832  0
O  O190  1  0.24805214  0.63028869  0.68511185  1  -1.194685  0  -0.341997  -0.529821  0  2.388925  0
O  O191  1  0.25194444  0.36970216  0.18509678  1  -1.194335  0  -0.34208  -0.529837  0  2.388692  0
O  O192  1  0.75528298  0.30650542  0.83805802  1  -1.162236  0  -0.332854  -0.527171  0  2.294864  0
O  O193  1  0.74467937  0.69348050  0.33806767  1  -1.162369  0  -0.332722  -0.526923  0  2.294666  0
O  O194  1  0.24471869  0.80648688  0.66194799  1  -1.162672  0  -0.332827  -0.527116  0  2.295663  0
O  O195  1  0.25534439  0.19350003  0.16193241  1  -1.162282  0  -0.332782  -0.527026  0  2.294737  0
O  O196  1  0.73810800  0.32986438  0.69870607  1  -1.195577  0  -0.339525  -0.553962  0  2.293092  0
O  O197  1  0.76185323  0.67013246  0.19871371  1  -1.195534  0  -0.339566  -0.5538  0  2.293283  0
O  O198  1  0.26189299  0.82985808  0.80129363  1  -1.195369  0  -0.33953  -0.554038  0  2.29322  0
O  O199  1  0.23812675  0.17013419  0.30127531  1  -1.195505  0  -0.339504  -0.55394  0  2.293312  0
O  O200  1  0.45252575  0.35190570  0.05105672  1  -1.189464  0  -0.341216  -0.550133  0  2.353367  0
O  O201  1  0.04748110  0.64808654  0.55106411  1  -1.188739  0  -0.341197  -0.550038  0  2.353166  0
O  O202  1  0.54749589  0.85189675  0.44893956  1  -1.189223  0  -0.341268  -0.549927  0  2.353343  0
O  O203  1  0.95252269  0.14809740  0.94892895  1  -1.189246  0  -0.34115  -0.549899  0  2.353475  0
O  O204  1  0.63282882  0.32381039  0.99399269  1  -1.163631  0  -0.318397  -0.506205  0  2.311152  0
O  O205  1  0.86718484  0.67618285  0.49399255  1  -1.163439  0  -0.318366  -0.506139  0  2.310797  0
O  O206  1  0.36719702  0.82378926  0.50600331  1  -1.164084  0  -0.3181  -0.505818  0  2.311248  0
O  O207  1  0.13281387  0.17620729  0.00600451  1  -1.164103  0  -0.318209  -0.505981  0  2.310965  0
O  O208  1  0.55620952  0.16238036  0.94188661  1  -1.17943  0  -0.357145  -0.536976  0  2.338234  0
O  O209  1  0.94380927  0.83762468  0.44188711  1  -1.179306  0  -0.35713  -0.536832  0  2.338269  0
O  O210  1  0.44381663  0.66236207  0.55811321  1  -1.178903  0  -0.357272  -0.537105  0  2.338288  0
O  O211  1  0.05618201  0.33762539  0.05810365  1  -1.17922  0  -0.35727  -0.537011  0  2.338379  0
O  O212  1  0.37890927  0.18672632  0.00481317  1  -1.163761  0  -0.340756  -0.510091  0  2.290263  0
O  O213  1  0.12108831  0.81327092  0.50484666  1  -1.16329  0  -0.340663  -0.509978  0  2.290382  0
O  O214  1  0.62110109  0.68671005  0.49518075  1  -1.163529  0  -0.340822  -0.510169  0  2.290109  0
O  O215  1  0.87890364  0.31328521  0.99514753  1  -1.16351  0  -0.340833  -0.510168  0  2.290265  0
O  O216  1  0.70908249  0.41251501  0.56362626  1  -1.224323  0  -0.5874  -0.752407  0  2.062224  0
O  O217  1  0.79091483  0.58748390  0.06364502  1  -1.225608  0  -0.587505  -0.752686  0  2.062041  0
O  O218  1  0.29089080  0.91252510  0.93636500  1  -1.22433  0  -0.587355  -0.752543  0  2.062154  0
O  O219  1  0.20910619  0.08747527  0.43635058  1  -1.225082  0  -0.587478  -0.752415  0  2.062318  0
