# generated using pymatgen
data_AgH16C20N7O3
_symmetry_space_group_name_H-M   'P 1'
_cell_length_a   8.30738642
_cell_length_b   10.77750335
_cell_length_c   11.33726923
_cell_angle_alpha   84.63793887
_cell_angle_beta   68.76507794
_cell_angle_gamma   73.86222287
_symmetry_Int_Tables_number   1
_chemical_formula_structural   AgH16C20N7O3
_chemical_formula_sum   'Ag2 H32 C40 N14 O6'
_cell_volume   908.82808339
_cell_formula_units_Z   2
loop_
 _symmetry_equiv_pos_site_id
 _symmetry_equiv_pos_as_xyz
  1  'x, y, z'
loop_
 _atom_site_type_symbol
 _atom_site_label
 _atom_site_symmetry_multiplicity
 _atom_site_fract_x
 _atom_site_fract_y
 _atom_site_fract_z
 _atom_site_occupancy
 _atom_site_hle17_bader_spin_density
 _atom_site_hle17_ddec_charge
 _atom_site_hle17_ddec_spin_density
 _atom_site_hle17_ddec_sum_bond_order
 _atom_site_hle17_magmom
 _atom_site_hse06_10hf_bader_spin_density
 _atom_site_hse06_10hf_ddec_charge
 _atom_site_hse06_10hf_ddec_spin_density
 _atom_site_hse06_10hf_ddec_sum_bond_order
 _atom_site_hse06_10hf_magmom
 _atom_site_hse06_bader_spin_density
 _atom_site_hse06_ddec_charge
 _atom_site_hse06_ddec_spin_density
 _atom_site_hse06_ddec_sum_bond_order
 _atom_site_hse06_magmom
 _atom_site_pbe_bader_spin_density
 _atom_site_pbe_cm5_charge
 _atom_site_pbe_ddec_charge
 _atom_site_pbe_ddec_spin_density
 _atom_site_pbe_ddec_sum_bond_order
 _atom_site_pbe_magmom
Ag  Ag0  1  0.07985332  0.48193455  0.30729090  1  0  0.545414  0  1.349507  0  0  0.399594  0  1.790946  0  0  0.427662  0  1.744606  0  0  0.470644  0.380582  0  1.823255  0
Ag  Ag1  1  0.92014642  0.51806496  0.69270959  1  0  0.545411  0  1.349505  0  0  0.399568  0  1.790966  0  0  0.427634  0  1.744623  0  0  0.470638  0.380558  0  1.823278  0
H  H2  1  0.22416247  0.38523723  0.78621287  1  0  0.088466  0  0.979028  0  0  0.094406  0  1.052159  0  0  0.097636  0  1.050061  0  0  0.095788  0.092189  0  1.053523  0
H  H3  1  0.77583820  0.61476325  0.21378640  1  0  0.08848  0  0.979018  0  0  0.094423  0  1.052145  0  0  0.097653  0  1.050045  0  0  0.095792  0.092204  0  1.053512  0
H  H4  1  0.98326061  0.17869102  0.10044693  1  0  0.091532  0  0.962888  0  0  0.10012  0  1.027503  0  0  0.102622  0  1.02737  0  0  0.100305  0.098548  0  1.027236  0
H  H5  1  0.01673970  0.82131042  0.89955234  1  0  0.091544  0  0.962866  0  0  0.100139  0  1.027469  0  0  0.102642  0  1.027337  0  0  0.100313  0.098569  0  1.027203  0
H  H6  1  0.48746790  0.90464015  0.76134239  1  0  0.100413  0  0.968425  0  0  0.109178  0  1.035312  0  0  0.111882  0  1.033558  0  0  0.102927  0.107168  0  1.03664  0
H  H7  1  0.51253312  0.09535936  0.23865775  1  0  0.100408  0  0.968428  0  0  0.109149  0  1.035345  0  0  0.111871  0  1.033572  0  0  0.102925  0.107139  0  1.036672  0
H  H8  1  0.71530266  0.38672486  0.55983152  1  0  0.123777  0  0.975219  0  0  0.133511  0  1.038687  0  0  0.136584  0  1.036203  0  0  0.108434  0.131064  0  1.041097  0
H  H9  1  0.28469801  0.61327562  0.44016952  1  0  0.123812  0  0.97519  0  0  0.133541  0  1.038667  0  0  0.136614  0  1.036184  0  0  0.108446  0.131095  0  1.041076  0
H  H10  1  0.11362836  0.90447466  0.23217775  1  0  0.1074  0  0.915114  0  0  0.123236  0  0.97917  0  0  0.124065  0  0.977409  0  0  0.125942  0.122607  0  0.979527  0
H  H11  1  0.88637102  0.09552581  0.76782186  1  0  0.10738  0  0.915104  0  0  0.123215  0  0.979161  0  0  0.124042  0  0.977403  0  0  0.12594  0.122586  0  0.979517  0
H  H12  1  0.31617194  0.94165609  0.20830615  1  0  0.081102  0  0.955366  0  0  0.09353  0  1.029625  0  0  0.093633  0  1.029008  0  0  0.113376  0.093416  0  1.029135  0
H  H13  1  0.68382685  0.05834246  0.79169467  1  0  0.081083  0  0.955378  0  0  0.09351  0  1.029641  0  0  0.09361  0  1.029024  0  0  0.113364  0.093396  0  1.029149  0
H  H14  1  0.57853649  0.02201205  0.59117222  1  0  0.093323  0  0.968125  0  0  0.104519  0  1.0315  0  0  0.106844  0  1.030234  0  0  0.101657  0.10251  0  1.033088  0
H  H15  1  0.42146289  0.97798843  0.40882739  1  0  0.093289  0  0.96818  0  0  0.104514  0  1.031519  0  0  0.106839  0  1.030254  0  0  0.10166  0.102507  0  1.033102  0
H  H16  1  0.03289474  0.23524729  0.87524192  1  0  0.090736  0  0.971063  0  0  0.099944  0  1.034545  0  0  0.10185  0  1.034793  0  0  0.099259  0.098518  0  1.034581  0
H  H17  1  0.96710722  0.76475318  0.12475701  1  0  0.090762  0  0.971032  0  0  0.099937  0  1.034555  0  0  0.101843  0  1.034802  0  0  0.09927  0.098512  0  1.034589  0
H  H18  1  0.28699121  0.10319778  0.70611713  1  0  0.094992  0  0.988529  0  0  0.102755  0  1.055191  0  0  0.105532  0  1.053796  0  0  0.100921  0.100797  0  1.056189  0
H  H19  1  0.71300946  0.89680269  0.29388213  1  0  0.094981  0  0.988553  0  0  0.102741  0  1.055221  0  0  0.10552  0  1.053821  0  0  0.100921  0.100782  0  1.056221  0
H  H20  1  0.59391893  0.77859361  0.90828051  1  0  0.090147  0  0.964135  0  0  0.094019  0  1.04762  0  0  0.095969  0  1.045178  0  0  0.112854  0.092316  0  1.05078  0
H  H21  1  0.40608408  0.22140397  0.09171751  1  0  0.090131  0  0.964132  0  0  0.094005  0  1.047626  0  0  0.095952  0  1.045189  0  0  0.112834  0.092301  0  1.050785  0
H  H22  1  0.50582818  0.81445986  0.07260139  1  0  0.094271  0  0.933843  0  0  0.107776  0  0.998621  0  0  0.108699  0  0.999112  0  0  0.118614  0.107244  0  0.999098  0
H  H23  1  0.49417320  0.18553869  0.92739875  1  0  0.094259  0  0.933831  0  0  0.107763  0  0.998614  0  0  0.108686  0  0.999104  0  0  0.118603  0.10723  0  0.999092  0
H  H24  1  0.85129434  0.92698771  0.41340734  1  0  0.11599  0  0.98777  0  0  0.117612  0  1.06244  0  0  0.121865  0  1.059395  0  0  0.104254  0.114581  0  1.064805  0
H  H25  1  0.14870503  0.07301277  0.58659227  1  0  0.115981  0  0.98776  0  0  0.117586  0  1.062457  0  0  0.12184  0  1.059412  0  0  0.104237  0.114553  0  1.064821  0
H  H26  1  0.48078128  0.69345814  0.73845016  1  0  0.12081  0  0.97676  0  0  0.122678  0  1.050974  0  0  0.127403  0  1.04671  0  0  0.105654  0.119163  0  1.054208  0
H  H27  1  0.51921775  0.30654331  0.26155034  1  0  0.120796  0  0.976806  0  0  0.122678  0  1.051005  0  0  0.127404  0  1.046741  0  0  0.105647  0.119161  0  1.054239  0
H  H28  1  0.51122603  0.24639441  0.66670802  1  0  0.083384  0  0.966568  0  0  0.094078  0  1.031676  0  0  0.095925  0  1.032329  0  0  0.096356  0.092701  0  1.031313  0
H  H29  1  0.48877335  0.75360607  0.33329247  1  0  0.083383  0  0.966541  0  0  0.094082  0  1.031643  0  0  0.095928  0  1.032296  0  0  0.096353  0.092704  0  1.031278  0
H  H30  1  0.38778162  0.53584913  0.65035621  1  0  0.099765  0  0.941181  0  0  0.112577  0  0.997034  0  0  0.114881  0  0.996852  0  0  0.105244  0.11085  0  0.997284  0
H  H31  1  0.61221775  0.46415134  0.34964341  1  0  0.099762  0  0.941197  0  0  0.112556  0  0.997074  0  0  0.114858  0  0.996894  0  0  0.105252  0.110829  0  0.997323  0
H  H32  1  0.14331562  0.38754325  0.02169835  1  0  0.105926  0  0.955869  0  0  0.114985  0  1.019925  0  0  0.117578  0  1.019186  0  0  0.104113  0.11279  0  1.021132  0
H  H33  1  0.85668411  0.61245626  0.97830125  1  0  0.10595  0  0.95589  0  0  0.115015  0  1.019934  0  0  0.117608  0  1.019195  0  0  0.104114  0.112821  0  1.021144  0
C  C34  1  0.25991793  0.45401396  0.83046508  1  0  -0.08762  0  3.769384  0  0  -0.105728  0  4.032666  0  0  -0.108884  0  4.053487  0  0  -0.096772  -0.103513  0  4.017973  0
C  C35  1  0.74008145  0.54598651  0.16953365  1  0  -0.087632  0  3.769418  0  0  -0.105739  0  4.032692  0  0  -0.108895  0  4.053514  0  0  -0.096769  -0.103524  0  4.018003  0
C  C36  1  0.09512152  0.11856493  0.02648125  1  0  -0.114647  0  3.758625  0  0  -0.138164  0  4.012003  0  0  -0.140576  0  4.033199  0  0  -0.093812  -0.136427  0  3.997481  0
C  C37  1  0.90487856  0.88143362  0.97351924  1  0  -0.114673  0  3.758665  0  0  -0.138176  0  4.012043  0  0  -0.140591  0  4.033243  0  0  -0.093774  -0.136441  0  3.997525  0
C  C38  1  0.35604220  0.63170162  0.93343967  1  0  0.0941  0  3.772847  0  0  0.078002  0  4.019997  0  0  0.082246  0  4.042561  0  0  0.101613  0.067086  0  4.002884  0
C  C39  1  0.64395718  0.36829886  0.06655994  1  0  0.09411  0  3.772821  0  0  0.077989  0  4.019998  0  0  0.082233  0  4.042562  0  0  0.101593  0.067063  0  4.002879  0
C  C40  1  0.37713880  0.96564949  0.83570473  1  0  -0.119723  0  3.745886  0  0  -0.138381  0  3.992408  0  0  -0.140647  0  4.014398  0  0  -0.093579  -0.136129  0  3.976895  0
C  C41  1  0.62286351  0.03435002  0.16429595  1  0  -0.119744  0  3.745899  0  0  -0.138398  0  3.992422  0  0  -0.14068  0  4.014404  0  0  -0.093614  -0.136145  0  3.976908  0
C  C42  1  0.74299656  0.28885601  0.52688791  1  0  -0.122019  0  3.707167  0  0  -0.14179  0  3.953006  0  0  -0.1435  0  3.973428  0  0  -0.084408  -0.140784  0  3.94012  0
C  C43  1  0.25700411  0.71114447  0.47311312  1  0  -0.122122  0  3.707212  0  0  -0.141895  0  3.953065  0  0  -0.143606  0  3.973489  0  0  -0.084457  -0.140889  0  3.94018  0
C  C44  1  0.26123151  0.54649905  0.01217258  1  0  0.098267  0  3.84259  0  0  0.094849  0  4.094311  0  0  0.095125  0  4.117721  0  0  0.086239  0.093922  0  4.081586  0
C  C45  1  0.73876658  0.45350142  0.98782649  1  0  0.098274  0  3.842535  0  0  0.094853  0  4.094266  0  0  0.095129  0  4.117677  0  0  0.08623  0.093925  0  4.081546  0
C  C46  1  0.18577592  0.97941701  0.19653145  1  0  -0.051416  0  3.653476  0  0  -0.134488  0  3.905172  0  0  -0.119642  0  3.917467  0  0  -0.040061  -0.137055  0  3.898239  0
C  C47  1  0.81422217  0.02058347  0.80346939  1  0  -0.051391  0  3.653389  0  0  -0.134419  0  3.905061  0  0  -0.119583  0  3.917347  0  0  -0.040042  -0.136987  0  3.898127  0
C  C48  1  0.20985711  0.01058384  0.05926700  1  0  0.033216  0  3.704543  0  0  0.049262  0  3.94545  0  0  0.048364  0  3.967281  0  0  -0.008448  0.049674  0  3.929448  0
C  C49  1  0.79014462  0.98941374  0.94073314  1  0  0.033295  0  3.704419  0  0  0.049287  0  3.94537  0  0  0.048388  0  3.967205  0  0  -0.008446  0.049699  0  3.92937  0
C  C50  1  0.66943706  0.08138957  0.54323051  1  0  -0.038511  0  3.736003  0  0  -0.06153  0  3.99613  0  0  -0.060986  0  4.016437  0  0  -0.086093  -0.061828  0  3.983108  0
C  C51  1  0.33056232  0.91861091  0.45676910  1  0  -0.038462  0  3.735976  0  0  -0.061514  0  3.996124  0  0  -0.060969  0  4.01643  0  0  -0.086101  -0.061805  0  3.983088  0
C  C52  1  0.89490865  0.23657351  0.42158563  1  0  0.116083  0  3.810719  0  0  0.114416  0  4.059769  0  0  0.114684  0  4.081406  0  0  0.093252  0.114422  0  4.04323  0
C  C53  1  0.10509237  0.76342600  0.57841452  1  0  0.116101  0  3.810795  0  0  0.11442  0  4.059833  0  0  0.114687  0  4.081476  0  0  0.093228  0.114425  0  4.043296  0
C  C54  1  0.93119323  0.10835188  0.38094766  1  0  0.09832  0  3.798162  0  0  0.075405  0  4.035355  0  0  0.090029  0  4.060166  0  0  0.106909  0.073041  0  4.01978  0
C  C55  1  0.06880650  0.89164764  0.61905195  1  0  0.098278  0  3.798172  0  0  0.075401  0  4.035346  0  0  0.090009  0  4.060154  0  0  0.106906  0.073042  0  4.019769  0
C  C56  1  0.12231939  0.15086967  0.90011579  1  0  -0.06223  0  3.767642  0  0  -0.073859  0  4.017148  0  0  -0.07556  0  4.039547  0  0  -0.093544  -0.072418  0  4.001846  0
C  C57  1  0.87768258  0.84913080  0.09988402  1  0  -0.062215  0  3.767625  0  0  -0.073824  0  4.017136  0  0  -0.075525  0  4.039534  0  0  -0.093566  -0.072384  0  4.001836  0
C  C58  1  0.26550004  0.07564749  0.80432492  1  0  -0.076152  0  3.776108  0  0  -0.090818  0  4.025641  0  0  -0.09324  0  4.047549  0  0  -0.097212  -0.089004  0  4.010046  0
C  C59  1  0.73450063  0.92435299  0.19567611  1  0  -0.07613  0  3.77605  0  0  -0.090791  0  4.025569  0  0  -0.093212  0  4.04748  0  0  -0.0972  -0.088978  0  4.009976  0
C  C60  1  0.46948506  0.80729634  0.99006132  1  0  -0.062217  0  3.656941  0  0  -0.129124  0  3.902549  0  0  -0.124999  0  3.91309  0  0  -0.04836  -0.139923  0  3.893748  0
C  C61  1  0.53051725  0.19270317  0.00993760  1  0  -0.062191  0  3.656884  0  0  -0.129122  0  3.902508  0  0  -0.124997  0  3.913047  0  0  -0.048366  -0.139929  0  3.893703  0
C  C62  1  0.82091187  0.02712792  0.44184759  1  0  -0.145397  0  3.742702  0  0  -0.16391  0  4.002985  0  0  -0.16849  0  4.020395  0  0  -0.095066  -0.160904  0  3.98987  0
C  C63  1  0.17908657  0.97287160  0.55815324  1  0  -0.145298  0  3.742633  0  0  -0.163803  0  4.002903  0  0  -0.168384  0  4.020316  0  0  -0.094965  -0.160796  0  3.989784  0
C  C64  1  0.35031612  0.93161145  0.96238996  1  0  0.019542  0  3.71727  0  0  0.037346  0  3.949555  0  0  0.035183  0  3.975079  0  0  -0.015221  0.038337  0  3.93455  0
C  C65  1  0.64968361  0.06838807  0.03761229  1  0  0.019481  0  3.717216  0  0  0.037338  0  3.94946  0  0  0.035175  0  3.974987  0  0  -0.015202  0.038329  0  3.934457  0
C  C66  1  0.40480183  0.63050418  0.80124809  1  0  -0.137384  0  3.71404  0  0  -0.157181  0  3.974929  0  0  -0.160672  0  3.993042  0  0  -0.089704  -0.154703  0  3.964029  0
C  C67  1  0.59519755  0.36949629  0.19875152  1  0  -0.137363  0  3.71406  0  0  -0.157162  0  3.974943  0  0  -0.160651  0  3.993051  0  0  -0.089684  -0.154681  0  3.964037  0
C  C68  1  0.63149559  0.20948881  0.58532370  1  0  -0.065907  0  3.762253  0  0  -0.083882  0  4.020325  0  0  -0.087711  0  4.044173  0  0  -0.092997  -0.081438  0  4.004512  0
C  C69  1  0.36850379  0.79051167  0.41467591  1  0  -0.065929  0  3.762184  0  0  -0.083908  0  4.020272  0  0  -0.087737  0  4.044118  0  0  -0.093015  -0.081463  0  4.004464  0
C  C70  1  0.35353346  0.54055635  0.75242412  1  0  -0.038299  0  3.725995  0  0  -0.057016  0  3.980478  0  0  -0.057968  0  4.002546  0  0  -0.082472  -0.055925  0  3.964764  0
C  C71  1  0.64646427  0.45944510  0.24757584  1  0  -0.038278  0  3.726001  0  0  -0.056987  0  3.980492  0  0  -0.057938  0  4.002558  0  0  -0.082485  -0.055892  0  3.964762  0
C  C72  1  0.21332383  0.45467367  0.96095386  1  0  -0.125167  0  3.749842  0  0  -0.142719  0  3.998546  0  0  -0.144135  0  4.019675  0  0  -0.088812  -0.141604  0  3.984568  0
C  C73  1  0.78667390  0.54532777  0.03904698  1  0  -0.125226  0  3.749906  0  0  -0.142785  0  3.998622  0  0  -0.144202  0  4.019753  0  0  -0.088829  -0.141672  0  3.984649  0
N  N74  1  0.03076197  0.28721075  0.34140934  1  0  -0.231016  0  3.224008  0  0  -0.179767  0  3.547127  0  0  -0.1909  0  3.554381  0  0  -0.22145  -0.172233  0  3.540035  0
N  N75  1  0.96923905  0.71278876  0.65859080  1  0  -0.231052  0  3.22404  0  0  -0.179776  0  3.54713  0  0  -0.19091  0  3.554388  0  0  -0.221451  -0.172241  0  3.54004  0
N  N76  1  0.08715253  0.09130413  0.27918759  1  0  0.010381  0  3.539514  0  0  0.125477  0  3.722564  0  0  0.082794  0  3.785144  0  0  -0.126246  0.132466  0  3.7071  0
N  N77  1  0.91284720  0.90869538  0.72081290  1  0  0.010412  0  3.5395  0  0  0.125432  0  3.722632  0  0  0.082798  0  3.785154  0  0  -0.126259  0.132422  0  3.707166  0
N  N78  1  0.38179918  0.70215688  0.01667795  1  0  0.00927  0  3.5  0  0  0.095776  0  3.723009  0  0  0.082729  0  3.748511  0  0  -0.121458  0.128866  0  3.67565  0
N  N79  1  0.61820220  0.29784166  0.98332131  1  0  0.00924  0  3.499964  0  0  0.095766  0  3.722973  0  0  0.082718  0  3.748475  0  0  -0.121424  0.128882  0  3.675582  0
N  N80  1  0.23243884  0.31070854  0.51847667  1  0  0.689201  0  4.150476  0  0  0.716999  0  4.443989  0  0  0.743341  0  4.451699  0  0  0.088755  0.697917  0  4.43821  0
N  N81  1  0.76756054  0.68929193  0.48152382  1  0  0.689224  0  4.150487  0  0  0.717018  0  4.443993  0  0  0.743365  0  4.451701  0  0  0.088773  0.697935  0  4.43822  0
N  N82  1  0.14514312  0.19926706  0.25712796  1  0  -0.07966  0  2.908671  0  0  -0.088617  0  3.188325  0  0  -0.072461  0  3.203644  0  0  -0.077318  -0.092121  0  3.181915  0
N  N83  1  0.85485790  0.80073246  0.74287130  1  0  -0.079633  0  2.908642  0  0  -0.08857  0  3.188293  0  0  -0.07243  0  3.203602  0  0  -0.077292  -0.092075  0  3.181886  0
N  N84  1  0.30697833  0.66632104  0.13724074  1  0  -0.051723  0  2.859238  0  0  -0.057469  0  3.138673  0  0  -0.049475  0  3.149204  0  0  -0.067572  -0.070654  0  3.127122  0
N  N85  1  0.69302104  0.33367943  0.86275887  1  0  -0.0517  0  2.859213  0  0  -0.057461  0  3.138656  0  0  -0.049467  0  3.149189  0  0  -0.067584  -0.070653  0  3.1271  0
N  N86  1  0.23464596  0.57286290  0.13566834  1  0  -0.247369  0  3.245354  0  0  -0.192691  0  3.570394  0  0  -0.203913  0  3.578568  0  0  -0.227523  -0.185562  0  3.567998  0
N  N87  1  0.76535342  0.42713757  0.86433127  1  0  -0.247375  0  3.245286  0  0  -0.192687  0  3.570322  0  0  -0.203909  0  3.578496  0  0  -0.227516  -0.185559  0  3.567928  0
O  O88  1  0.22268998  0.42811335  0.48342309  1  0  -0.510506  0  1.832783  0  0  -0.485189  0  2.091128  0  0  -0.50168  0  2.079079  0  0  -0.214373  -0.472862  0  2.099127  0
O  O89  1  0.77730940  0.57188713  0.51657741  1  0  -0.510499  0  1.832752  0  0  -0.485177  0  2.091073  0  0  -0.50167  0  2.079023  0  0  -0.214386  -0.472849  0  2.099074  0
O  O90  1  0.34974415  0.21946813  0.45101073  1  0  -0.441027  0  1.766181  0  0  -0.428203  0  1.981071  0  0  -0.441578  0  1.977723  0  0  -0.176382  -0.418235  0  1.983496  0
O  O91  1  0.65025522  0.78053235  0.54898976  1  0  -0.441036  0  1.766198  0  0  -0.428212  0  1.981088  0  0  -0.441589  0  1.977736  0  0  -0.176381  -0.418238  0  1.983506  0
O  O92  1  0.11875751  0.28854399  0.62423769  1  0  -0.487851  0  1.782685  0  0  -0.46151  0  2.01805  0  0  -0.478089  0  2.009551  0  0  -0.204229  -0.449452  0  2.023663  0
O  O93  1  0.88124222  0.71145553  0.37576280  1  0  -0.487872  0  1.782738  0  0  -0.461535  0  2.018107  0  0  -0.478118  0  2.00961  0  0  -0.204231  -0.449472  0  2.023711  0
