# generated using pymatgen
data_AlH15C24N2O5
_symmetry_space_group_name_H-M   'P 1'
_cell_length_a   6.66662022
_cell_length_b   16.42092969
_cell_length_c   17.10705276
_cell_angle_alpha   89.99992746
_cell_angle_beta   90.00014779
_cell_angle_gamma   101.71551350
_symmetry_Int_Tables_number   1
_chemical_formula_structural   AlH15C24N2O5
_chemical_formula_sum   'Al2 H30 C48 N4 O10'
_cell_volume   1833.73175111
_cell_formula_units_Z   2
loop_
 _symmetry_equiv_pos_site_id
 _symmetry_equiv_pos_as_xyz
  1  'x, y, z'
loop_
 _atom_site_type_symbol
 _atom_site_label
 _atom_site_symmetry_multiplicity
 _atom_site_fract_x
 _atom_site_fract_y
 _atom_site_fract_z
 _atom_site_occupancy
 _atom_site_pbe_bader_charge
 _atom_site_pbe_bader_spin_density
 _atom_site_pbe_cm5_charge
 _atom_site_pbe_ddec_charge
 _atom_site_pbe_ddec_spin_density
 _atom_site_pbe_ddec_sum_bond_order
 _atom_site_pbe_magmom
Al  Al0  1  0.00000037  0.50000085  0.00000028  1  2.480469  0  0.398914  1.651691  0  2.582629  0
Al  Al1  1  0.50000031  0.50000019  0.99999979  1  2.483098  0  0.399109  1.656181  0  2.577748  0
H  H2  1  0.84568760  0.33455648  0.17899833  1  0.112983  0  0.107354  0.110777  0  1.010139  0
H  H3  1  0.79130292  0.22759913  0.28589697  1  0.069115  0  0.099917  0.100757  0  1.014427  0
H  H4  1  0.15431694  0.66544456  0.17899894  1  0.112937  0  0.107336  0.110763  0  1.010148  0
H  H5  1  0.20870109  0.77240245  0.28589692  1  0.069065  0  0.099923  0.10075  0  1.014412  0
H  H6  1  0.51140669  0.66545584  0.82099925  1  0.131825  0  0.106921  0.109683  0  1.010943  0
H  H7  1  0.56396266  0.77243681  0.71408132  1  0.054508  0  0.099627  0.100387  0  1.013813  0
H  H8  1  0.48859226  0.33454655  0.82099827  1  0.131844  0  0.106916  0.109683  0  1.010931  0
H  H9  1  0.43603433  0.22756008  0.71408393  1  0.054507  0  0.099646  0.100389  0  1.013832  0
H  H10  1  0.15431955  0.66544555  0.82100433  1  0.112919  0  0.107343  0.110763  0  1.010165  0
H  H11  1  0.20870573  0.77240290  0.71410335  1  0.069035  0  0.099918  0.100742  0  1.014354  0
H  H12  1  0.84567883  0.33455871  0.82099904  1  0.112846  0  0.107349  0.110787  0  1.010077  0
H  H13  1  0.79129312  0.22759771  0.71410340  1  0.069027  0  0.099931  0.100771  0  1.014363  0
H  H14  1  0.48859829  0.33454183  0.17899873  1  0.131826  0  0.106914  0.109707  0  1.010949  0
H  H15  1  0.43604350  0.22756025  0.28591666  1  0.054414  0  0.099615  0.10031  0  1.013808  0
H  H16  1  0.51140651  0.66545672  0.17899971  1  0.131838  0  0.106894  0.109656  0  1.010958  0
H  H17  1  0.56396020  0.77244071  0.28591639  1  0.054463  0  0.099646  0.100353  0  1.013795  0
H  H18  1  0.30517264  0.61035472  0.00000095  1  0.597481  0  0.357841  0.435047  0  0.84361  0
H  H19  1  0.69482899  0.38964584  0.00000011  1  0.597493  0  0.357813  0.435021  0  0.84367  0
H  H20  1  0.04156017  0.08316385  0.19721688  1  0.103414  0  0.111515  0.132256  0  0.996003  0
H  H21  1  0.16038150  0.32174802  0.42073220  1  0.09076  0  0.104954  0.129447  0  1.009679  0
H  H22  1  0.95843580  0.91683780  0.19721508  1  0.103403  0  0.111547  0.132311  0  0.99594  0
H  H23  1  0.83963711  0.67825096  0.42072999  1  0.091162  0  0.104946  0.129457  0  1.009796  0
H  H24  1  0.95843580  0.91683383  0.80278461  1  0.10338  0  0.111524  0.132301  0  0.995939  0
H  H25  1  0.83963429  0.67825027  0.57926811  1  0.091196  0  0.104939  0.129441  0  1.009677  0
H  H26  1  0.04155149  0.08316049  0.80278583  1  0.103389  0  0.111505  0.132275  0  0.995976  0
H  H27  1  0.16037749  0.32174796  0.57926974  1  0.090968  0  0.104985  0.129523  0  1.009614  0
H  H28  1  0.00019613  0.99999967  0.43143724  1  0.367317  0  0.303662  0.222305  0  1.053328  0
H  H29  1  0.00019257  0.00000040  0.56856375  1  0.367628  0  0.303605  0.222171  0  1.053438  0
H  H30  1  0.03719982  0.07463139  0.50000135  1  0.392371  0  0.306348  0.223292  0  1.045892  0
H  H31  1  0.96251446  0.92536690  0.49999838  1  0.392759  0  0.306372  0.223393  0  1.046  0
C  C32  1  0.97342694  0.31045459  0.20301599  1  -0.055163  0  -0.081647  -0.084185  0  3.980089  0
C  C33  1  0.94404966  0.25109335  0.26230910  1  -0.007823  0  -0.090528  -0.140978  0  3.980638  0
C  C34  1  0.02657744  0.68954581  0.20301528  1  -0.055236  0  -0.081644  -0.084199  0  3.980301  0
C  C35  1  0.05595659  0.74890700  0.26230834  1  -0.007779  0  -0.090504  -0.140914  0  3.980601  0
C  C36  1  0.66323508  0.68955830  0.79697063  1  -0.016734  0  -0.08176  -0.083483  0  3.97945  0
C  C37  1  0.69322332  0.74891147  0.73768979  1  -0.013482  0  -0.090168  -0.140432  0  3.98209  0
C  C38  1  0.33676247  0.31044162  0.79696894  1  -0.016769  0  -0.081782  -0.083521  0  3.979464  0
C  C39  1  0.30677474  0.25108726  0.73769048  1  -0.013538  0  -0.090157  -0.140389  0  3.982104  0
C  C40  1  0.02658078  0.68954557  0.79698550  1  -0.055131  0  -0.081664  -0.084228  0  3.980375  0
C  C41  1  0.05595924  0.74890619  0.73769181  1  -0.007708  0  -0.090508  -0.140916  0  3.980503  0
C  C42  1  0.97342071  0.31045622  0.79698329  1  -0.054933  0  -0.081703  -0.084251  0  3.980345  0
C  C43  1  0.94403944  0.25109378  0.73769139  1  -0.007786  0  -0.090544  -0.140977  0  3.98053  0
C  C44  1  0.33676839  0.31043937  0.20302735  1  -0.016794  0  -0.081765  -0.083603  0  3.979482  0
C  C45  1  0.30678584  0.25108559  0.26230936  1  -0.013566  0  -0.090116  -0.140223  0  3.981834  0
C  C46  1  0.66323480  0.68956165  0.20302963  1  -0.016768  0  -0.081766  -0.083505  0  3.979404  0
C  C47  1  0.69322129  0.74891352  0.26230925  1  -0.013537  0  -0.090176  -0.14034  0  3.982054  0
C  C48  1  0.19988824  0.39999009  0.10616250  1  1.579639  0  0.266894  0.642662  0  4.098392  0
C  C49  1  0.16976432  0.33975066  0.17243052  1  -0.125951  0  -0.019858  -0.054756  0  3.9891  0
C  C50  1  0.10978084  0.21981851  0.29176438  1  -0.061682  0  0.002276  0.10982  0  4.013694  0
C  C51  1  0.07678327  0.15399162  0.35340156  1  0.025631  0  -0.031267  -0.148613  0  4.021142  0
C  C52  1  0.03614643  0.07250507  0.32780045  1  0.363262  0  0.078316  0.167736  0  4.076663  0
C  C53  1  0.09222717  0.18500936  0.43266651  1  0.283363  0  0.072952  0.162239  0  4.051739  0
C  C54  1  0.02122047  0.04247807  0.24784513  1  -0.147891  0  -0.098531  -0.170945  0  3.977221  0
C  C55  1  0.13341704  0.26779078  0.45873585  1  -0.071846  0  -0.122536  -0.213996  0  4.01069  0
C  C56  1  0.80011855  0.60001039  0.10616327  1  1.579619  0  0.266852  0.642639  0  4.098567  0
C  C57  1  0.83024106  0.66024914  0.17243065  1  -0.125925  0  -0.019866  -0.054859  0  3.989225  0
C  C58  1  0.89022590  0.78018244  0.29176326  1  -0.061719  0  0.002276  0.10984  0  4.013694  0
C  C59  1  0.92321873  0.84600804  0.35339981  1  0.025624  0  -0.031242  -0.148471  0  4.021149  0
C  C60  1  0.96383322  0.92749523  0.32779864  1  0.363384  0  0.078243  0.167458  0  4.077075  0
C  C61  1  0.90777919  0.81498899  0.43266479  1  0.283536  0  0.073078  0.162341  0  4.051642  0
C  C62  1  0.97877369  0.95752229  0.24784447  1  0.030668  0  -0.098611  -0.171032  0  3.977315  0
C  C63  1  0.86658949  0.73220755  0.45873301  1  0.099209  0  -0.122564  -0.21402  0  4.010837  0
C  C64  1  0.80012010  0.60001132  0.89383898  1  1.57983  0  0.2668  0.642593  0  4.098668  0
C  C65  1  0.83024458  0.66024888  0.82757039  1  -0.126322  0  -0.019864  -0.054833  0  3.989268  0
C  C66  1  0.89022657  0.78018103  0.70823652  1  -0.061781  0  0.002301  0.109876  0  4.013624  0
C  C67  1  0.92321783  0.84600730  0.64659876  1  0.025653  0  -0.031213  -0.148397  0  4.021035  0
C  C68  1  0.96382829  0.92749510  0.67220104  1  0.363384  0  0.078233  0.167391  0  4.077104  0
C  C69  1  0.90777842  0.81498956  0.56733381  1  0.28355  0  0.072984  0.16223  0  4.051547  0
C  C70  1  0.97877013  0.95752085  0.75215460  1  0.030648  0  -0.098635  -0.171051  0  3.977405  0
C  C71  1  0.86659005  0.73220814  0.54126447  1  -0.072324  0  -0.122527  -0.21392  0  4.010664  0
C  C72  1  0.19988022  0.39999288  0.89383646  1  1.579603  0  0.266891  0.642674  0  4.098673  0
C  C73  1  0.16975559  0.33975289  0.82756791  1  -0.126128  0  -0.019878  -0.054887  0  3.989388  0
C  C74  1  0.10976981  0.21981772  0.70823705  1  -0.061668  0  0.002317  0.109911  0  4.013607  0
C  C75  1  0.07677155  0.15399026  0.64660051  1  0.025644  0  -0.03122  -0.148496  0  4.021038  0
C  C76  1  0.03613849  0.07250493  0.67220226  1  0.362789  0  0.078314  0.16779  0  4.076561  0
C  C77  1  0.09222009  0.18500931  0.56733495  1  0.283312  0  0.072964  0.162045  0  4.051891  0
C  C78  1  0.02121359  0.04247600  0.75215643  1  -0.147419  0  -0.09846  -0.170934  0  3.977228  0
C  C79  1  0.13341367  0.26778950  0.54126672  1  0.09949  0  -0.122543  -0.213964  0  4.01066  0
N  N80  1  0.99993766  0.99999917  0.37305773  1  -1.176318  0  -0.428486  -0.32307  0  3.623179  0
N  N81  1  0.99992814  0.99999923  0.62694251  1  -1.176302  0  -0.428459  -0.322972  0  3.62318  0
N  N82  1  0.06831339  0.13682242  0.50000133  1  -1.225633  0  -0.409451  -0.283309  0  3.653323  0
N  N83  1  0.93172670  0.86317650  0.49999840  1  -1.226319  0  -0.409546  -0.283638  0  3.653366  0
O  O84  1  0.04117516  0.42281412  0.07983818  1  -1.25531  0  -0.236803  -0.595393  0  2.3485  0
O  O85  1  0.95882547  0.57718638  0.07983913  1  -1.255383  0  -0.236759  -0.595336  0  2.34869  0
O  O86  1  0.61858465  0.57717597  0.92016957  1  -1.251299  0  -0.237567  -0.597666  0  2.350927  0
O  O87  1  0.38141734  0.42282821  0.92016603  1  -1.251292  0  -0.2376  -0.59766  0  2.350856  0
O  O88  1  0.95882568  0.57718728  0.92016331  1  -1.255393  0  -0.236744  -0.595295  0  2.348629  0
O  O89  1  0.04117687  0.42281503  0.92016060  1  -1.255414  0  -0.236766  -0.595351  0  2.348734  0
O  O90  1  0.38141888  0.42282482  0.07983134  1  -1.251398  0  -0.2376  -0.597678  0  2.350855  0
O  O91  1  0.61858081  0.57717382  0.07983078  1  -1.251339  0  -0.237599  -0.597658  0  2.350787  0
O  O92  1  0.27513395  0.55019618  0.00000039  1  -1.401241  0  -0.448965  -0.998669  0  2.22091  0
O  O93  1  0.72486657  0.44980461  0.99999993  1  -1.401237  0  -0.448929  -0.99862  0  2.220874  0
