# generated using pymatgen
data_HoZnH11C12(N2O5)2
_symmetry_space_group_name_H-M   'P 1'
_cell_length_a   8.99647609
_cell_length_b   13.04000401
_cell_length_c   18.33376750
_cell_angle_alpha   71.48549229
_cell_angle_beta   75.79354011
_cell_angle_gamma   69.80120574
_symmetry_Int_Tables_number   1
_chemical_formula_structural   HoZnH11C12(N2O5)2
_chemical_formula_sum   'Ho4 Zn4 H44 C48 N16 O40'
_cell_volume   1891.65395022
_cell_formula_units_Z   4
loop_
 _symmetry_equiv_pos_site_id
 _symmetry_equiv_pos_as_xyz
  1  'x, y, z'
loop_
 _atom_site_type_symbol
 _atom_site_label
 _atom_site_symmetry_multiplicity
 _atom_site_fract_x
 _atom_site_fract_y
 _atom_site_fract_z
 _atom_site_occupancy
 _atom_site_pbe_bader_charge
 _atom_site_pbe_bader_spin_density
 _atom_site_pbe_cm5_charge
 _atom_site_pbe_ddec_charge
 _atom_site_pbe_ddec_spin_density
 _atom_site_pbe_ddec_sum_bond_order
 _atom_site_pbe_magmom
Ho  Ho0  1  0.84355661  0.41427269  0.50382610  1  2.191706  0  1.54184  2.130619  0  2.149958  0
Ho  Ho1  1  0.76149663  0.08583297  0.99621000  1  2.188516  0  1.541616  2.131187  0  2.149542  0
Ho  Ho2  1  0.15644560  0.58572709  0.49617240  1  2.191775  0  1.541866  2.130631  0  2.149908  0
Ho  Ho3  1  0.23850225  0.91416934  0.00378890  1  2.188491  0  1.541572  2.13116  0  2.149514  0
Zn  Zn4  1  0.21870274  0.91280295  0.66063850  1  1.287792  0  0.698346  0.76623  0  2.375922  0
Zn  Zn5  1  0.79226620  0.58712566  0.83930849  1  1.287732  0  0.69922  0.767556  0  2.373959  0
Zn  Zn6  1  0.78129799  0.08719766  0.33936109  1  1.287759  0  0.698328  0.766219  0  2.375994  0
Zn  Zn7  1  0.20773614  0.41287662  0.16069217  1  1.287733  0  0.69919  0.767518  0  2.374019  0
H  H8  1  0.51920074  0.38303698  0.56246320  1  0.666933  0  0.307488  0.416274  0  0.903759  0
H  H9  1  0.46455522  0.11691842  0.93758435  1  0.660029  0  0.307965  0.416506  0  0.904093  0
H  H10  1  0.48079852  0.61696445  0.43753857  1  0.666944  0  0.307494  0.416343  0  0.903657  0
H  H11  1  0.53544320  0.88308221  0.06241388  1  0.660057  0  0.307945  0.416406  0  0.90422  0
H  H12  1  0.51604895  0.48465086  0.58933933  1  0.620324  0  0.320843  0.412606  0  0.890987  0
H  H13  1  0.59010956  0.01545290  0.91061068  1  0.613215  0  0.320408  0.412089  0  0.89178  0
H  H14  1  0.48395330  0.51534888  0.41066190  1  0.620319  0  0.320858  0.412672  0  0.890904  0
H  H15  1  0.40988727  0.98454603  0.08938812  1  0.613236  0  0.320403  0.41207  0  0.89181  0
H  H16  1  0.94045776  0.44044510  0.63546983  1  0.652442  0  0.301029  0.402648  0  0.939787  0
H  H17  1  0.01610591  0.05947464  0.86460408  1  0.646771  0  0.301321  0.404166  0  0.93793  0
H  H18  1  0.05954411  0.55955552  0.36452853  1  0.652444  0  0.301067  0.402664  0  0.939755  0
H  H19  1  0.98389252  0.94052598  0.13539470  1  0.646759  0  0.301318  0.404191  0  0.937904  0
H  H20  1  0.79774156  0.38687250  0.67983796  1  0.636934  0  0.341065  0.44075  0  0.83556  0
H  H21  1  0.86421116  0.11313344  0.82017225  1  0.627412  0  0.341502  0.441238  0  0.835041  0
H  H22  1  0.20226146  0.61312812  0.32016081  1  0.636856  0  0.341117  0.440784  0  0.835499  0
H  H23  1  0.13578428  0.88686886  0.17982707  1  0.627409  0  0.341522  0.441304  0  0.834961  0
H  H24  1  0.55875192  0.18987810  0.51712846  1  0.564811  0  0.316387  0.299522  0  0.966513  0
H  H25  1  0.26579698  0.30989748  0.98287128  1  0.558733  0  0.317995  0.3028  0  0.962653  0
H  H26  1  0.44124687  0.81012167  0.48287156  1  0.564659  0  0.316383  0.29955  0  0.966484  0
H  H27  1  0.73420140  0.69010055  0.01713244  1  0.558768  0  0.318003  0.302829  0  0.962639  0
H  H28  1  0.63715655  0.88481021  0.58354184  1  0.072521  0  0.10037  0.144694  0  1.022854  0
H  H29  1  0.10568117  0.61492529  0.91637447  1  0.086371  0  0.10105  0.145098  0  1.021159  0
H  H30  1  0.36284290  0.11518791  0.41645519  1  0.072575  0  0.100381  0.144785  0  1.02285  0
H  H31  1  0.89431919  0.38507354  0.08363265  1  0.086447  0  0.10105  0.145125  0  1.021053  0
H  H32  1  0.63023290  0.94046830  0.66113279  1  0.055739  0  0.108875  0.166553  0  0.964852  0
H  H33  1  0.23210470  0.55915885  0.83880915  1  0.09586  0  0.109223  0.166199  0  0.964496  0
H  H34  1  0.36977121  0.05953238  0.33886146  1  0.055901  0  0.108972  0.166696  0  0.964805  0
H  H35  1  0.76789832  0.44083912  0.16119893  1  0.095665  0  0.109276  0.16626  0  0.964291  0
H  H36  1  0.72924587  0.99355746  0.56716872  1  0.090597  0  0.1133  0.173759  0  0.967687  0
H  H37  1  0.29012171  0.50602883  0.93282010  1  0.095202  0  0.113174  0.173415  0  0.969476  0
H  H38  1  0.27075321  0.00644154  0.43282543  1  0.090726  0  0.113298  0.173769  0  0.967622  0
H  H39  1  0.70987673  0.49396913  0.06718908  1  0.094935  0  0.113222  0.173478  0  0.969505  0
H  H40  1  0.08037759  0.06416184  0.20794571  1  0.080945  0  0.101316  0.149896  0  1.019269  0
H  H41  1  0.35244561  0.43590206  0.29200364  1  0.081422  0  0.102051  0.151348  0  1.018109  0
H  H42  1  0.91962434  0.93583871  0.79205811  1  0.080951  0  0.101297  0.149853  0  1.01924  0
H  H43  1  0.64755159  0.56409601  0.70799694  1  0.081629  0  0.102035  0.15135  0  1.018079  0
H  H44  1  0.21259089  0.14816797  0.15505295  1  0.059392  0  0.096164  0.145013  0  1.029127  0
H  H45  1  0.51553290  0.35176663  0.34507436  1  0.067261  0  0.095853  0.144359  0  1.028909  0
H  H46  1  0.78740571  0.85183431  0.84494786  1  0.059375  0  0.096158  0.144996  0  1.029106  0
H  H47  1  0.48446280  0.64823229  0.65492567  1  0.067206  0  0.095843  0.144335  0  1.028855  0
H  H48  1  0.01819216  0.18492653  0.13180294  1  0.019159  0  0.096875  0.139476  0  1.006825  0
H  H49  1  0.33442519  0.31532147  0.36820422  1  0.022692  0  0.09681  0.139423  0  1.007035  0
H  H50  1  0.98180643  0.81506816  0.86819767  1  0.019189  0  0.096883  0.13946  0  1.006862  0
H  H51  1  0.66557016  0.68467829  0.63179622  1  0.022666  0  0.09681  0.139447  0  1.007023  0
C  C52  1  0.05083166  0.14050904  0.57294054  1  1.654437  0  0.227785  0.625468  0  4.190562  0
C  C53  1  0.76400701  0.35949445  0.92734633  1  1.635595  0  0.229353  0.629222  0  4.191008  0
C  C54  1  0.94917099  0.85948142  0.42706161  1  1.654572  0  0.227761  0.625513  0  4.190338  0
C  C55  1  0.23599179  0.64050531  0.07265423  1  1.635598  0  0.229327  0.629204  0  4.190947  0
C  C56  1  0.22107952  0.13788216  0.56711559  1  0.441309  0  0.100043  0.016583  0  3.947428  0
C  C57  1  0.92588505  0.36201975  0.93304832  1  0.486228  0  0.096675  0.011986  0  3.947573  0
C  C58  1  0.77891961  0.86211677  0.43288348  1  0.441258  0  0.10001  0.016472  0  3.947479  0
C  C59  1  0.07411304  0.63798169  0.06695250  1  0.486445  0  0.096688  0.012054  0  3.947577  0
C  C60  1  0.30293060  0.21941869  0.54086129  1  0.439758  0  0.086595  -0.009033  0  3.93045  0
C  C61  1  0.06312217  0.28045803  0.95923697  1  0.355052  0  0.087881  -0.008036  0  3.934041  0
C  C62  1  0.69706924  0.78057855  0.45913861  1  0.439642  0  0.086601  -0.008974  0  3.930478  0
C  C63  1  0.93687813  0.71954087  0.04076414  1  0.355179  0  0.087897  -0.008102  0  3.934157  0
C  C64  1  0.25249887  0.34294713  0.52047803  1  1.500412  0  0.222469  0.610669  0  4.223974  0
C  C65  1  0.11590300  0.15693253  0.97949566  1  1.54463  0  0.224224  0.611169  0  4.224575  0
C  C66  1  0.74750315  0.65704758  0.47952162  1  1.500819  0  0.222434  0.610688  0  4.224001  0
C  C67  1  0.88409729  0.84306639  0.02050436  1  1.544767  0  0.224267  0.611249  0  4.224481  0
C  C68  1  0.47376944  0.04960283  0.57972066  1  1.011936  0  0.246783  0.433841  0  3.913965  0
C  C69  1  0.10310960  0.45016596  0.92024653  1  1.020526  0  0.245408  0.432034  0  3.915081  0
C  C70  1  0.52623231  0.95039528  0.42027663  1  1.011948  0  0.246764  0.433911  0  3.913959  0
C  C71  1  0.89689231  0.54983461  0.07975620  1  1.020488  0  0.24554  0.432239  0  3.91505  0
C  C72  1  0.62640321  0.96229446  0.59839816  1  -0.022604  0  -0.223272  -0.468022  0  3.8931  0
C  C73  1  0.18725421  0.53738105  0.90154552  1  -0.072421  0  -0.223689  -0.467024  0  3.894042  0
C  C74  1  0.37360002  0.03770282  0.40159750  1  -0.022903  0  -0.223368  -0.468302  0  3.893119  0
C  C75  1  0.81274501  0.46261778  0.09846174  1  -0.071915  0  -0.223833  -0.467254  0  3.893907  0
C  C76  1  0.75945629  0.27626216  0.40945295  1  1.563424  0  0.215086  0.593533  0  4.244141  0
C  C77  1  0.44506258  0.22367610  0.09064590  1  1.55576  0  0.216535  0.596277  0  4.242481  0
C  C78  1  0.24054418  0.72374184  0.59054537  1  1.563452  0  0.214971  0.593498  0  4.24435  0
C  C79  1  0.55493735  0.77632366  0.90935398  1  1.555772  0  0.216575  0.596395  0  4.242409  0
C  C80  1  0.88315848  0.27715402  0.34017101  1  0.413964  0  0.07158  -0.02311  0  4.037735  0
C  C81  1  0.50041549  0.22281293  0.15992071  1  0.451023  0  0.070234  -0.024038  0  4.038084  0
C  C82  1  0.11683669  0.72285168  0.65982650  1  0.414098  0  0.071523  -0.023218  0  4.037934  0
C  C83  1  0.49958294  0.77718769  0.84007807  1  0.450942  0  0.070169  -0.024149  0  4.038109  0
C  C84  1  0.97506742  0.35047337  0.29764600  1  0.419684  0  0.070936  -0.020625  0  4.028668  0
C  C85  1  0.62318356  0.14951190  0.20243220  1  0.367015  0  0.071525  -0.019502  0  4.030264  0
C  C86  1  0.02492476  0.64953401  0.70235204  1  0.419858  0  0.071047  -0.020463  0  4.028758  0
C  C87  1  0.37681410  0.85048785  0.79756904  1  0.366985  0  0.071545  -0.019448  0  4.030388  0
C  C88  1  0.00305212  0.44830244  0.30958570  1  1.564974  0  0.21915  0.5961  0  4.197772  0
C  C89  1  0.76122762  0.05182137  0.19041955  1  1.553061  0  0.219446  0.595019  0  4.196655  0
C  C90  1  0.99694869  0.55170072  0.69041222  1  1.564259  0  0.219172  0.596047  0  4.197726  0
C  C91  1  0.23877162  0.94818009  0.80958004  1  1.553062  0  0.219466  0.594992  0  4.196757  0
C  C92  1  0.02416720  0.21891282  0.23787393  1  1.012828  0  0.213945  0.414914  0  3.960508  0
C  C93  1  0.48079711  0.28101077  0.26224173  1  0.996749  0  0.215041  0.416255  0  3.962812  0
C  C94  1  0.97583053  0.78108949  0.76212510  1  1.012706  0  0.213943  0.414906  0  3.960675  0
C  C95  1  0.51920124  0.71898729  0.73775981  1  0.995902  0  0.215012  0.416199  0  3.962892  0
C  C96  1  0.08853735  0.15006874  0.18008542  1  -0.020792  0  -0.235249  -0.461111  0  3.920724  0
C  C97  1  0.41845830  0.34996356  0.31994822  1  -0.030205  0  -0.235696  -0.462007  0  3.921189  0
C  C98  1  0.91146294  0.84993018  0.81991459  1  -0.020809  0  -0.235233  -0.461032  0  3.920737  0
C  C99  1  0.58153855  0.65003535  0.68005222  1  -0.030335  0  -0.235694  -0.462025  0  3.921031  0
N  N100  1  0.32881534  0.03424801  0.59155467  1  -1.206367  0  -0.343546  -0.367266  0  3.475843  0
N  N101  1  0.95453139  0.46561435  0.90849191  1  -1.214189  0  -0.341699  -0.364846  0  3.47375  0
N  N102  1  0.67118607  0.96575094  0.40844303  1  -1.20637  0  -0.343522  -0.367223  0  3.475771  0
N  N103  1  0.04546832  0.53438876  0.09150998  1  -1.214368  0  -0.34169  -0.364827  0  3.473795  0
N  N104  1  0.46120268  0.16065536  0.54944635  1  -1.259096  0  -0.360911  -0.267495  0  3.558772  0
N  N105  1  0.17131606  0.33912267  0.95056365  1  -1.254442  0  -0.362321  -0.269236  0  3.558478  0
N  N106  1  0.53879829  0.83934189  0.45055232  1  -1.259031  0  -0.36087  -0.267556  0  3.558797  0
N  N107  1  0.82868425  0.66087622  0.04943856  1  -1.254571  0  -0.362432  -0.269364  0  3.558507  0
N  N108  1  0.91711315  0.19518059  0.30172245  1  -1.223644  0  -0.354262  -0.351778  0  3.505213  0
N  N109  1  0.41381440  0.30476758  0.19838479  1  -1.229256  0  -0.35409  -0.352915  0  3.504167  0
N  N110  1  0.08288193  0.80482257  0.69827563  1  -1.223585  0  -0.354247  -0.351782  0  3.505255  0
N  N111  1  0.58618280  0.69523048  0.80161634  1  -1.228338  0  -0.354036  -0.352855  0  3.504144  0
N  N112  1  0.06145419  0.31279084  0.23323941  1  -1.24775  0  -0.353209  -0.389137  0  3.4729  0
N  N113  1  0.60745801  0.18718728  0.26684492  1  -1.207687  0  -0.354766  -0.390192  0  3.476472  0
N  N114  1  0.93853937  0.68721318  0.76675757  1  -1.247919  0  -0.353274  -0.389185  0  3.473135  0
N  N115  1  0.39253964  0.81281247  0.73315633  1  -1.207668  0  -0.354733  -0.390148  0  3.476459  0
O  O116  1  0.95389483  0.23058449  0.53811275  1  -1.218046  0  -0.450649  -0.711094  0  2.334275  0
O  O117  1  0.72212672  0.26955749  0.96240988  1  -1.209138  0  -0.450079  -0.711761  0  2.334919  0
O  O118  1  0.04610545  0.76941444  0.46188672  1  -1.218188  0  -0.450606  -0.711046  0  2.334511  0
O  O119  1  0.27787254  0.73044394  0.03759189  1  -1.209115  0  -0.450096  -0.711774  0  2.334852  0
O  O120  1  0.01559129  0.05072040  0.61031313  1  -1.138461  0  -0.298406  -0.496187  0  2.17045  0
O  O121  1  0.67646350  0.44921809  0.88981452  1  -1.138848  0  -0.300126  -0.498469  0  2.169639  0
O  O122  1  0.98441111  0.94928446  0.38968423  1  -1.138354  0  -0.298418  -0.496246  0  2.170008  0
O  O123  1  0.32353919  0.55078335  0.11018629  1  -1.13887  0  -0.30009  -0.498466  0  2.169621  0
O  O124  1  0.11290509  0.40147384  0.50287702  1  -1.202227  0  -0.425434  -0.729953  0  2.448738  0
O  O125  1  0.01732143  0.09845997  0.99681463  1  -1.205087  0  -0.426491  -0.730694  0  2.4504  0
O  O126  1  0.88709746  0.59852512  0.49711998  1  -1.202411  0  -0.425398  -0.729922  0  2.4487  0
O  O127  1  0.98267628  0.90154236  0.00318277  1  -1.205151  0  -0.42651  -0.730726  0  2.450286  0
O  O128  1  0.34935095  0.39460946  0.52135920  1  -1.192745  0  -0.354337  -0.635253  0  2.255796  0
O  O129  1  0.26535266  0.10522287  0.97867171  1  -1.188043  0  -0.354792  -0.635047  0  2.254933  0
O  O130  1  0.65065223  0.60538523  0.47864140  1  -1.192958  0  -0.354385  -0.635334  0  2.255827  0
O  O131  1  0.73465119  0.89477856  0.02133005  1  -1.188261  0  -0.354821  -0.635052  0  2.254952  0
O  O132  1  0.71008745  0.35966374  0.44106879  1  -1.215583  0  -0.440402  -0.719302  0  2.348715  0
O  O133  1  0.51064643  0.14014037  0.05913920  1  -1.210899  0  -0.439948  -0.72012  0  2.348644  0
O  O134  1  0.28991222  0.64033941  0.55893037  1  -1.215539  0  -0.440343  -0.719267  0  2.348656  0
O  O135  1  0.48935464  0.85985941  0.94085944  1  -1.210895  0  -0.439972  -0.720179  0  2.348681  0
O  O136  1  0.70071012  0.19356739  0.43325971  1  -1.174271  0  -0.290879  -0.519477  0  2.231779  0
O  O137  1  0.32750597  0.30643627  0.06678119  1  -1.174422  0  -0.292032  -0.521637  0  2.228774  0
O  O138  1  0.29929177  0.80643321  0.56674138  1  -1.174371  0  -0.290807  -0.51941  0  2.231968  0
O  O139  1  0.67249476  0.69356435  0.93321786  1  -1.174419  0  -0.292019  -0.521651  0  2.228726  0
O  O140  1  0.94689709  0.47701519  0.37465241  1  -1.207832  0  -0.404796  -0.684254  0  2.342615  0
O  O141  1  0.79907331  0.02329907  0.12526083  1  -1.208263  0  -0.405137  -0.684311  0  2.343024  0
O  O142  1  0.05310406  0.52298714  0.62534456  1  -1.207308  0  -0.404819  -0.684269  0  2.342682  0
O  O143  1  0.20092557  0.97670324  0.87473806  1  -1.208271  0  -0.405141  -0.684284  0  2.343057  0
O  O144  1  0.08921498  0.50005684  0.25529887  1  -1.169142  0  -0.309417  -0.52433  0  2.231182  0
O  O145  1  0.84484747  0.99998785  0.24470582  1  -1.158291  0  -0.309128  -0.523187  0  2.230708  0
O  O146  1  0.91079216  0.49994211  0.74469867  1  -1.169011  0  -0.30945  -0.524332  0  2.231093  0
O  O147  1  0.15515486  0.00001445  0.75529374  1  -1.158317  0  -0.309136  -0.523193  0  2.230734  0
O  O148  1  0.58473887  0.40944699  0.58486094  1  -1.257867  0  -0.623083  -0.833691  0  1.988339  0
O  O149  1  0.57891969  0.09066760  0.91512055  1  -1.243676  0  -0.623419  -0.833738  0  1.989339  0
O  O150  1  0.41526258  0.59055191  0.41514058  1  -1.257869  0  -0.623102  -0.833824  0  1.988213  0
O  O151  1  0.42107759  0.90933302  0.08487837  1  -1.243719  0  -0.623393  -0.833613  0  1.989488  0
O  O152  1  0.86610234  0.40134443  0.63015140  1  -1.267188  0  -0.650412  -0.868412  0  2.088579  0
O  O153  1  0.89733974  0.09877102  0.86984552  1  -1.250341  0  -0.651081  -0.870214  0  2.085222  0
O  O154  1  0.13389952  0.59865620  0.36984696  1  -1.267131  0  -0.650507  -0.868458  0  2.088563  0
O  O155  1  0.10265799  0.90123128  0.13015351  1  -1.250309  0  -0.651084  -0.870305  0  2.085083  0
