# generated using pymatgen
data_NdH6C5O9
_symmetry_space_group_name_H-M   'P 1'
_cell_length_a   6.13566609
_cell_length_b   7.32645495
_cell_length_c   22.58602897
_cell_angle_alpha   90.00013214
_cell_angle_beta   90.15380432
_cell_angle_gamma   89.99975498
_symmetry_Int_Tables_number   1
_chemical_formula_structural   NdH6C5O9
_chemical_formula_sum   'Nd4 H24 C20 O36'
_cell_volume   1015.29890265
_cell_formula_units_Z   4
loop_
 _symmetry_equiv_pos_site_id
 _symmetry_equiv_pos_as_xyz
  1  'x, y, z'
loop_
 _atom_site_type_symbol
 _atom_site_label
 _atom_site_symmetry_multiplicity
 _atom_site_fract_x
 _atom_site_fract_y
 _atom_site_fract_z
 _atom_site_occupancy
 _atom_site_pbe_bader_charge
 _atom_site_pbe_bader_spin_density
 _atom_site_pbe_cm5_charge
 _atom_site_pbe_ddec_charge
 _atom_site_pbe_ddec_spin_density
 _atom_site_pbe_ddec_sum_bond_order
 _atom_site_pbe_magmom
Nd  Nd0  1  0.43849007  0.51167675  0.85954219  1  2.250578  0  1.469848  2.061412  0  2.140265  0
Nd  Nd1  1  0.56150083  0.01168496  0.64045910  1  2.250551  0  1.46982  2.061369  0  2.140461  0
Nd  Nd2  1  0.56151370  0.48832843  0.14045706  1  2.25044  0  1.469803  2.061469  0  2.140398  0
Nd  Nd3  1  0.43849811  0.98832841  0.35953880  1  2.250503  0  1.469802  2.061283  0  2.140482  0
H  H4  1  0.30902948  0.75541114  0.75584165  1  0.647221  0  0.30213  0.337895  0  1.019332  0
H  H5  1  0.48600372  0.57524682  0.62459948  1  0.641006  0  0.348162  0.397289  0  0.858226  0
H  H6  1  0.99676165  0.64121866  0.87064218  1  0.65649  0  0.302745  0.395993  0  0.943823  0
H  H7  1  0.07510777  0.71743065  0.93125620  1  0.642254  0  0.335127  0.42329  0  0.857499  0
H  H8  1  0.03979578  0.45812037  0.71762497  1  0.118545  0  0.132419  0.114879  0  0.941119  0
H  H9  1  0.11329119  0.54414786  0.62163355  1  0.118289  0  0.128191  0.100177  0  0.951035  0
H  H10  1  0.69097490  0.25541416  0.74415900  1  0.647173  0  0.302166  0.3379  0  1.019338  0
H  H11  1  0.51399836  0.07524869  0.87540014  1  0.641034  0  0.348191  0.397331  0  0.858136  0
H  H12  1  0.00323681  0.14120969  0.62935792  1  0.656464  0  0.302727  0.395948  0  0.943873  0
H  H13  1  0.92489689  0.21741656  0.56874265  1  0.642124  0  0.33509  0.423267  0  0.857545  0
H  H14  1  0.96021080  0.95812474  0.78237673  1  0.118217  0  0.132401  0.114854  0  0.941094  0
H  H15  1  0.88671098  0.04415386  0.87836738  1  0.118395  0  0.128213  0.100204  0  0.950997  0
H  H16  1  0.69097425  0.24458722  0.24415848  1  0.647184  0  0.302159  0.337881  0  1.019343  0
H  H17  1  0.51399840  0.42475291  0.37540021  1  0.641035  0  0.348182  0.397322  0  0.858128  0
H  H18  1  0.00324866  0.35878653  0.12935666  1  0.656464  0  0.302692  0.395916  0  0.943918  0
H  H19  1  0.92489928  0.28257999  0.06874262  1  0.642107  0  0.335079  0.423235  0  0.857562  0
H  H20  1  0.96020620  0.54187390  0.28237782  1  0.118241  0  0.13241  0.114862  0  0.941105  0
H  H21  1  0.88670919  0.45584095  0.37836835  1  0.11841  0  0.12821  0.100198  0  0.951031  0
H  H22  1  0.30903206  0.74459103  0.25584160  1  0.64719  0  0.302165  0.338057  0  1.019129  0
H  H23  1  0.48600865  0.92474968  0.12459957  1  0.641061  0  0.348133  0.397335  0  0.858125  0
H  H24  1  0.99675546  0.85877912  0.37064306  1  0.656432  0  0.302717  0.396003  0  0.943832  0
H  H25  1  0.07510849  0.78256951  0.43125705  1  0.642233  0  0.335138  0.423291  0  0.857462  0
H  H26  1  0.03979782  0.04187771  0.21762343  1  0.118234  0  0.132424  0.114878  0  0.941097  0
H  H27  1  0.11329603  0.95584587  0.12163233  1  0.118271  0  0.128207  0.100188  0  0.951026  0
C  C28  1  0.38188303  0.40285017  0.71363070  1  1.609951  0  0.239132  0.615964  0  4.132126  0
C  C29  1  0.19168426  0.53758280  0.71455058  1  0.462989  0  0.006886  0.033667  0  3.86435  0
C  C30  1  0.18992059  0.63689938  0.65383849  1  0.412591  0  0.010582  0.045902  0  3.835061  0
C  C31  1  0.05749238  0.81262035  0.65633089  1  1.591357  0  0.237188  0.62955  0  4.129851  0
C  C32  1  0.58954392  0.57571067  0.99799468  1  1.599156  0  0.207391  0.49338  0  4.267361  0
C  C33  1  0.61812214  0.90283806  0.78637184  1  1.609972  0  0.239183  0.616248  0  4.13202  0
C  C34  1  0.80831792  0.03758705  0.78545078  1  0.463348  0  0.006852  0.033708  0  3.86416  0
C  C35  1  0.81007464  0.13690269  0.84616159  1  0.412126  0  0.010538  0.045686  0  3.835365  0
C  C36  1  0.94250841  0.31262727  0.84367068  1  1.590788  0  0.237169  0.629562  0  4.129871  0
C  C37  1  0.41043225  0.07570615  0.50200128  1  1.598455  0  0.207276  0.493037  0  4.267877  0
C  C38  1  0.61812217  0.59716048  0.28637254  1  1.609873  0  0.239246  0.616316  0  4.132038  0
C  C39  1  0.80831612  0.46241147  0.28545131  1  0.463334  0  0.006846  0.033698  0  3.864288  0
C  C40  1  0.81007336  0.36309353  0.34616160  1  0.412122  0  0.010559  0.045609  0  3.835483  0
C  C41  1  0.94250152  0.18737118  0.34367009  1  1.591638  0  0.237344  0.629941  0  4.12938  0
C  C42  1  0.41045856  0.42429861  0.00199748  1  1.565025  0  0.20708  0.492761  0  4.268187  0
C  C43  1  0.38188148  0.09715074  0.21363051  1  1.609867  0  0.239218  0.616201  0  4.132058  0
C  C44  1  0.19168253  0.96241267  0.21454979  1  0.463429  0  0.006849  0.033721  0  3.864433  0
C  C45  1  0.18992583  0.86309430  0.15383854  1  0.412313  0  0.010536  0.045629  0  3.835251  0
C  C46  1  0.05749852  0.68737655  0.15633080  1  1.592194  0  0.237258  0.629883  0  4.129539  0
C  C47  1  0.58952117  0.92429903  0.49799421  1  1.564989  0  0.20724  0.493027  0  4.267517  0
O  O48  1  0.51177586  0.40256892  0.75772890  1  -1.200679  0  -0.363483  -0.615631  0  2.368803  0
O  O49  1  0.40482485  0.30459371  0.66811944  1  -1.209502  0  -0.384395  -0.631006  0  2.285301  0
O  O50  1  0.20307738  0.65302214  0.76509133  1  -1.173053  0  -0.410747  -0.544113  0  2.359071  0
O  O51  1  0.40440848  0.68614647  0.63381362  1  -1.151429  0  -0.426446  -0.562914  0  2.385266  0
O  O52  1  0.16131463  0.96269136  0.65149029  1  -1.181118  0  -0.359475  -0.621706  0  2.313656  0
O  O53  1  0.85455703  0.79704934  0.66296688  1  -1.170153  0  -0.384183  -0.623413  0  2.259085  0
O  O54  1  0.62483271  0.64271964  0.94724260  1  -1.179015  0  -0.381084  -0.601869  0  2.260586  0
O  O55  1  0.68546245  0.61896677  0.04569965  1  -1.186975  0  -0.388959  -0.61627  0  2.268942  0
O  O56  1  0.11872203  0.71148075  0.88984525  1  -1.281455  0  -0.620987  -0.832373  0  1.995501  0
O  O57  1  0.48822141  0.90256652  0.74226874  1  -1.200699  0  -0.36354  -0.6158  0  2.368353  0
O  O58  1  0.59518773  0.80459566  0.83187508  1  -1.209527  0  -0.384302  -0.631039  0  2.285858  0
O  O59  1  0.79692591  0.15302335  0.73490879  1  -1.173005  0  -0.410758  -0.544137  0  2.359057  0
O  O60  1  0.59559299  0.18614934  0.86618697  1  -1.151492  0  -0.426418  -0.562833  0  2.385305  0
O  O61  1  0.83868842  0.46269596  0.84851627  1  -1.180884  0  -0.359536  -0.621824  0  2.31363  0
O  O62  1  0.14544551  0.29705498  0.83703379  1  -1.169512  0  -0.38412  -0.623318  0  2.259123  0
O  O63  1  0.37515419  0.14271834  0.55276055  1  -1.178499  0  -0.380993  -0.601761  0  2.26034  0
O  O64  1  0.31452304  0.11896582  0.45430600  1  -1.186863  0  -0.388905  -0.616091  0  2.269569  0
O  O65  1  0.88127616  0.21146712  0.61015313  1  -1.281294  0  -0.620966  -0.832313  0  1.995543  0
O  O66  1  0.48822313  0.59743217  0.24226812  1  -1.200557  0  -0.363625  -0.616013  0  2.368307  0
O  O67  1  0.59517913  0.69539782  0.33187538  1  -1.209522  0  -0.384299  -0.630958  0  2.285894  0
O  O68  1  0.79692146  0.34697895  0.23490878  1  -1.172983  0  -0.410741  -0.544097  0  2.359123  0
O  O69  1  0.59559195  0.31385052  0.36618739  1  -1.151555  0  -0.426438  -0.562811  0  2.385329  0
O  O70  1  0.83867908  0.03730290  0.34851467  1  -1.181315  0  -0.359516  -0.621835  0  2.313384  0
O  O71  1  0.14543375  0.20294084  0.33703143  1  -1.169879  0  -0.384334  -0.623637  0  2.259079  0
O  O72  1  0.37517417  0.35728827  0.05275977  1  -1.17873  0  -0.381029  -0.601765  0  2.260205  0
O  O73  1  0.31455083  0.38104388  0.95430540  1  -1.187038  0  -0.38879  -0.615939  0  2.270071  0
O  O74  1  0.88128828  0.28852989  0.11015359  1  -1.281296  0  -0.620931  -0.832255  0  1.995603  0
O  O75  1  0.51177754  0.09743866  0.25772916  1  -1.200737  0  -0.363491  -0.615645  0  2.368673  0
O  O76  1  0.40481947  0.19540133  0.16812064  1  -1.209387  0  -0.384379  -0.631136  0  2.285355  0
O  O77  1  0.20308281  0.84697910  0.26508915  1  -1.173071  0  -0.410772  -0.544218  0  2.35906  0
O  O78  1  0.40441564  0.81384629  0.13381275  1  -1.151609  0  -0.426396  -0.562864  0  2.385193  0
O  O79  1  0.16132168  0.53730786  0.15148700  1  -1.181201  0  -0.359499  -0.621811  0  2.313515  0
O  O80  1  0.85456308  0.70294747  0.16296681  1  -1.170562  0  -0.384257  -0.623601  0  2.259107  0
O  O81  1  0.62481045  0.85728411  0.44723898  1  -1.178932  0  -0.38111  -0.601761  0  2.260386  0
O  O82  1  0.68544632  0.88104482  0.54569709  1  -1.186718  0  -0.388861  -0.616097  0  2.269175  0
O  O83  1  0.11871948  0.78852169  0.38984564  1  -1.281416  0  -0.620959  -0.832365  0  1.995398  0
