# generated using pymatgen
data_CoH8C9NO5
_symmetry_space_group_name_H-M   'P 1'
_cell_length_a   6.68734888
_cell_length_b   7.57274589
_cell_length_c   22.45610639
_cell_angle_alpha   89.99684166
_cell_angle_beta   89.99960540
_cell_angle_gamma   90.00008554
_symmetry_Int_Tables_number   1
_chemical_formula_structural   CoH8C9NO5
_chemical_formula_sum   'Co4 H32 C36 N4 O20'
_cell_volume   1137.21301519
_cell_formula_units_Z   4
loop_
 _symmetry_equiv_pos_site_id
 _symmetry_equiv_pos_as_xyz
  1  'x, y, z'
loop_
 _atom_site_type_symbol
 _atom_site_label
 _atom_site_symmetry_multiplicity
 _atom_site_fract_x
 _atom_site_fract_y
 _atom_site_fract_z
 _atom_site_occupancy
 _atom_site_hle17_ddec_charge
 _atom_site_hle17_ddec_spin_density
 _atom_site_hle17_ddec_sum_bond_order
 _atom_site_hle17_magmom
 _atom_site_hse06_ddec_charge
 _atom_site_hse06_ddec_spin_density
 _atom_site_hse06_ddec_sum_bond_order
 _atom_site_hse06_magmom
 _atom_site_pbe_cm5_charge
 _atom_site_pbe_ddec_charge
 _atom_site_pbe_ddec_spin_density
 _atom_site_pbe_ddec_sum_bond_order
 _atom_site_pbe_magmom
Co  Co0  1  0.54869582  0.74688308  0.70952418  1  1.024588  2.863032  1.926207  2.601  1.065628  2.884105  2.254139  2.731  0.659786  0.933138  2.827329  2.378379  2.602
Co  Co1  1  0.45128081  0.74687615  0.29047167  1  1.02439  2.862928  1.925921  2.601  1.065411  2.88413  2.254002  2.731  0.659701  0.932833  2.827135  2.378316  2.602
Co  Co2  1  0.95128064  0.25311765  0.20952406  1  1.024744  2.863145  1.925686  2.601  1.065618  2.884124  2.253802  2.731  0.659787  0.933129  2.827407  2.378036  2.602
Co  Co3  1  0.04870860  0.25311868  0.79047434  1  1.024617  2.863076  1.925952  2.601  1.065547  2.884122  2.254051  2.731  0.659757  0.933084  2.827278  2.378286  2.602
H  H4  1  0.62287256  0.62107539  0.88813505  1  0.111508  -0.000232  0.935088  0.0  0.12705  5.6e-05  0.994759  0.0  0.103584  0.125498  8.2e-05  0.99414  0.0
H  H5  1  0.37718611  0.62106177  0.11187829  1  0.111553  -0.000231  0.93494  0.0  0.127048  5.7e-05  0.994653  0.0  0.103565  0.125515  8.2e-05  0.993984  0.0
H  H6  1  0.87714770  0.37892402  0.38811403  1  0.11144  -0.000231  0.934906  0.0  0.126917  5.7e-05  0.994639  0.0  0.103532  0.125375  8.4e-05  0.994014  0.0
H  H7  1  0.12283428  0.37893835  0.61187623  1  0.111543  -0.000233  0.935026  0.0  0.127066  5.7e-05  0.994698  0.0  0.103606  0.125517  8.3e-05  0.994069  0.0
H  H8  1  0.83544279  0.75825222  0.88126637  1  0.121285  -0.000644  0.910143  -0.001  0.138944  -2.9e-05  0.963431  0.0  0.108946  0.135726  -0.000107  0.964788  0.0
H  H9  1  0.16458770  0.75821608  0.11873951  1  0.121537  -0.000643  0.910399  -0.001  0.139174  -2.8e-05  0.963618  0.0  0.109049  0.135938  -0.000107  0.96496  0.0
H  H10  1  0.66455519  0.24176283  0.38125192  1  0.121454  -0.000645  0.9102  -0.001  0.139051  -2.9e-05  0.963465  0.0  0.108993  0.135842  -0.000105  0.96482  0.0
H  H11  1  0.33543104  0.24178028  0.61874312  1  0.121497  -0.000646  0.910245  -0.001  0.139108  -3e-05  0.963509  0.0  0.109054  0.135893  -0.000106  0.96485  0.0
H  H12  1  0.51250788  0.92270693  0.87259804  1  0.052492  0.000578  0.923553  0.001  0.061065  0.000309  0.985358  0.0  0.105452  0.063232  0.000718  0.981851  0.001
H  H13  1  0.48749298  0.92271866  0.12739720  1  0.052415  0.000579  0.923458  0.001  0.061018  0.000309  0.985279  0.0  0.10538  0.06317  0.000718  0.981778  0.001
H  H14  1  0.98747983  0.07728311  0.37259935  1  0.052429  0.000579  0.92356  0.001  0.060948  0.00031  0.985459  0.0  0.105395  0.063133  0.00072  0.981937  0.001
H  H15  1  0.01247920  0.07730402  0.62741168  1  0.052311  0.000577  0.923645  0.001  0.060903  0.000309  0.985463  0.0  0.105433  0.063088  0.000719  0.981937  0.001
H  H16  1  0.31523928  0.86969188  0.78907269  1  0.380162  -0.00036  0.910433  -0.001  0.366918  -0.000122  0.969051  0.0  0.296437  0.347395  0.000282  0.989632  0.0
H  H17  1  0.68475551  0.86970348  0.21093735  1  0.380118  -0.000361  0.910453  -0.001  0.366891  -0.000122  0.969057  0.0  0.296418  0.347361  0.000282  0.989641  0.0
H  H18  1  0.18474867  0.13028206  0.28905761  1  0.380391  -0.000362  0.910051  -0.001  0.367108  -0.000122  0.96877  0.0  0.29648  0.347568  0.000281  0.989386  0.0
H  H19  1  0.81522541  0.13029569  0.71093552  1  0.380557  -0.00036  0.909927  -0.001  0.367317  -0.000121  0.968524  0.0  0.296573  0.347788  0.000281  0.989123  0.0
H  H20  1  0.96402966  0.65869506  0.67295234  1  0.105225  0.000364  0.934019  0.002  0.117128  0.000126  0.990203  0.001  0.126483  0.109241  0.000342  0.998042  0.001
H  H21  1  0.03597972  0.65867901  0.32704828  1  0.105212  0.000365  0.93403  0.002  0.117109  0.000127  0.990191  0.001  0.126488  0.109237  0.000343  0.998033  0.001
H  H22  1  0.53599250  0.34131293  0.17295589  1  0.105269  0.000366  0.933819  0.002  0.117127  0.000127  0.990067  0.001  0.126473  0.109233  0.000343  0.997906  0.001
H  H23  1  0.46401036  0.34132968  0.82705110  1  0.10535  0.000365  0.933943  0.002  0.117128  0.000127  0.99022  0.001  0.126467  0.109256  0.000342  0.998055  0.001
H  H24  1  0.17861931  0.67690533  0.58263368  1  0.119646  0.000194  0.949934  0.0  0.132019  0.000177  1.010921  0.0  0.111498  0.124506  0.000452  1.014983  0.0
H  H25  1  0.82139758  0.67689806  0.41737061  1  0.119715  0.000195  0.949816  0.0  0.132038  0.000177  1.010864  0.0  0.111527  0.124534  0.000452  1.01492  0.0
H  H26  1  0.32137483  0.32309293  0.08263564  1  0.119643  0.000195  0.949693  0.0  0.131998  0.000177  1.010725  0.0  0.111479  0.124481  0.00045  1.014787  0.0
H  H27  1  0.67859061  0.32310980  0.91737570  1  0.119764  0.000194  0.949732  0.0  0.13207  0.000177  1.010823  0.0  0.111554  0.124561  0.000451  1.014883  0.0
H  H28  1  0.67863334  0.91845556  0.49163783  1  0.101491  0.000218  0.967323  0.0  0.116641  0.000215  1.025192  0.0  0.105644  0.111185  0.000406  1.027529  0.0
H  H29  1  0.32138097  0.91847510  0.50835081  1  0.101493  0.000217  0.967456  0.0  0.116635  0.000215  1.025325  0.0  0.105686  0.111232  0.000405  1.027588  0.0
H  H30  1  0.82137559  0.08153626  0.99163868  1  0.10156  0.000218  0.967291  0.0  0.11671  0.000215  1.025156  0.0  0.105676  0.111244  0.000404  1.0275  0.0
H  H31  1  0.17861784  0.08150752  0.00835936  1  0.101521  0.000218  0.967848  0.0  0.116785  0.000215  1.025506  0.0  0.105681  0.111348  0.000404  1.027811  0.0
H  H32  1  0.48916402  0.89927221  0.58853613  1  0.08326  0.000461  0.971982  0.002  0.092608  0.000188  1.037152  0.001  0.114785  0.085204  0.000533  1.046195  0.001
H  H33  1  0.51083680  0.89926154  0.41144753  1  0.083297  0.000461  0.972029  0.002  0.092676  0.000188  1.037163  0.001  0.114801  0.085294  0.000533  1.046189  0.001
H  H34  1  0.01085690  0.10074886  0.08854067  1  0.083251  0.000461  0.972033  0.002  0.092641  0.000187  1.037186  0.001  0.114744  0.085234  0.000532  1.046214  0.001
H  H35  1  0.98916050  0.10070106  0.91145835  1  0.08325  0.000461  0.97195  0.002  0.092727  0.000187  1.037023  0.001  0.114799  0.085326  0.000532  1.046063  0.001
C  C36  1  0.79248025  0.57961483  0.80878713  1  0.729246  -0.012144  3.780856  -0.01  0.734444  0.001086  4.072784  0.002  0.226225  0.668015  -0.000147  4.082455  0.0
C  C37  1  0.20756190  0.57959997  0.19122521  1  0.729757  -0.012134  3.780311  -0.01  0.734648  0.001084  4.072607  0.002  0.226301  0.668212  -0.000138  4.082284  0.0
C  C38  1  0.70753882  0.42039484  0.30877371  1  0.72964  -0.012155  3.780259  -0.01  0.734406  0.001085  4.07272  0.002  0.226199  0.667986  -0.000156  4.082397  0.0
C  C39  1  0.29246566  0.42040045  0.69122201  1  0.729548  -0.012162  3.780105  -0.01  0.734568  0.001079  4.072267  0.002  0.226282  0.668124  -0.000154  4.081954  0.0
C  C40  1  0.70808314  0.70260062  0.85659489  1  -0.306089  0.003941  3.66065  0.006  -0.357958  0.001328  3.9143  0.002  -0.161426  -0.347947  0.003526  3.902129  0.005
C  C41  1  0.29194426  0.70258308  0.14341292  1  -0.306651  0.00394  3.66108  0.006  -0.358303  0.001328  3.914781  0.002  -0.161527  -0.348249  0.003525  3.902507  0.005
C  C42  1  0.79190793  0.29740656  0.35657914  1  -0.30634  0.003938  3.660846  0.006  -0.357914  0.001328  3.914492  0.002  -0.161424  -0.347938  0.003526  3.902374  0.005
C  C43  1  0.20807989  0.29743171  0.64341487  1  -0.306455  0.00394  3.660831  0.006  -0.358144  0.00133  3.914455  0.002  -0.161584  -0.348135  0.003525  3.902301  0.005
C  C44  1  0.57470929  0.85153118  0.83396372  1  0.127341  0.002461  3.663917  0.004  0.107779  0.001447  3.929447  0.002  -0.008738  0.103234  0.003769  3.912125  0.005
C  C45  1  0.42528397  0.85152069  0.16603285  1  0.127649  0.002462  3.663466  0.004  0.107975  0.001448  3.929156  0.002  -0.008647  0.103417  0.00377  3.911813  0.005
C  C46  1  0.92528678  0.14847440  0.33396071  1  0.127404  0.002464  3.663588  0.004  0.107791  0.001447  3.92915  0.002  -0.008691  0.103232  0.003773  3.911828  0.005
C  C47  1  0.07471724  0.14847985  0.66604365  1  0.127544  0.002463  3.663472  0.004  0.107852  0.001448  3.929179  0.002  -0.008676  0.103292  0.00377  3.911862  0.005
C  C48  1  0.69959488  0.98543142  0.79846286  1  0.628134  -0.006483  3.826304  -0.005  0.615816  0.000241  4.130459  0.001  0.214076  0.555689  0.001207  4.138235  0.001
C  C49  1  0.30039114  0.98542688  0.20153566  1  0.627999  -0.006477  3.826146  -0.005  0.615623  0.000232  4.130542  0.001  0.214202  0.555503  0.001211  4.138293  0.001
C  C50  1  0.80038256  0.01454428  0.29846128  1  0.627978  -0.006472  3.826949  -0.005  0.615682  0.000234  4.131127  0.001  0.213976  0.55558  0.001216  4.138878  0.001
C  C51  1  0.19960478  0.01456657  0.70154202  1  0.628303  -0.006481  3.82613  -0.005  0.615948  0.00024  4.130392  0.001  0.214012  0.555826  0.00121  4.13817  0.001
C  C52  1  0.90760872  0.71580844  0.63169493  1  0.140188  -0.024485  3.656007  -0.016  0.122826  -0.003674  3.924355  -0.002  0.053294  0.101754  -0.011408  3.912445  -0.006
C  C53  1  0.09240525  0.71580028  0.36830417  1  0.140304  -0.02446  3.65624  -0.016  0.122988  -0.00367  3.924469  -0.002  0.053425  0.101916  -0.011388  3.912558  -0.006
C  C54  1  0.59240391  0.28419438  0.13169275  1  0.14017  -0.024455  3.656053  -0.016  0.122831  -0.003673  3.924351  -0.002  0.053411  0.101775  -0.011378  3.912379  -0.006
C  C55  1  0.40759137  0.28420170  0.86830818  1  0.140257  -0.024464  3.656153  -0.016  0.123024  -0.003672  3.924326  -0.002  0.053467  0.101956  -0.011381  3.912402  -0.006
C  C56  1  0.02523422  0.72526037  0.58069182  1  -0.157479  0.007777  3.697586  0.012  -0.183685  0.001675  3.962737  0.003  -0.081403  -0.174404  0.001192  3.940397  0.003
C  C57  1  0.97478275  0.72525959  0.41930533  1  -0.157751  0.007769  3.697608  0.012  -0.18395  0.001673  3.962749  0.003  -0.081518  -0.174648  0.001189  3.940443  0.003
C  C58  1  0.47477640  0.27473425  0.08069214  1  -0.157581  0.007767  3.697624  0.012  -0.183772  0.001673  3.962819  0.003  -0.081446  -0.17448  0.001191  3.940461  0.003
C  C59  1  0.52520689  0.27474531  0.91930942  1  -0.157777  0.007777  3.697613  0.012  -0.184036  0.001673  3.962691  0.003  -0.081565  -0.17474  0.001192  3.940356  0.003
C  C60  1  0.94302908  0.79368957  0.52808538  1  0.089207  -0.024933  3.781596  -0.015  0.108906  -0.003988  4.027864  -0.002  0.00585  0.097394  -0.017689  3.998942  -0.01
C  C61  1  0.05698353  0.79370149  0.47191094  1  0.089217  -0.024909  3.781742  -0.015  0.109027  -0.003982  4.027893  -0.002  0.005912  0.097424  -0.017667  3.999071  -0.01
C  C62  1  0.55698142  0.20630501  0.02809141  1  0.089361  -0.024883  3.781974  -0.015  0.10895  -0.003982  4.028278  -0.002  0.00583  0.097419  -0.017635  3.999349  -0.01
C  C63  1  0.44300924  0.20629157  0.97191855  1  0.089102  -0.024919  3.78177  -0.015  0.109071  -0.003984  4.027753  -0.002  0.005907  0.097519  -0.017654  3.998855  -0.01
C  C64  1  0.74651177  0.85834081  0.53075196  1  -0.174945  0.007523  3.741843  0.011  -0.199255  0.001569  4.001461  0.002  -0.089503  -0.186954  0.000725  3.971812  0.003
C  C65  1  0.25349646  0.85836001  0.46924003  1  -0.174913  0.007516  3.742015  0.011  -0.199209  0.001568  4.001626  0.002  -0.089581  -0.18692  0.000722  3.971975  0.003
C  C66  1  0.75348372  0.14164674  0.03075523  1  -0.175017  0.007513  3.741855  0.011  -0.199303  0.001569  4.001504  0.002  -0.089522  -0.18699  0.000721  3.971844  0.003
C  C67  1  0.24649786  0.14162159  0.96925060  1  -0.175071  0.007523  3.742155  0.011  -0.199515  0.001569  4.001722  0.002  -0.089645  -0.187209  0.000724  3.972064  0.003
C  C68  1  0.64068297  0.84819480  0.58374933  1  0.124517  -0.02312  3.710075  -0.015  0.107177  -0.004655  3.976969  -0.003  0.043359  0.089661  -0.009654  3.958527  -0.005
C  C69  1  0.35931926  0.84820163  0.41624151  1  0.124394  -0.023098  3.710619  -0.015  0.106959  -0.004648  3.977591  -0.003  0.043361  0.089435  -0.009639  3.959163  -0.005
C  C70  1  0.85931878  0.15180922  0.08375085  1  0.124498  -0.023089  3.710051  -0.015  0.107062  -0.004648  3.976971  -0.003  0.043407  0.089559  -0.009626  3.958481  -0.005
C  C71  1  0.14067178  0.15177803  0.91624988  1  0.124639  -0.023111  3.709659  -0.015  0.107061  -0.004651  3.97668  -0.003  0.043436  0.089555  -0.009638  3.958227  -0.005
N  N72  1  0.71763959  0.77520538  0.63350121  1  -0.296444  0.037334  3.290714  0.07  -0.269793  0.021306  3.579877  0.036  -0.327562  -0.239393  0.027653  3.571831  0.046
N  N73  1  0.28235952  0.77519380  0.36649990  1  -0.296273  0.037325  3.291491  0.07  -0.269554  0.021304  3.580595  0.036  -0.327521  -0.239128  0.027651  3.572531  0.046
N  N74  1  0.78236402  0.22480903  0.13349396  1  -0.296376  0.037336  3.291139  0.07  -0.269655  0.021304  3.580251  0.036  -0.327568  -0.239204  0.027668  3.572099  0.046
N  N75  1  0.21762966  0.22479395  0.86650408  1  -0.296511  0.037343  3.290899  0.07  -0.269714  0.021306  3.57994  0.036  -0.327583  -0.23929  0.027667  3.571847  0.046
O  O76  1  0.76079719  0.60634538  0.75384640  1  -0.605941  0.045212  2.069164  0.081  -0.620854  0.023625  2.331265  0.04  -0.301426  -0.549902  0.044797  2.347412  0.074
O  O77  1  0.23918967  0.60631634  0.24616321  1  -0.606244  0.0452  2.069328  0.08  -0.621077  0.023627  2.331604  0.04  -0.301624  -0.550146  0.044779  2.347804  0.074
O  O78  1  0.73920519  0.39369435  0.25382584  1  -0.606288  0.045235  2.068849  0.081  -0.621043  0.023632  2.331164  0.04  -0.301546  -0.550089  0.044802  2.347306  0.074
O  O79  1  0.26079626  0.39366721  0.74616548  1  -0.606094  0.045225  2.068975  0.081  -0.620982  0.023633  2.331252  0.04  -0.301581  -0.55006  0.0448  2.347451  0.074
O  O80  1  0.89521120  0.45176791  0.82945565  1  -0.626257  0.04408  2.056915  0.077  -0.640358  0.023888  2.317002  0.038  -0.319689  -0.570471  0.041164  2.336223  0.065
O  O81  1  0.10485465  0.45176024  0.17054572  1  -0.626341  0.044084  2.056524  0.077  -0.640335  0.023888  2.316788  0.038  -0.31965  -0.570451  0.041171  2.336007  0.065
O  O82  1  0.60481937  0.54823048  0.32944317  1  -0.626235  0.044074  2.056781  0.077  -0.6402  0.02389  2.317087  0.038  -0.319646  -0.570301  0.041163  2.336314  0.065
O  O83  1  0.39520029  0.54826467  0.67055639  1  -0.626293  0.0441  2.056744  0.077  -0.64037  0.023902  2.316961  0.038  -0.31965  -0.570464  0.041183  2.336189  0.065
O  O84  1  0.41760701  0.77564069  0.79931299  1  -0.552358  0.022275  2.137236  0.041  -0.533891  0.015716  2.358591  0.028  -0.386762  -0.495597  0.024931  2.382031  0.041
O  O85  1  0.58239061  0.77564193  0.20069079  1  -0.552419  0.022288  2.137093  0.041  -0.533912  0.015723  2.358481  0.028  -0.386736  -0.495598  0.024942  2.381932  0.041
O  O86  1  0.08238370  0.22435007  0.29930215  1  -0.552573  0.022285  2.137112  0.041  -0.534033  0.015719  2.358464  0.028  -0.386786  -0.495716  0.024946  2.381908  0.041
O  O87  1  0.91760400  0.22435759  0.70069901  1  -0.552742  0.02229  2.136822  0.041  -0.534229  0.015723  2.358224  0.028  -0.38689  -0.495924  0.024947  2.381701  0.041
O  O88  1  0.67374223  0.98784332  0.74191432  1  -0.612283  0.027109  2.121844  0.049  -0.600816  0.017184  2.359211  0.029  -0.299823  -0.540635  0.028015  2.374593  0.046
O  O89  1  0.32625127  0.98784150  0.25807569  1  -0.612107  0.027101  2.122041  0.049  -0.600588  0.017186  2.359458  0.029  -0.299816  -0.540404  0.02801  2.374838  0.046
O  O90  1  0.82624846  0.01216138  0.24191541  1  -0.612203  0.02712  2.121999  0.049  -0.600709  0.017192  2.359353  0.029  -0.299852  -0.540531  0.028025  2.374716  0.046
O  O91  1  0.17374635  0.01216256  0.75808883  1  -0.61234  0.027115  2.121803  0.049  -0.600788  0.017188  2.359146  0.029  -0.299833  -0.540617  0.02802  2.37453  0.046
O  O92  1  0.82001967  0.08128289  0.82710482  1  -0.606515  0.029765  2.088651  0.053  -0.60838  0.018196  2.353078  0.031  -0.299109  -0.545639  0.031843  2.364001  0.052
O  O93  1  0.17993937  0.08125248  0.17288566  1  -0.606523  0.029771  2.088337  0.053  -0.608317  0.018199  2.352738  0.031  -0.299172  -0.545579  0.031849  2.363643  0.052
O  O94  1  0.67997655  0.91874757  0.32710352  1  -0.606334  0.029733  2.089522  0.053  -0.608141  0.018187  2.353841  0.031  -0.298908  -0.545418  0.031819  2.364767  0.052
O  O95  1  0.32002729  0.91874431  0.67289714  1  -0.606606  0.029763  2.088823  0.053  -0.608397  0.018195  2.353141  0.031  -0.299017  -0.545649  0.031849  2.364056  0.052
