# generated using pymatgen
data_HgH14C18I2(N2O)2
_symmetry_space_group_name_H-M   'P 1'
_cell_length_a   4.97644235
_cell_length_b   8.38497820
_cell_length_c   24.89226307
_cell_angle_alpha   95.81655795
_cell_angle_beta   89.96076531
_cell_angle_gamma   107.30069281
_symmetry_Int_Tables_number   1
_chemical_formula_structural   HgH14C18I2(N2O)2
_chemical_formula_sum   'Hg2 H28 C36 I4 N8 O4'
_cell_volume   986.11504722
_cell_formula_units_Z   2
loop_
 _symmetry_equiv_pos_site_id
 _symmetry_equiv_pos_as_xyz
  1  'x, y, z'
loop_
 _atom_site_type_symbol
 _atom_site_label
 _atom_site_symmetry_multiplicity
 _atom_site_fract_x
 _atom_site_fract_y
 _atom_site_fract_z
 _atom_site_occupancy
 _atom_site_hle17_bader_spin_density
 _atom_site_hle17_ddec_charge
 _atom_site_hle17_ddec_spin_density
 _atom_site_hle17_ddec_sum_bond_order
 _atom_site_hle17_magmom
 _atom_site_hse06_10hf_bader_spin_density
 _atom_site_hse06_10hf_ddec_charge
 _atom_site_hse06_10hf_ddec_spin_density
 _atom_site_hse06_10hf_ddec_sum_bond_order
 _atom_site_hse06_10hf_magmom
 _atom_site_hse06_bader_spin_density
 _atom_site_hse06_ddec_charge
 _atom_site_hse06_ddec_spin_density
 _atom_site_hse06_ddec_sum_bond_order
 _atom_site_hse06_magmom
 _atom_site_pbe_bader_spin_density
 _atom_site_pbe_cm5_charge
 _atom_site_pbe_ddec_charge
 _atom_site_pbe_ddec_spin_density
 _atom_site_pbe_ddec_sum_bond_order
 _atom_site_pbe_magmom
Hg  Hg0  1  0.76754758  0.00002484  0.24993889  1  0  0.561534  0  2.105749  0  0  0.427568  0  2.588023  0  0  0.471184  0  2.566385  0  0  0.400963  0.398552  0  2.602179  0
Hg  Hg1  1  0.23245241  0.99997782  0.75006063  1  0  0.561531  0  2.105785  0  0  0.427557  0  2.588073  0  0  0.471171  0  2.566437  0  0  0.400952  0.398539  0  2.602226  0
H  H2  1  0.21977103  0.66455861  0.20074353  1  0  0.070877  0  0.984225  0  0  0.075852  0  1.057995  0  0  0.079212  0  1.053857  0  0  0.0898  0.073338  0  1.061083  0
H  H3  1  0.55392926  0.33536668  0.29898464  1  0  0.071355  0  0.984227  0  0  0.076492  0  1.057363  0  0  0.079856  0  1.053234  0  0  0.089736  0.074005  0  1.060441  0
H  H4  1  0.78023299  0.33544407  0.79925759  1  0  0.070813  0  0.984222  0  0  0.075784  0  1.058006  0  0  0.079144  0  1.053867  0  0  0.089779  0.073271  0  1.061092  0
H  H5  1  0.44606947  0.66463346  0.70101479  1  0  0.07137  0  0.984216  0  0  0.076511  0  1.057321  0  0  0.079874  0  1.053195  0  0  0.089737  0.074023  0  1.060399  0
H  H6  1  0.80704509  0.58788470  0.13530062  1  0  0.109141  0  0.937522  0  0  0.118917  0  0.9954  0  0  0.122518  0  0.994624  0  0  0.104669  0.116332  0  0.996186  0
H  H7  1  0.21865310  0.41176209  0.36481876  1  0  0.108259  0  0.937677  0  0  0.117946  0  0.995912  0  0  0.121538  0  0.995138  0  0  0.104372  0.115386  0  0.996657  0
H  H8  1  0.19295641  0.41211295  0.86469994  1  0  0.109164  0  0.9375  0  0  0.118941  0  0.995364  0  0  0.12254  0  0.994589  0  0  0.104702  0.116355  0  0.996149  0
H  H9  1  0.78135028  0.58823933  0.63518152  1  0  0.108309  0  0.937788  0  0  0.118003  0  0.995992  0  0  0.121595  0  0.995219  0  0  0.104408  0.115444  0  0.996737  0
H  H10  1  0.77341969  0.79796914  0.07164947  1  0  0.100762  0  0.95805  0  0  0.11026  0  1.021029  0  0  0.112955  0  1.019778  0  0  0.105897  0.10824  0  1.021985  0
H  H11  1  0.97619193  0.20162703  0.42857252  1  0  0.101569  0  0.957576  0  0  0.110573  0  1.020728  0  0  0.11334  0  1.019463  0  0  0.10633  0.10852  0  1.021746  0
H  H12  1  0.22658118  0.20202725  0.92835064  1  0  0.100767  0  0.95804  0  0  0.110277  0  1.021011  0  0  0.112958  0  1.019777  0  0  0.105903  0.108257  0  1.021966  0
H  H13  1  0.02381485  0.79837313  0.57142772  1  0  0.10156  0  0.957566  0  0  0.110537  0  1.020749  0  0  0.113303  0  1.019489  0  0  0.106319  0.108485  0  1.021767  0
H  H14  1  0.55125819  0.12944391  0.14538759  1  0  0.066607  0  0.998989  0  0  0.068006  0  1.079963  0  0  0.071859  0  1.075704  0  0  0.093974  0.065191  0  1.083088  0
H  H15  1  0.41936868  0.86990316  0.35387289  1  0  0.065461  0  1.000966  0  0  0.067362  0  1.081296  0  0  0.07114  0  1.077131  0  0  0.093495  0.064525  0  1.084451  0
H  H16  1  0.44873916  0.87055749  0.85461188  1  0  0.066628  0  0.998962  0  0  0.068067  0  1.079897  0  0  0.071921  0  1.075638  0  0  0.093981  0.065244  0  1.083024  0
H  H17  1  0.58063470  0.13009825  0.64612699  1  0  0.065501  0  1.000942  0  0  0.067384  0  1.081283  0  0  0.071162  0  1.077119  0  0  0.093499  0.064548  0  1.084437  0
H  H18  1  0.77124183  0.29817451  0.97836637  1  0  0.106362  0  0.968733  0  0  0.113109  0  1.035849  0  0  0.11571  0  1.035469  0  0  0.101466  0.111205  0  1.036272  0
H  H19  1  0.47310411  0.70245624  0.52139934  1  0  0.106129  0  0.970196  0  0  0.11305  0  1.03698  0  0  0.115681  0  1.036546  0  0  0.101549  0.111159  0  1.03735  0
H  H20  1  0.22875955  0.70182691  0.02163431  1  0  0.10644  0  0.968689  0  0  0.113152  0  1.035832  0  0  0.115753  0  1.035453  0  0  0.101476  0.111248  0  1.036256  0
H  H21  1  0.52688734  0.29754141  0.47860081  1  0  0.106158  0  0.970226  0  0  0.113078  0  1.037  0  0  0.115707  0  1.036571  0  0  0.101562  0.111185  0  1.037378  0
H  H22  1  0.13564526  0.44668032  0.06996824  1  0  0.106306  0  0.958392  0  0  0.116098  0  1.020029  0  0  0.118873  0  1.019284  0  0  0.102135  0.114083  0  1.020672  0
H  H23  1  0.68862718  0.55216547  0.42996078  1  0  0.106906  0  0.956941  0  0  0.116678  0  1.018499  0  0  0.119506  0  1.01764  0  0  0.102495  0.114658  0  1.01919  0
H  H24  1  0.86435612  0.55332111  0.93003284  1  0  0.106312  0  0.958421  0  0  0.116116  0  1.020041  0  0  0.118882  0  1.019306  0  0  0.102144  0.114102  0  1.020682  0
H  H25  1  0.31136490  0.44783343  0.57003902  1  0  0.106934  0  0.956911  0  0  0.116704  0  1.018472  0  0  0.119531  0  1.017613  0  0  0.102509  0.114686  0  1.01916  0
H  H26  1  0.57723636  0.16890088  0.05797923  1  0  0.313857  0  0.918629  0  0  0.294805  0  0.985661  0  0  0.302753  0  0.979053  0  0  0.307927  0.289221  0  0.990323  0
H  H27  1  0.40794900  0.83079257  0.44167038  1  0  0.313755  0  0.920333  0  0  0.294735  0  0.987292  0  0  0.302739  0  0.980629  0  0  0.308054  0.289164  0  0.991902  0
H  H28  1  0.42276502  0.83110054  0.94202105  1  0  0.313857  0  0.918621  0  0  0.294801  0  0.985657  0  0  0.30275  0  0.979049  0  0  0.307912  0.289216  0  0.990321  0
H  H29  1  0.59204911  0.16920634  0.55833022  1  0  0.313843  0  0.920328  0  0  0.294756  0  0.987331  0  0  0.30277  0  0.980668  0  0  0.30807  0.289186  0  0.991938  0
C  C30  1  0.19787962  0.75023286  0.17195476  1  0  0.123713  0  3.718868  0  0  0.092955  0  3.968322  0  0  0.101841  0  3.985213  0  0  0.039274  0.087349  0  3.956692  0
C  C31  1  0.44638240  0.24961140  0.32779001  1  0  0.122649  0  3.721346  0  0  0.092035  0  3.970803  0  0  0.100947  0  3.987665  0  0  0.039726  0.08637  0  3.959237  0
C  C32  1  0.80212313  0.24976730  0.82804547  1  0  0.12392  0  3.718766  0  0  0.093183  0  3.968169  0  0  0.102069  0  3.985061  0  0  0.039353  0.087575  0  3.956539  0
C  C33  1  0.55361634  0.75038875  0.67221022  1  0  0.122627  0  3.721345  0  0  0.092036  0  3.970783  0  0  0.100949  0  3.987646  0  0  0.039737  0.086373  0  3.959211  0
C  C34  1  0.96938728  0.70837555  0.13524300  1  0  -0.120787  0  3.726019  0  0  -0.129839  0  3.977879  0  0  -0.138284  0  3.998176  0  0  -0.08581  -0.124574  0  3.964251  0
C  C35  1  0.26032019  0.29127880  0.36470206  1  0  -0.11876  0  3.727606  0  0  -0.127808  0  3.978956  0  0  -0.136237  0  3.999292  0  0  -0.085383  -0.122557  0  3.965323  0
C  C36  1  0.03061547  0.29162459  0.86475643  1  0  -0.12083  0  3.725891  0  0  -0.129869  0  3.977733  0  0  -0.138313  0  3.998026  0  0  -0.085824  -0.124606  0  3.964105  0
C  C37  1  0.73968256  0.70872135  0.63529777  1  0  -0.118786  0  3.727727  0  0  -0.127846  0  3.979061  0  0  -0.136274  0  3.999396  0  0  -0.085399  -0.122595  0  3.965426  0
C  C38  1  0.95067733  0.82432815  0.10023911  1  0  0.000336  0  3.670747  0  0  -0.029353  0  3.917921  0  0  -0.022843  0  3.933787  0  0  -0.060206  -0.033231  0  3.907224  0
C  C39  1  0.12617709  0.17525233  0.39974567  1  0  -0.00094  0  3.670544  0  0  -0.030026  0  3.917606  0  0  -0.023633  0  3.933463  0  0  -0.060238  -0.033864  0  3.906869  0
C  C40  1  0.04932216  0.17566948  0.89976024  1  0  0.000257  0  3.670743  0  0  -0.029465  0  3.91796  0  0  -0.022947  0  3.933831  0  0  -0.060254  -0.033345  0  3.907261  0
C  C41  1  0.87382428  0.82474909  0.60025460  1  0  -0.000943  0  3.670571  0  0  -0.030032  0  3.917665  0  0  -0.023635  0  3.93351  0  0  -0.060267  -0.033873  0  3.90693  0
C  C42  1  0.16510226  0.97719359  0.10201828  1  0  -0.113139  0  3.763852  0  0  -0.087482  0  3.999656  0  0  -0.099081  0  4.02171  0  0  -0.014085  -0.080342  0  3.985118  0
C  C43  1  0.18689471  0.02218485  0.39768901  1  0  -0.112503  0  3.763379  0  0  -0.086757  0  3.999268  0  0  -0.098353  0  4.021344  0  0  -0.013899  -0.079624  0  3.984709  0
C  C44  1  0.83489785  0.02280530  0.89798111  1  0  -0.113089  0  3.763837  0  0  -0.087445  0  3.999669  0  0  -0.099043  0  4.021721  0  0  -0.014087  -0.080308  0  3.985127  0
C  C45  1  0.81310138  0.97781405  0.60231079  1  0  -0.112536  0  3.763491  0  0  -0.086767  0  3.999344  0  0  -0.098362  0  4.021414  0  0  -0.013923  -0.079636  0  3.984782  0
C  C46  1  0.38483996  0.00933962  0.14041709  1  0  0.102522  0  3.724117  0  0  0.062709  0  3.975095  0  0  0.071602  0  3.992124  0  0  0.041143  0.057011  0  3.963624  0
C  C47  1  0.37363231  0.99007444  0.35907050  1  0  0.102864  0  3.72447  0  0  0.062988  0  3.975182  0  0  0.071878  0  3.992337  0  0  0.040741  0.057336  0  3.963658  0
C  C48  1  0.61515815  0.99065928  0.85958270  1  0  0.102479  0  3.724013  0  0  0.062638  0  3.974984  0  0  0.07153  0  3.992013  0  0  0.041137  0.056949  0  3.9635  0
C  C49  1  0.62636907  0.00992696  0.64092937  1  0  0.102834  0  3.724547  0  0  0.062963  0  3.975251  0  0  0.071854  0  3.992406  0  0  0.040763  0.057312  0  3.963725  0
C  C50  1  0.14892160  0.10926962  0.06737772  1  0  0.565305  0  3.828905  0  0  0.513909  0  4.120186  0  0  0.544787  0  4.118051  0  0  0.242189  0.4932  0  4.120984  0
C  C51  1  0.03905855  0.88997640  0.43237577  1  0  0.565597  0  3.825023  0  0  0.513909  0  4.117136  0  0  0.544791  0  4.114924  0  0  0.242772  0.493236  0  4.117998  0
C  C52  1  0.85107714  0.89073052  0.93262211  1  0  0.565318  0  3.828861  0  0  0.513925  0  4.120142  0  0  0.544805  0  4.118006  0  0  0.242171  0.493218  0  4.120935  0
C  C53  1  0.96094081  0.11002501  0.56762450  1  0  0.565638  0  3.825003  0  0  0.513934  0  4.117074  0  0  0.544837  0  4.114861  0  0  0.242805  0.493265  0  4.117932  0
C  C54  1  0.65264960  0.38717656  0.98761840  1  0  -0.151747  0  3.747724  0  0  -0.166907  0  3.995432  0  0  -0.170821  0  4.016768  0  0  -0.094096  -0.164201  0  3.980946  0
C  C55  1  0.26546929  0.61315346  0.51225008  1  0  -0.151636  0  3.74766  0  0  -0.166704  0  3.995486  0  0  -0.170645  0  4.01687  0  0  -0.093743  -0.163983  0  3.980989  0
C  C56  1  0.34735441  0.61282612  0.01238272  1  0  -0.151918  0  3.747719  0  0  -0.167042  0  3.995432  0  0  -0.170958  0  4.016774  0  0  -0.09414  -0.164337  0  3.980952  0
C  C57  1  0.73452216  0.38684417  0.48774967  1  0  -0.151695  0  3.747669  0  0  -0.166752  0  3.995544  0  0  -0.170691  0  4.016923  0  0  -0.093775  -0.164033  0  3.981049  0
C  C58  1  0.44652025  0.35517493  0.02684448  1  0  0.234148  0  3.798178  0  0  0.226953  0  4.047031  0  0  0.233377  0  4.068639  0  0  0.087844  0.222594  0  4.032379  0
C  C59  1  0.09124550  0.64453210  0.47297899  1  0  0.235896  0  3.796606  0  0  0.228355  0  4.046031  0  0  0.234752  0  4.067658  0  0  0.088135  0.224055  0  4.031388  0
C  C60  1  0.55348175  0.64482775  0.97315664  1  0  0.234254  0  3.798216  0  0  0.227024  0  4.047108  0  0  0.233447  0  4.068719  0  0  0.087841  0.222663  0  4.03246  0
C  C61  1  0.90874532  0.35546428  0.52702072  1  0  0.236025  0  3.796545  0  0  0.228397  0  4.046051  0  0  0.234813  0  4.067683  0  0  0.08819  0.224099  0  4.031408  0
C  C62  1  0.29393756  0.46947541  0.03919391  1  0  -0.139736  0  3.74767  0  0  -0.159304  0  3.996194  0  0  -0.16289  0  4.017591  0  0  -0.092185  -0.156833  0  3.981716  0
C  C63  1  0.82434336  0.52988278  0.46075953  1  0  -0.141777  0  3.746241  0  0  -0.161172  0  3.995339  0  0  -0.164787  0  4.016761  0  0  -0.093125  -0.158712  0  3.980824  0
C  C64  1  0.70606445  0.53052727  0.96080721  1  0  -0.139781  0  3.747753  0  0  -0.159352  0  3.996301  0  0  -0.162932  0  4.017706  0  0  -0.092191  -0.156879  0  3.981818  0
C  C65  1  0.17564946  0.47011359  0.53923978  1  0  -0.141837  0  3.746272  0  0  -0.161211  0  3.995388  0  0  -0.164826  0  4.016807  0  0  -0.093184  -0.158751  0  3.98087  0
I  I66  1  0.03960410  0.29731254  0.21375433  1  0  -0.339652  0  1.168063  0  0  -0.299226  0  1.515189  0  0  -0.317171  0  1.496772  0  0  -0.160157  -0.287025  0  1.528234  0
I  I67  1  0.73947843  0.70213608  0.28576472  1  0  -0.339254  0  1.169948  0  0  -0.299104  0  1.517699  0  0  -0.317025  0  1.499248  0  0  -0.159828  -0.286919  0  1.530729  0
I  I68  1  0.96040201  0.70268628  0.78624064  1  0  -0.339635  0  1.168075  0  0  -0.299227  0  1.515226  0  0  -0.317173  0  1.496811  0  0  -0.160142  -0.287028  0  1.52827  0
I  I69  1  0.26052018  0.29786785  0.71423564  1  0  -0.339266  0  1.169966  0  0  -0.299112  0  1.517705  0  0  -0.317034  0  1.499256  0  0  -0.159836  -0.286927  0  1.530736  0
N  N70  1  0.39932719  0.89877386  0.17463565  1  0  -0.295852  0  3.257065  0  0  -0.218579  0  3.518893  0  0  -0.239668  0  3.540663  0  0  -0.317189  -0.20435  0  3.503708  0
N  N71  1  0.49867052  0.10091750  0.32490090  1  0  -0.295125  0  3.256833  0  0  -0.218243  0  3.519205  0  0  -0.239329  0  3.54097  0  0  -0.316974  -0.204041  0  3.50403  0
N  N72  1  0.60067481  0.10122880  0.82536427  1  0  -0.295922  0  3.256987  0  0  -0.218648  0  3.518809  0  0  -0.239734  0  3.540569  0  0  -0.317212  -0.204418  0  3.503617  0
N  N73  1  0.50133022  0.89908265  0.67509894  1  0  -0.295079  0  3.256814  0  0  -0.218201  0  3.519172  0  0  -0.239287  0  3.540935  0  0  -0.316964  -0.204  0  3.503992  0
N  N74  1  0.40392939  0.21029344  0.05390720  1  0  -0.456669  0  3.332963  0  0  -0.398347  0  3.567706  0  0  -0.420992  0  3.576074  0  0  -0.39675  -0.382808  0  3.561507  0
N  N75  1  0.19324970  0.78920722  0.44579584  1  0  -0.457319  0  3.331989  0  0  -0.398753  0  3.567337  0  0  -0.421319  0  3.575364  0  0  -0.396905  -0.383386  0  3.56148  0
N  N76  1  0.59607073  0.78970546  0.94609299  1  0  -0.456722  0  3.332997  0  0  -0.398387  0  3.567758  0  0  -0.421029  0  3.576123  0  0  -0.396734  -0.382846  0  3.561554  0
N  N77  1  0.80674577  0.21079042  0.55420432  1  0  -0.457485  0  3.332068  0  0  -0.398795  0  3.567438  0  0  -0.421421  0  3.575513  0  0  -0.396953  -0.383433  0  3.561581  0
O  O78  1  0.91874664  0.12504256  0.05317678  1  0  -0.563596  0  1.952243  0  0  -0.518767  0  2.183323  0  0  -0.539797  0  2.176532  0  0  -0.29668  -0.504085  0  2.187405  0
O  O79  1  0.79314601  0.87396381  0.44670919  1  0  -0.56341  0  1.949846  0  0  -0.518873  0  2.181028  0  0  -0.53994  0  2.174252  0  0  -0.297415  -0.504169  0  2.18505  0
O  O80  1  0.08125473  0.87495885  0.94682309  1  0  -0.56359  0  1.952207  0  0  -0.518756  0  2.183277  0  0  -0.539785  0  2.176484  0  0  -0.29666  -0.504072  0  2.187353  0
O  O81  1  0.20685398  0.12603885  0.55329073  1  0  -0.563435  0  1.949871  0  0  -0.518885  0  2.181046  0  0  -0.539944  0  2.174244  0  0  -0.297422  -0.504183  0  2.185066  0
