# generated using pymatgen
data_Al6H37C67NO29
_symmetry_space_group_name_H-M   'P 1'
_cell_length_a   12.62160116
_cell_length_b   12.55379746
_cell_length_c   26.86646108
_cell_angle_alpha   83.28252681
_cell_angle_beta   83.04634603
_cell_angle_gamma   62.77232292
_symmetry_Int_Tables_number   1
_chemical_formula_structural   Al6H37C67NO29
_chemical_formula_sum   'Al6 H37 C67 N1 O29'
_cell_volume   3748.27430942
_cell_formula_units_Z   1
loop_
 _symmetry_equiv_pos_site_id
 _symmetry_equiv_pos_as_xyz
  1  'x, y, z'
loop_
 _atom_site_type_symbol
 _atom_site_label
 _atom_site_symmetry_multiplicity
 _atom_site_fract_x
 _atom_site_fract_y
 _atom_site_fract_z
 _atom_site_occupancy
 _atom_site_pbe_bader_charge
 _atom_site_pbe_bader_spin_density
 _atom_site_pbe_cm5_charge
 _atom_site_pbe_ddec_charge
 _atom_site_pbe_ddec_spin_density
 _atom_site_pbe_ddec_sum_bond_order
 _atom_site_pbe_magmom
Al  Al0  1  0.40576635  0.40308566  0.51050630  1  2.494829  0  0.400007  1.68053  0  2.561146  0
Al  Al1  1  0.65260451  0.42366565  0.49547169  1  2.481642  0  0.510247  1.662315  0  2.508398  0
Al  Al2  1  0.42262373  0.65246534  0.49713454  1  2.47895  0  0.510415  1.66184  0  2.511534  0
Al  Al3  1  0.92945017  0.93508041  0.98024918  1  2.492157  0  0.400222  1.682308  0  2.559267  0
Al  Al4  1  0.91585962  0.68412182  0.99506463  1  2.4792  0  0.512966  1.659398  0  2.508649  0
Al  Al5  1  0.68419479  0.91156279  0.99363029  1  2.479767  0  0.510772  1.660989  0  2.512476  0
H  H6  1  0.36704194  0.62848886  0.26884408  1  0.045702  0  0.09615  0.102496  0  0.986176  0
H  H7  1  0.33590375  0.64046459  0.18437367  1  0.078342  0  0.112135  0.060446  0  0.935773  0
H  H8  1  0.10921277  0.53159660  0.21555626  1  0.047679  0  0.098742  0.100875  0  0.972221  0
H  H9  1  0.47451921  0.23498537  0.20577027  1  0.033719  0  0.096718  0.096404  0  0.975934  0
H  H10  1  0.46723932  0.26482364  0.29090867  1  0.045901  0  0.098052  0.09769  0  0.976812  0
H  H11  1  0.76129098  0.99314778  0.30365106  1  0.031297  0  0.094162  0.093997  0  0.980828  0
H  H12  1  0.60491405  0.04491581  0.30880201  1  0.042862  0  0.098886  0.099982  0  0.972096  0
H  H13  1  0.61202129  0.01375212  0.22396445  1  0.036773  0  0.096009  0.094833  0  0.978262  0
H  H14  1  0.76834685  0.96192862  0.21889356  1  0.037736  0  0.091939  0.087974  0  1.000899  0
H  H15  1  0.75219624  0.29421550  0.26673843  1  0.041893  0  0.094656  0.093067  0  0.979722  0
H  H16  1  0.26807885  0.78268278  0.27150629  1  0.05402  0  0.100327  0.107161  0  0.982145  0
H  H17  1  0.84787205  0.14034111  0.27897526  1  0.019218  0  0.093318  0.090942  0  0.981617  0
H  H18  1  0.75981694  0.26286417  0.18184505  1  0.028532  0  0.098331  0.099296  0  0.97044  0
H  H19  1  0.52643137  0.36826355  0.27388489  1  0.030947  0  0.091927  0.086933  0  0.989406  0
H  H20  1  0.53522689  0.33725996  0.18893194  1  0.046799  0  0.094324  0.091638  0  0.982049  0
H  H21  1  0.85542129  0.10910865  0.19384584  1  -0.000241  0  0.094437  0.092734  0  0.982713  0
H  H22  1  0.49410600  0.74112001  0.80286047  1  0.035613  0  0.105245  0.110646  0  0.962331  0
H  H23  1  0.47360105  0.72740990  0.71887269  1  0.057078  0  0.101806  0.104562  0  0.970818  0
H  H24  1  0.74779146  0.77033255  0.67971000  1  0.050817  0  0.101624  0.103984  0  0.967768  0
H  H25  1  0.59063691  0.84581471  0.69046076  1  0.021153  0  0.102225  0.105196  0  0.967733  0
H  H26  1  0.61059534  0.86071380  0.77441257  1  0.044389  0  0.102727  0.106537  0  0.967466  0
H  H27  1  0.99117115  0.74392967  0.30830284  1  0.023765  0  0.0975  0.099248  0  0.974317  0
H  H28  1  0.76762286  0.78555523  0.76341675  1  0.037669  0  0.100488  0.104516  0  0.979035  0
H  H29  1  0.77704387  0.45962454  0.71123694  1  0.04574  0  0.10542  0.111495  0  0.968128  0
H  H30  1  0.85698378  0.54409205  0.69255772  1  0.068162  0  0.108285  0.117851  0  0.965137  0
H  H31  1  0.78725235  0.47543959  0.79535070  1  0.067352  0  0.125761  0.111458  0  0.927361  0
H  H32  1  0.54894333  0.56926180  0.72746018  1  0.054063  0  0.098835  0.099168  0  0.975153  0
H  H33  1  0.57020051  0.58311374  0.81124740  1  0.058993  0  0.101046  0.10107  0  0.971091  0
H  H34  1  0.04775300  0.85030297  0.29544844  1  0.034125  0  0.093669  0.091571  0  0.983704  0
H  H35  1  0.01154964  0.86448513  0.21046183  1  0.050317  0  0.092805  0.081415  0  1.004832  0
H  H36  1  0.96150401  0.75399793  0.22324563  1  0.052325  0  0.096895  0.098006  0  0.979169  0
H  H37  1  0.28448508  0.47323888  0.28830821  1  0.050279  0  0.095214  0.095021  0  0.995551  0
H  H38  1  0.12954255  0.52321756  0.30178264  1  0.044928  0  0.09894  0.101381  0  0.968608  0
H  H39  1  0.26251910  0.49066556  0.20193964  1  0.036723  0  0.09595  0.094125  0  0.983875  0
H  H40  1  0.17531057  0.88468030  0.19502172  1  0.568024  0  0.315936  0.341042  0  0.916209  0
H  H41  1  0.32190608  0.28239309  0.55246489  1  0.581389  0  0.295877  0.387037  0  0.916869  0
H  H42  1  0.04322456  0.02619927  0.93786520  1  0.566094  0  0.295938  0.386596  0  0.917237  0
C  C43  1  0.61490214  0.28302892  0.43544618  1  1.67459  0  0.279628  0.720436  0  4.156825  0
C  C44  1  0.65671843  0.66822478  0.26841917  1  -0.045075  0  0.001324  -0.004855  0  4.174916  0
C  C45  1  0.64276483  0.65412675  0.31873734  1  0.328771  0  -0.003494  0.030725  0  4.238536  0
C  C46  1  0.62984405  0.63981842  0.36469488  1  -0.322737  0  0.007879  -0.12606  0  3.801678  0
C  C47  1  0.27633795  0.69690908  0.26111801  1  -0.062923  0  -0.156879  -0.276275  0  3.838596  0
C  C48  1  0.05690414  0.76489620  0.28419062  1  -0.013033  0  -0.153322  -0.194301  0  3.858189  0
C  C49  1  0.03601538  0.77344510  0.22800432  1  -0.078112  0  -0.152926  -0.185844  0  3.862652  0
C  C50  1  0.10049514  0.70187380  0.10352478  1  0.065374  0  -0.046564  -0.218121  0  3.966668  0
C  C51  1  0.18387980  0.66529124  0.29420998  1  0.136107  0  0.000285  0.176215  0  3.909201  0
C  C52  1  0.25696244  0.70813776  0.20447127  1  0.46119  0  0.007188  0.198059  0  3.806383  0
C  C53  1  0.14942344  0.68248188  0.19876451  1  0.107376  0  -0.004006  0.089947  0  3.907718  0
C  C54  1  0.60617746  0.61225251  0.41719918  1  1.713868  0  0.285594  0.701016  0  4.173964  0
C  C55  1  0.18067557  0.55384244  0.22224590  1  -0.042704  0  -0.152575  -0.184628  0  3.861071  0
C  C56  1  0.19643920  0.54468625  0.27894766  1  -0.037179  0  -0.152892  -0.189257  0  3.844959  0
C  C57  1  0.12608523  0.69272630  0.14650044  1  -0.306708  0  -0.011455  -0.005661  0  4.026721  0
C  C58  1  0.20622388  0.65527950  0.34660138  1  -0.442002  0  -0.009572  -0.011412  0  4.004203  0
C  C59  1  0.23091545  0.64236996  0.38993202  1  0.168619  0  -0.048754  -0.223002  0  3.974695  0
C  C60  1  0.54109062  0.27661429  0.26913304  1  -0.041928  0  -0.152072  -0.186256  0  3.844963  0
C  C61  1  0.67824641  0.05731507  0.28686240  1  -0.029074  0  -0.150663  -0.184364  0  3.841079  0
C  C62  1  0.68294387  0.03671957  0.23079519  1  -0.034852  0  -0.151824  -0.184942  0  3.838388  0
C  C63  1  0.68790823  0.10528128  0.10155296  1  -0.138669  0  -0.050215  -0.226891  0  3.978837  0
C  C64  1  0.65979736  0.18640495  0.29196655  1  0.172581  0  0.001286  0.16545  0  3.906702  0
C  C65  1  0.28219546  0.61293001  0.43750718  1  1.677244  0  0.2806  0.716771  0  4.160317  0
C  C66  1  0.54627983  0.25634855  0.21300551  1  -0.039596  0  -0.152682  -0.189685  0  3.854724  0
C  C67  1  0.66811340  0.15155335  0.19733343  1  0.133347  0  0.001242  0.167207  0  3.903152  0
C  C68  1  0.76946674  0.18272399  0.20613886  1  0.028839  0  -0.152605  -0.186425  0  3.84667  0
C  C69  1  0.76450797  0.20334180  0.26213126  1  -0.026685  0  -0.154064  -0.187466  0  3.857592  0
C  C70  1  0.67546477  0.12889237  0.14510649  1  -0.13501  0  -0.007388  -0.010369  0  4.011437  0
C  C71  1  0.65288407  0.20849603  0.34423578  1  -0.232449  0  -0.00924  -0.012599  0  4.014829  0
C  C72  1  0.64384210  0.23249993  0.38754830  1  -0.091012  0  -0.050572  -0.227053  0  3.980397  0
C  C73  1  0.55548252  0.65183219  0.73198631  1  -0.027507  0  -0.148524  -0.189947  0  3.837184  0
C  C74  1  0.67157489  0.76964295  0.70400738  1  -0.004672  0  -0.148001  -0.188093  0  3.833868  0
C  C75  1  0.68488896  0.77961465  0.75961560  1  -0.016754  0  -0.149257  -0.191772  0  3.83375  0
C  C76  1  0.61451977  0.28460110  0.57697303  1  1.67674  0  0.277976  0.694413  0  4.184108  0
C  C77  1  0.70790391  0.69121460  0.88810833  1  0.124784  0  -0.038924  -0.212039  0  3.936479  0
C  C78  1  0.66436811  0.65173740  0.69820439  1  0.124152  0  0.004395  0.165597  0  3.90422  0
C  C79  1  0.56912329  0.66114138  0.78763040  1  -0.034196  0  -0.146742  -0.187879  0  3.841257  0
C  C80  1  0.68617044  0.66916224  0.79268191  1  0.145624  0  0.012309  0.143681  0  3.88042  0
C  C81  1  0.79213631  0.55197906  0.77247284  1  0.121596  0  -0.045062  -0.044107  0  3.845488  0
C  C82  1  0.77961430  0.54398599  0.71605687  1  -0.021871  0  -0.139827  -0.219626  0  3.798076  0
C  C83  1  0.69779540  0.68003893  0.84478825  1  -0.385601  0  0.003019  0.002004  0  3.980425  0
C  C84  1  0.65106136  0.64269883  0.64609646  1  -0.441971  0  0.007358  0.016559  0  3.961185  0
C  C85  1  0.63870832  0.63436808  0.60268907  1  0.212613  0  -0.045238  -0.228917  0  3.947597  0
C  C86  1  0.10708649  0.69599118  0.86394760  1  0.333301  0  0.00338  -0.130376  0  3.811934  0
C  C87  1  0.61286695  0.61215892  0.55551518  1  1.624453  0  0.288333  0.734483  0  4.133677  0
C  C88  1  0.13571005  0.68478116  0.81888349  1  -0.342781  0  -0.000574  0.039877  0  4.242519  0
C  C89  1  0.16407176  0.67355988  0.76949534  1  0.079411  0  0.007383  0.013367  0  4.182126  0
C  C90  1  0.18653800  0.66430137  0.72380370  1  -0.139495  0  0.000177  -0.004125  0  4.182422  0
C  C91  1  0.21237614  0.65140168  0.67440119  1  -0.185842  0  -0.005131  0.033253  0  4.257284  0
C  C92  1  0.23810508  0.63833813  0.62926540  1  0.120681  0  -0.002454  -0.14154  0  3.833945  0
C  C93  1  0.69491172  0.09962445  0.86174064  1  0.103588  0  0.006832  -0.120827  0  3.818118  0
C  C94  1  0.68358292  0.12723117  0.81669181  1  -0.232241  0  -0.008882  0.02077  0  4.263551  0
C  C95  1  0.67276177  0.15507385  0.76733002  1  -0.245344  0  -0.000783  -0.003208  0  4.203375  0
C  C96  1  0.66470618  0.17828915  0.72164063  1  0.326786  0  -0.002595  -0.007134  0  4.203377  0
C  C97  1  0.65390099  0.20611919  0.67227415  1  -0.286159  0  -0.007813  0.025689  0  4.264779  0
C  C98  1  0.28803131  0.60986423  0.57887798  1  1.653292  0  0.275923  0.693692  0  4.185736  0
C  C99  1  0.64277785  0.23364387  0.62720577  1  0.12525  0  0.003286  -0.129223  0  3.824368  0
C  C100  1  0.05061638  0.72864824  0.05569705  1  1.645205  0  0.281243  0.720568  0  4.153212  0
C  C101  1  0.72713889  0.72737660  0.07321566  1  1.686082  0  0.286143  0.699067  0  4.172532  0
C  C102  1  0.71818511  0.05568244  0.05341973  1  1.646817  0  0.281783  0.720361  0  4.156506  0
C  C103  1  0.05394225  0.72478143  0.91395860  1  1.669826  0  0.278578  0.69559  0  4.180983  0
C  C104  1  0.73028456  0.71820133  0.93507880  1  1.664693  0  0.289419  0.733511  0  4.131054  0
C  C105  1  0.72335017  0.04861077  0.91198327  1  1.692853  0  0.276957  0.689852  0  4.191096  0
C  C106  1  0.70002503  0.70360208  0.12579251  1  0.354063  0  0.01363  -0.11584  0  3.789146  0
C  C107  1  0.68465306  0.69202481  0.17174374  1  -0.486766  0  -0.001072  0.030416  0  4.231388  0
C  C108  1  0.66926859  0.67951066  0.22206153  1  -0.007165  0  0.004971  0.002927  0  4.172887  0
C  C109  1  0.90720514  0.54676198  0.77925827  1  0.817818  0  0.174879  0.246632  0  3.979577  0
N  N110  1  0.99942197  0.54344885  0.78362692  1  -1.120392  0  -0.305852  -0.368991  0  2.774534  0
O  O111  1  0.30508463  0.51058223  0.45886255  1  -1.224018  0  -0.1991  -0.534198  0  2.281106  0
O  O112  1  0.68829118  0.51572607  0.53523151  1  -1.245189  0  -0.227724  -0.591594  0  2.239068  0
O  O113  1  0.51337061  0.68707361  0.53804723  1  -1.235542  0  -0.226591  -0.589968  0  2.239406  0
O  O114  1  0.30994019  0.69053387  0.55178762  1  -1.242403  0  -0.238139  -0.5977  0  2.238085  0
O  O115  1  0.49511168  0.49417765  0.50127928  1  -1.610914  0  -0.391064  -1.274613  0  2.293359  0
O  O116  1  0.81967674  0.03516702  0.03207158  1  -1.218936  0  -0.199378  -0.535913  0  2.282076  0
O  O117  1  0.02545534  0.83129014  0.03423868  1  -1.216775  0  -0.200498  -0.543283  0  2.291454  0
O  O118  1  0.03093594  0.64663412  0.03946307  1  -1.25048  0  -0.24558  -0.6142  0  2.230498  0
O  O119  1  0.82688920  0.65240365  0.05329388  1  -1.231988  0  -0.217746  -0.569776  0  2.246444  0
O  O120  1  0.65152518  0.82427629  0.05184993  1  -1.235285  0  -0.215668  -0.566424  0  2.246539  0
O  O121  1  0.64021213  0.03129474  0.03686388  1  -1.247462  0  -0.244666  -0.612316  0  2.234022  0
O  O122  1  0.51231822  0.30727998  0.45641557  1  -1.220766  0  -0.201758  -0.544986  0  2.295084  0
O  O123  1  0.82401116  0.02897395  0.92457370  1  -1.198039  0  -0.202083  -0.545707  0  2.296778  0
O  O124  1  0.03157040  0.82707816  0.92681217  1  -1.211305  0  -0.20754  -0.560737  0  2.29836  0
O  O125  1  0.02964928  0.64533202  0.94061437  1  -1.244909  0  -0.233759  -0.588966  0  2.232816  0
O  O126  1  0.82782062  0.64505046  0.95442121  1  -1.236873  0  -0.223218  -0.583884  0  2.234939  0
O  O127  1  0.65344465  0.81712730  0.95306027  1  -1.245171  0  -0.225694  -0.589761  0  2.241636  0
O  O128  1  0.64454819  0.02352125  0.93857907  1  -1.24263  0  -0.23472  -0.590929  0  2.238982  0
O  O129  1  0.84170356  0.84238196  0.98940484  1  -1.604311  0  -0.390524  -1.275539  0  2.295751  0
O  O130  1  0.69481375  0.30434303  0.45224858  1  -1.260169  0  -0.246354  -0.614857  0  2.226884  0
O  O131  1  0.68178722  0.51243187  0.43669202  1  -1.231713  0  -0.218545  -0.571324  0  2.246589  0
O  O132  1  0.50919668  0.68716155  0.43903437  1  -1.24008  0  -0.218832  -0.571163  0  2.247456  0
O  O133  1  0.30551752  0.69269624  0.45341546  1  -1.258531  0  -0.24341  -0.610848  0  2.237975  0
O  O134  1  0.31031600  0.50770210  0.56607687  1  -1.207045  0  -0.204742  -0.55145  0  2.296145  0
O  O135  1  0.51473275  0.30235419  0.56388713  1  -1.207887  0  -0.205403  -0.553455  0  2.291368  0
O  O136  1  0.69229929  0.31171324  0.55071979  1  -1.246025  0  -0.235373  -0.592001  0  2.239683  0
O  O137  1  0.24568575  0.81928258  0.18003147  1  -1.080338  0  -0.406675  -0.494509  0  2.169709  0
O  O138  1  0.32522522  0.31948531  0.51908100  1  -1.359043  0  -0.57292  -0.988228  0  1.789201  0
O  O139  1  0.00711273  0.02144760  0.97135837  1  -1.341924  0  -0.571731  -0.986471  0  1.789858  0
