# generated using pymatgen
data_CoH9C10N3O2
_symmetry_space_group_name_H-M   'P 1'
_cell_length_a   4.83250791
_cell_length_b   9.69996383
_cell_length_c   22.33778234
_cell_angle_alpha   89.99994870
_cell_angle_beta   90.00001399
_cell_angle_gamma   99.91085522
_symmetry_Int_Tables_number   1
_chemical_formula_structural   CoH9C10N3O2
_chemical_formula_sum   'Co4 H36 C40 N12 O8'
_cell_volume   1031.46098544
_cell_formula_units_Z   4
loop_
 _symmetry_equiv_pos_site_id
 _symmetry_equiv_pos_as_xyz
  1  'x, y, z'
loop_
 _atom_site_type_symbol
 _atom_site_label
 _atom_site_symmetry_multiplicity
 _atom_site_fract_x
 _atom_site_fract_y
 _atom_site_fract_z
 _atom_site_occupancy
 _atom_site_hle17_ddec_charge
 _atom_site_hle17_ddec_spin_density
 _atom_site_hle17_ddec_sum_bond_order
 _atom_site_hle17_magmom
 _atom_site_hse06_10hf_ddec_charge
 _atom_site_hse06_10hf_ddec_spin_density
 _atom_site_hse06_10hf_ddec_sum_bond_order
 _atom_site_hse06_10hf_magmom
 _atom_site_hse06_ddec_charge
 _atom_site_hse06_ddec_spin_density
 _atom_site_hse06_ddec_sum_bond_order
 _atom_site_hse06_magmom
 _atom_site_pbe_cm5_charge
 _atom_site_pbe_ddec_charge
 _atom_site_pbe_ddec_spin_density
 _atom_site_pbe_ddec_sum_bond_order
 _atom_site_pbe_magmom
Co  Co0  1  0.92295275  0.16630259  0.68463152  1  0.961471  2.811191  2.024821  2.527  0.908595  2.817818  2.47249  2.58  0.998176  2.865181  2.386893  2.671  0.715739  0.834286  2.771599  2.542272  2.494
Co  Co1  1  0.07704438  0.33369759  0.18463196  1  0.96141  2.811153  2.024856  2.527  0.90857  2.817815  2.472553  2.58  0.998187  2.865178  2.386904  2.671  0.715717  0.834255  2.771599  2.542337  2.494
Co  Co2  1  0.07704481  0.83369814  0.31536821  1  0.961523  2.811223  2.024828  2.527  0.90857  2.817816  2.472529  2.58  0.998175  2.865178  2.386892  2.671  0.715716  0.834256  2.771603  2.542309  2.494
Co  Co3  1  0.92295489  0.66630210  0.81536821  1  0.961495  2.81118  2.024832  2.527  0.908636  2.817814  2.472501  2.58  0.998237  2.865179  2.386878  2.671  0.715742  0.834326  2.771601  2.542279  2.494
H  H4  1  0.42374057  0.31030354  0.78286907  1  0.111938  1e-06  0.967307  0.0  0.112545  9.5e-05  1.043352  0.0  0.115488  -4e-06  1.042146  0.0  0.105593  0.110883  0.000251  1.043379  0.0
H  H5  1  0.57626452  0.18969539  0.28287049  1  0.111956  1e-06  0.967314  0.0  0.11256  9.5e-05  1.043344  0.0  0.115504  -5e-06  1.042136  0.0  0.105625  0.110896  0.000251  1.043367  0.0
H  H6  1  0.57626284  0.68969615  0.21713021  1  0.111963  1e-06  0.967297  0.0  0.112553  9.5e-05  1.043349  0.0  0.115496  -5e-06  1.042141  0.0  0.105605  0.110888  0.000251  1.043375  0.0
H  H7  1  0.42374060  0.81030325  0.71713102  1  0.111929  1e-06  0.967322  0.0  0.112541  9.5e-05  1.043349  0.0  0.115484  -5e-06  1.042144  0.0  0.105583  0.110874  0.000251  1.04337  0.0
H  H8  1  0.76479567  0.30012965  0.86477471  1  0.088823  -0.000135  0.95432  0.0  0.098878  -0.000104  1.01856  0.0  0.101404  -0.000115  1.017799  0.0  0.099393  0.096977  -9.2e-05  1.019279  0.0
H  H9  1  0.23520738  0.19986912  0.36477611  1  0.088843  -0.000134  0.954306  0.0  0.098897  -0.000104  1.018556  0.0  0.101422  -0.000115  1.017796  0.0  0.099401  0.096994  -9.2e-05  1.019274  0.0
H  H10  1  0.23520738  0.69986899  0.13522413  1  0.088815  -0.000135  0.954322  0.0  0.098873  -0.000104  1.018566  0.0  0.101398  -0.000115  1.017807  0.0  0.099397  0.096969  -9.2e-05  1.019282  0.0
H  H11  1  0.76479774  0.80012953  0.63522541  1  0.088837  -0.000136  0.954291  0.0  0.098893  -0.000104  1.018525  0.0  0.10142  -0.000115  1.017764  0.0  0.099394  0.096989  -9.2e-05  1.019241  0.0
H  H12  1  0.75529860  0.08542255  0.92531120  1  0.08395  -0.000141  0.944636  0.0  0.099469  -4.1e-05  0.996545  0.0  0.102245  -3.3e-05  0.995714  0.0  0.09768  0.097296  -5.6e-05  0.997453  0.0
H  H13  1  0.24470069  0.41457714  0.42531162  1  0.083984  -0.00014  0.94458  0.0  0.099522  -4.1e-05  0.996471  0.0  0.1023  -3.3e-05  0.995636  0.0  0.0977  0.09735  -5.6e-05  0.997383  0.0
H  H14  1  0.24470274  0.91457714  0.07468808  1  0.083979  -0.000141  0.944598  0.0  0.099521  -4.1e-05  0.996484  0.0  0.102298  -3.3e-05  0.99565  0.0  0.097692  0.097347  -5.6e-05  0.997393  0.0
H  H15  1  0.75530065  0.58542255  0.57468900  1  0.083964  -0.00014  0.944643  0.0  0.099483  -4.1e-05  0.996552  0.0  0.102259  -3.2e-05  0.995721  0.0  0.097681  0.097312  -5.6e-05  0.997463  0.0
H  H16  1  0.41295209  0.86830166  0.90308994  1  0.098068  -6.5e-05  0.97686  0.0  0.107653  -6e-06  1.041808  0.0  0.109975  -7.8e-05  1.041175  0.0  0.101422  0.106303  8.6e-05  1.041627  0.0
H  H17  1  0.58704558  0.63169840  0.40308915  1  0.098056  -6.4e-05  0.976856  0.0  0.107641  -6e-06  1.041809  0.0  0.109962  -7.8e-05  1.041175  0.0  0.101423  0.106292  8.6e-05  1.041626  0.0
H  H18  1  0.58704717  0.13169803  0.09691024  1  0.098083  -6.3e-05  0.976835  0.0  0.107667  -6e-06  1.041782  0.0  0.109988  -7.8e-05  1.041149  0.0  0.101424  0.106317  8.6e-05  1.041599  0.0
H  H19  1  0.41295198  0.36830233  0.59691013  1  0.098079  -6.4e-05  0.976839  0.0  0.107659  -6e-06  1.041789  0.0  0.10998  -7.8e-05  1.041156  0.0  0.101427  0.106311  8.6e-05  1.04161  0.0
H  H20  1  0.69632864  0.99523112  0.57895166  1  0.081716  0.000144  0.95787  0.001  0.090006  0.000258  1.024523  0.001  0.091803  8.3e-05  1.02429  0.0  0.10185  0.088851  0.000447  1.024496  0.001
H  H21  1  0.30366889  0.50476960  0.07895179  1  0.081718  0.000143  0.957848  0.001  0.090018  0.000258  1.0245  0.001  0.091815  8.3e-05  1.024265  0.0  0.101847  0.088862  0.000446  1.024475  0.001
H  H22  1  0.30366649  0.00476857  0.42104807  1  0.081707  0.000144  0.957979  0.001  0.090029  0.000258  1.024584  0.001  0.091825  8.3e-05  1.024352  0.0  0.101874  0.088874  0.000447  1.024559  0.001
H  H23  1  0.69632867  0.49523113  0.92104883  1  0.081717  0.000144  0.957943  0.001  0.090006  0.000258  1.024593  0.001  0.091803  8.3e-05  1.02436  0.0  0.101862  0.088851  0.000446  1.024567  0.001
H  H24  1  0.38904537  0.19221890  0.50785880  1  0.066565  4.1e-05  0.929288  0.0  0.085945  6e-06  0.989557  0.0  0.086655  -1.3e-05  0.99007  0.0  0.089872  0.08547  3.2e-05  0.989147  0.0
H  H25  1  0.61095303  0.30777954  0.00785884  1  0.066574  4.1e-05  0.929255  0.0  0.085965  6e-06  0.989532  0.0  0.086677  -1.3e-05  0.990047  0.0  0.089866  0.085489  3.2e-05  0.98912  0.0
H  H26  1  0.61095560  0.80777974  0.49214092  1  0.066571  4.1e-05  0.929246  0.0  0.08595  6e-06  0.989533  0.0  0.086661  -1.3e-05  0.990047  0.0  0.089859  0.085475  3.2e-05  0.989119  0.0
H  H27  1  0.38904417  0.69222015  0.99214134  1  0.06654  4.1e-05  0.929251  0.0  0.085923  6e-06  0.989544  0.0  0.086633  -1.3e-05  0.990058  0.0  0.089863  0.085447  3.2e-05  0.989129  0.0
H  H28  1  0.73220301  0.23293608  0.53845674  1  0.070829  3.4e-05  0.92546  0.0  0.089675  0.000112  0.982947  0.0  0.090602  4.5e-05  0.982839  0.0  0.092724  0.089111  0.000185  0.983026  0.0
H  H29  1  0.26779684  0.26706649  0.03845722  1  0.0708  3.5e-05  0.925491  0.0  0.089681  0.000112  0.982956  0.0  0.090612  4.5e-05  0.982846  0.0  0.092721  0.089113  0.000184  0.983035  0.0
H  H30  1  0.26779869  0.76706465  0.46154344  1  0.070805  3.5e-05  0.925495  0.0  0.089669  0.000112  0.982973  0.0  0.090598  4.5e-05  0.982865  0.0  0.092714  0.089105  0.000185  0.983052  0.0
H  H31  1  0.73219865  0.73293425  0.96154296  1  0.070795  3.4e-05  0.925483  0.0  0.089679  0.000112  0.982949  0.0  0.090609  4.5e-05  0.982836  0.0  0.092729  0.089112  0.000184  0.983028  0.0
H  H32  1  0.25621931  0.82054538  0.57098043  1  0.07102  -7e-06  0.94994  0.0  0.088449  -2e-05  1.010525  0.0  0.088488  -2.8e-05  1.012454  0.0  0.088824  0.088585  0.0  1.009037  0.0
H  H33  1  0.74377993  0.67945431  0.07098052  1  0.071028  -7e-06  0.949942  0.0  0.088469  -2e-05  1.010535  0.0  0.088512  -2.8e-05  1.012465  0.0  0.088824  0.0886  0.0  1.009046  0.0
H  H34  1  0.74377789  0.17945431  0.42901930  1  0.071012  -7e-06  0.949936  0.0  0.088445  -2e-05  1.010524  0.0  0.088486  -2.8e-05  1.012455  0.0  0.088823  0.088577  0.0  1.009035  0.0
H  H35  1  0.25621934  0.32054537  0.92901965  1  0.07095  -7e-06  0.950004  0.0  0.088397  -2e-05  1.010561  0.0  0.088431  -2.8e-05  1.012486  0.0  0.088809  0.088535  0.0  1.009075  0.0
H  H36  1  0.09896331  0.93856712  0.52757278  1  0.068692  0.000108  0.959185  0.0  0.085908  6.8e-05  1.023946  0.0  0.087249  1.2e-05  1.023472  0.0  0.088947  0.084813  0.000129  1.024468  0.0
H  H37  1  0.90103591  0.56143266  0.02757293  1  0.068666  0.000108  0.959166  0.0  0.085886  6.8e-05  1.023938  0.0  0.08723  1.2e-05  1.023464  0.0  0.08894  0.084786  0.000128  1.024458  0.0
H  H38  1  0.90103596  0.06143257  0.47242695  1  0.068676  0.000108  0.959147  0.0  0.085888  6.8e-05  1.023924  0.0  0.08723  1.2e-05  1.023451  0.0  0.08894  0.084788  0.000129  1.024444  0.0
H  H39  1  0.09896128  0.43856703  0.97242725  1  0.068701  0.000108  0.959171  0.0  0.085911  6.8e-05  1.023935  0.0  0.087246  1.2e-05  1.02346  0.0  0.088947  0.084818  0.000128  1.024457  0.0
C  C40  1  0.22279467  0.09346558  0.79735533  1  0.132758  0.002438  3.812554  0.005  0.133985  0.003708  4.055153  0.006  0.137149  0.002303  4.079716  0.004  0.09337  0.131498  0.005302  4.038831  0.008
C  C41  1  0.77720700  0.40653542  0.29735533  1  0.132746  0.002431  3.812544  0.005  0.13396  0.003709  4.055173  0.006  0.137126  0.002301  4.079737  0.004  0.093383  0.131475  0.005302  4.038859  0.008
C  C42  1  0.77720739  0.90653620  0.20264485  1  0.132867  0.002429  3.812409  0.005  0.133945  0.003708  4.055225  0.006  0.137109  0.002301  4.07979  0.004  0.093398  0.131457  0.005302  4.038908  0.008
C  C43  1  0.22279434  0.59346427  0.70264529  1  0.132834  0.00244  3.812515  0.005  0.134058  0.003708  4.05513  0.006  0.137224  0.002301  4.079694  0.004  0.093413  0.131571  0.005302  4.038813  0.008
C  C44  1  0.41492798  0.21584561  0.80952572  1  -0.129872  0.003282  3.729926  0.004  -0.155443  0.001417  3.994709  0.001  -0.158902  0.000941  4.015136  0.001  -0.087121  -0.152752  0.002105  3.980219  0.002
C  C45  1  0.58507747  0.28415432  0.30952711  1  -0.129867  0.003292  3.729998  0.004  -0.155419  0.001417  3.994812  0.001  -0.158877  0.000941  4.015238  0.001  -0.087184  -0.152718  0.002105  3.980314  0.002
C  C46  1  0.58507336  0.78415408  0.19047311  1  -0.129971  0.003291  3.730006  0.004  -0.155472  0.001417  3.994848  0.001  -0.158931  0.000941  4.015273  0.001  -0.087189  -0.15278  0.002105  3.980355  0.002
C  C47  1  0.41492800  0.71584537  0.69047396  1  -0.129917  0.003279  3.729953  0.004  -0.155479  0.001417  3.994744  0.001  -0.158938  0.000943  4.015173  0.001  -0.087135  -0.152778  0.002105  3.980239  0.002
C  C48  1  0.60506191  0.20883844  0.85547657  1  -0.069807  -0.000748  3.776826  -0.001  -0.08822  0.000149  4.040377  0.0  -0.090834  -0.000285  4.063944  0.0  -0.094198  -0.08654  0.000568  4.024306  0.001
C  C49  1  0.39494357  0.29116139  0.35547705  1  -0.069894  -0.000768  3.776849  -0.001  -0.088311  0.000149  4.04042  0.0  -0.090928  -0.000285  4.063995  0.0  -0.094199  -0.086629  0.000569  4.024348  0.001
C  C50  1  0.39494150  0.79116125  0.14452271  1  -0.069776  -0.000766  3.776904  -0.001  -0.088187  0.00015  4.040446  0.0  -0.090803  -0.000285  4.064021  0.0  -0.094163  -0.086501  0.000568  4.024361  0.001
C  C51  1  0.60506362  0.70883725  0.64452357  1  -0.069803  -0.000742  3.776807  -0.001  -0.088215  0.00015  4.040369  0.0  -0.090829  -0.000288  4.063936  0.0  -0.094206  -0.086534  0.000569  4.024291  0.001
C  C52  1  0.60156903  0.08542304  0.88954846  1  -0.070379  0.001541  3.785493  0.002  -0.087781  0.000596  4.0407  0.001  -0.089665  0.00039  4.063318  0.001  -0.098065  -0.086421  0.000922  4.02549  0.001
C  C53  1  0.39843403  0.41457568  0.38954890  1  -0.070357  0.00155  3.785418  0.002  -0.087778  0.000597  4.040628  0.001  -0.089663  0.00039  4.063244  0.001  -0.098071  -0.086417  0.000923  4.02543  0.001
C  C54  1  0.39843438  0.91457665  0.11045081  1  -0.070397  0.001549  3.7854  0.002  -0.087826  0.000597  4.04062  0.001  -0.089711  0.00039  4.063238  0.001  -0.098085  -0.086462  0.000923  4.025409  0.001
C  C55  1  0.60156902  0.58542296  0.61045173  1  -0.070461  0.001537  3.785525  0.002  -0.087871  0.000596  4.040738  0.001  -0.089755  0.000391  4.063355  0.001  -0.098094  -0.086509  0.000923  4.025539  0.001
C  C56  1  0.41271937  0.96375573  0.87754083  1  -0.14296  0.00088  3.758294  0.001  -0.163662  0.000213  4.010011  0.0  -0.166612  -0.000309  4.030855  0.0  -0.095717  -0.161337  0.000797  3.995303  0.001
C  C57  1  0.58728206  0.53624334  0.37754142  1  -0.142981  0.000868  3.758268  0.001  -0.163679  0.000212  4.010016  0.0  -0.166629  -0.000309  4.030862  0.0  -0.09572  -0.16135  0.000798  3.995312  0.001
C  C58  1  0.58728367  0.03624291  0.12245845  1  -0.14299  0.000869  3.758277  0.001  -0.163677  0.000213  4.010003  0.0  -0.166627  -0.000308  4.030847  0.0  -0.095703  -0.161348  0.000797  3.995286  0.001
C  C59  1  0.41271550  0.46375739  0.62245876  1  -0.142939  0.000883  3.758255  0.001  -0.163619  0.000213  4.009967  0.0  -0.166569  -0.00031  4.030811  0.0  -0.095703  -0.161294  0.000798  3.995266  0.001
C  C60  1  0.22477592  0.96854388  0.82995105  1  0.130352  0.005238  3.828332  0.008  0.131158  0.005202  4.072652  0.008  0.134745  0.003732  4.096596  0.006  0.091171  0.12817  0.006696  4.056647  0.01
C  C61  1  0.77522550  0.53145528  0.32995165  1  0.130393  0.005245  3.828238  0.008  0.131168  0.005202  4.07261  0.008  0.134752  0.003733  4.096556  0.006  0.091173  0.128181  0.006696  4.056618  0.01
C  C62  1  0.77522335  0.03145580  0.17004823  1  0.130343  0.005244  3.828257  0.008  0.131153  0.005202  4.072651  0.008  0.134737  0.003733  4.096596  0.006  0.091144  0.128167  0.006696  4.056654  0.01
C  C63  1  0.22477584  0.46854440  0.67004852  1  0.130342  0.005235  3.828328  0.008  0.13112  0.005203  4.072686  0.008  0.134705  0.003733  4.09663  0.006  0.091171  0.128136  0.006696  4.056697  0.01
C  C64  1  0.37696475  0.08832938  0.61953553  1  0.683379  -0.012811  3.772571  -0.01  0.643133  0.004619  4.069933  0.004  0.683271  0.003648  4.063896  0.004  0.23029  0.613195  0.004714  4.072008  0.004
C  C65  1  0.62303442  0.41167093  0.11953597  1  0.683569  -0.012811  3.772294  -0.01  0.643269  0.004619  4.069738  0.004  0.683407  0.003648  4.063702  0.004  0.23036  0.613331  0.004713  4.071811  0.004
C  C66  1  0.62303452  0.91167031  0.38046375  1  0.68349  -0.012812  3.772428  -0.01  0.643251  0.00462  4.069768  0.004  0.683392  0.003647  4.063728  0.004  0.230336  0.613312  0.004714  4.071845  0.004
C  C67  1  0.37696521  0.58832980  0.88046465  1  0.683525  -0.012813  3.772195  -0.01  0.643186  0.004619  4.069711  0.004  0.683319  0.003648  4.063684  0.004  0.23033  0.613267  0.004713  4.071759  0.004
C  C68  1  0.50074886  0.02931696  0.56510042  1  -0.142419  0.003609  3.663615  0.006  -0.141995  0.002331  3.896826  0.004  -0.149825  0.001311  3.91182  0.002  -0.09437  -0.136249  0.003518  3.886752  0.005
C  C69  1  0.49925029  0.47068346  0.06510083  1  -0.142439  0.00361  3.663513  0.006  -0.142024  0.002331  3.896819  0.004  -0.149846  0.001311  3.911811  0.002  -0.094379  -0.136283  0.003518  3.886735  0.005
C  C70  1  0.49924942  0.97068587  0.43490020  1  -0.142453  0.003609  3.663671  0.006  -0.142007  0.002331  3.896813  0.004  -0.149829  0.001312  3.911798  0.002  -0.094418  -0.136266  0.003518  3.886734  0.005
C  C71  1  0.50075240  0.52931413  0.93490113  1  -0.142419  0.003611  3.663607  0.006  -0.141955  0.002331  3.896824  0.004  -0.149787  0.001312  3.911808  0.002  -0.09438  -0.136207  0.003518  3.886745  0.005
C  C72  1  0.57837598  0.14803810  0.51883126  1  -0.105487  -0.000917  3.650025  -0.001  -0.149812  0.000107  3.909553  0.0  -0.149796  2e-05  3.92275  0.0  -0.158865  -0.149867  0.00018  3.900434  0.0
C  C73  1  0.42162107  0.35196242  0.01883216  1  -0.105487  -0.000916  3.650018  -0.001  -0.149869  0.000107  3.909604  0.0  -0.149871  2e-05  3.922801  0.0  -0.158865  -0.149916  0.00018  3.900487  0.0
C  C74  1  0.42162122  0.85196159  0.48116802  1  -0.105516  -0.000918  3.649974  -0.001  -0.149884  0.000107  3.909542  0.0  -0.149876  2e-05  3.922743  0.0  -0.158873  -0.149932  0.00018  3.900428  0.0
C  C75  1  0.57837649  0.64803832  0.98116846  1  -0.105409  -0.000916  3.649958  -0.001  -0.149793  0.000107  3.909568  0.0  -0.149776  2e-05  3.922765  0.0  -0.158876  -0.149847  0.00018  3.900442  0.0
C  C76  1  0.29986171  0.90552871  0.53793551  1  -0.11299  2.7e-05  3.668915  0.0  -0.156943  0.000411  3.923307  0.001  -0.156807  0.000229  3.936374  0.0  -0.165967  -0.156947  0.000652  3.914319  0.001
C  C77  1  0.70013581  0.59447210  0.03793563  1  -0.11303  2.8e-05  3.668903  0.0  -0.157009  0.000412  3.923349  0.001  -0.156888  0.000228  3.936431  0.0  -0.165979  -0.156989  0.000652  3.91433  0.001
C  C78  1  0.70013549  0.09447098  0.46206377  1  -0.11298  2.6e-05  3.66896  0.0  -0.156955  0.000411  3.923356  0.001  -0.156828  0.000228  3.93643  0.0  -0.165967  -0.15693  0.000652  3.914335  0.001
C  C79  1  0.29986175  0.40552864  0.96206455  1  -0.112997  2.7e-05  3.669021  0.0  -0.156936  0.000412  3.923382  0.001  -0.156772  0.000228  3.936412  0.0  -0.165971  -0.156944  0.000652  3.914398  0.001
N  N80  1  0.01702580  0.06180114  0.75449566  1  -0.30478  0.055792  3.302635  0.087  -0.275517  0.039452  3.633502  0.051  -0.303909  0.030173  3.647546  0.038  -0.248333  -0.253507  0.048215  3.624585  0.063
N  N81  1  0.98297585  0.43819995  0.25449611  1  -0.304791  0.055794  3.302601  0.087  -0.275527  0.039452  3.633481  0.051  -0.303923  0.030172  3.64752  0.038  -0.248328  -0.253514  0.048211  3.624568  0.063
N  N82  1  0.98297590  0.93819960  0.24550407  1  -0.304836  0.055793  3.302638  0.087  -0.275521  0.039452  3.633537  0.051  -0.303917  0.030172  3.647578  0.038  -0.248333  -0.25351  0.048214  3.624624  0.063
N  N83  1  0.01702378  0.56180079  0.74550407  1  -0.304837  0.055791  3.302668  0.087  -0.275577  0.039451  3.63354  0.051  -0.303972  0.030176  3.647578  0.038  -0.248339  -0.253563  0.048212  3.624626  0.063
N  N84  1  0.90174236  0.92760282  0.75944050  1  -0.03088  -0.023476  2.95856  -0.02  -0.019931  0.003707  3.258238  0.005  -0.011169  0.002705  3.274238  0.004  -0.082785  -0.026648  0.003706  3.246725  0.004
N  N85  1  0.09825525  0.57239754  0.25944060  1  -0.030923  -0.023468  2.958636  -0.02  -0.019954  0.003708  3.258268  0.005  -0.011194  0.002703  3.274272  0.004  -0.0828  -0.026663  0.003706  3.246753  0.004
N  N86  1  0.09825727  0.07239792  0.24055923  1  -0.030909  -0.023467  2.958625  -0.02  -0.019942  0.003709  3.258247  0.005  -0.011181  0.002703  3.274251  0.004  -0.082799  -0.026658  0.003707  3.246739  0.004
N  N87  1  0.90174024  0.42760320  0.74055868  1  -0.030885  -0.023473  2.958567  -0.02  -0.019917  0.003708  3.258216  0.005  -0.011155  0.002702  3.274215  0.004  -0.082786  -0.026628  0.003706  3.246706  0.004
N  N88  1  0.02281372  0.86861020  0.80426454  1  -0.326037  0.052259  3.29686  0.081  -0.296676  0.037288  3.631254  0.047  -0.325454  0.028131  3.643517  0.034  -0.256458  -0.274259  0.045834  3.623687  0.06
N  N89  1  0.97718391  0.63139007  0.30426422  1  -0.326005  0.052252  3.296831  0.081  -0.296608  0.037287  3.631195  0.047  -0.325386  0.028133  3.643461  0.034  -0.256431  -0.27419  0.04583  3.623633  0.06
N  N90  1  0.97718384  0.13139054  0.19573564  1  -0.326009  0.052255  3.29683  0.081  -0.296617  0.037287  3.631198  0.047  -0.325396  0.028135  3.643461  0.034  -0.256432  -0.2742  0.045832  3.623639  0.06
N  N91  1  0.02281365  0.36861067  0.69573506  1  -0.325995  0.052259  3.296827  0.081  -0.296623  0.037288  3.631212  0.047  -0.325396  0.028131  3.643477  0.034  -0.256446  -0.274209  0.04583  3.623658  0.06
O  O92  1  0.11625377  0.09888367  0.61685755  1  -0.605189  0.055259  2.102076  0.095  -0.564041  0.042892  2.386645  0.066  -0.606337  0.031772  2.372203  0.049  -0.309264  -0.530292  0.05438  2.395697  0.083
O  O93  1  0.88374504  0.40111560  0.11685801  1  -0.60522  0.05526  2.10199  0.095  -0.564051  0.042892  2.386589  0.066  -0.606357  0.031772  2.372149  0.049  -0.309251  -0.530298  0.054382  2.395636  0.083
O  O94  1  0.88374514  0.90111497  0.38314218  1  -0.605199  0.055259  2.102077  0.095  -0.564045  0.042892  2.386649  0.066  -0.606347  0.031773  2.372202  0.049  -0.309254  -0.530294  0.05438  2.3957  0.083
O  O95  1  0.11625252  0.59888513  0.88314217  1  -0.605235  0.055261  2.101969  0.095  -0.564046  0.042893  2.386572  0.066  -0.606352  0.031773  2.372145  0.049  -0.309261  -0.5303  0.054382  2.395614  0.083
O  O96  1  0.52461902  0.13184454  0.66521374  1  -0.608726  0.046463  2.12059  0.077  -0.575362  0.039725  2.418534  0.058  -0.617927  0.030191  2.403723  0.043  -0.305721  -0.540626  0.049832  2.4274  0.073
O  O97  1  0.47538053  0.36815673  0.16521419  1  -0.608802  0.046463  2.120502  0.077  -0.575418  0.039724  2.418462  0.058  -0.617992  0.030192  2.403652  0.043  -0.305764  -0.540683  0.049834  2.427328  0.073
O  O98  1  0.47538061  0.86815620  0.33478599  1  -0.608792  0.046461  2.120573  0.077  -0.575418  0.039724  2.418495  0.058  -0.61799  0.030191  2.403684  0.043  -0.305737  -0.540682  0.049831  2.427361  0.073
O  O99  1  0.52461703  0.63184401  0.83478643  1  -0.608794  0.046462  2.120476  0.077  -0.575402  0.039724  2.418445  0.058  -0.617969  0.030192  2.40364  0.043  -0.305745  -0.540674  0.049832  2.427301  0.073
