# generated using pymatgen
data_ZnH24C30(NO)4
_symmetry_space_group_name_H-M   'P 1'
_cell_length_a   8.22744521
_cell_length_b   17.93084475
_cell_length_c   18.81601031
_cell_angle_alpha   90.00050563
_cell_angle_beta   102.12029753
_cell_angle_gamma   89.99979226
_symmetry_Int_Tables_number   1
_chemical_formula_structural   ZnH24C30(NO)4
_chemical_formula_sum   'Zn4 H96 C120 N16 O16'
_cell_volume   2713.95640630
_cell_formula_units_Z   4
loop_
 _symmetry_equiv_pos_site_id
 _symmetry_equiv_pos_as_xyz
  1  'x, y, z'
loop_
 _atom_site_type_symbol
 _atom_site_label
 _atom_site_symmetry_multiplicity
 _atom_site_fract_x
 _atom_site_fract_y
 _atom_site_fract_z
 _atom_site_occupancy
 _atom_site_pbe_bader_charge
 _atom_site_pbe_bader_spin_density
 _atom_site_pbe_cm5_charge
 _atom_site_pbe_ddec_charge
 _atom_site_pbe_ddec_spin_density
 _atom_site_pbe_ddec_sum_bond_order
 _atom_site_pbe_magmom
Zn  Zn0  1  0.41490765  0.10627090  0.27798318  1  1.243945  0  0.699311  0.75863  0  2.407188  0
Zn  Zn1  1  0.58510244  0.60626981  0.22201889  1  1.24392  0  0.699306  0.758584  0  2.407229  0
Zn  Zn2  1  0.58509110  0.89373487  0.72201458  1  1.243812  0  0.699283  0.758553  0  2.407259  0
Zn  Zn3  1  0.41489009  0.39373261  0.77797777  1  1.243929  0  0.699285  0.758672  0  2.407209  0
H  H4  1  0.77162839  0.14582349  0.23811584  1  0.044208  0  0.10076  0.127646  0  0.964105  0
H  H5  1  0.22839275  0.64582838  0.26189234  1  0.04441  0  0.100769  0.127605  0  0.964113  0
H  H6  1  0.22838030  0.85418673  0.76188228  1  0.044382  0  0.10075  0.127689  0  0.96425  0
H  H7  1  0.77160479  0.35417516  0.73811115  1  0.044422  0  0.100766  0.12762  0  0.96417  0
H  H8  1  0.78540509  0.20800092  0.16616845  1  0.083955  0  0.091115  0.109409  0  1.028482  0
H  H9  1  0.21460459  0.70800370  0.33383816  1  0.083738  0  0.091137  0.109508  0  1.028453  0
H  H10  1  0.21458994  0.79201153  0.83383003  1  0.08469  0  0.091139  0.109499  0  1.028429  0
H  H11  1  0.78541158  0.29200150  0.66616383  1  0.083952  0  0.091119  0.109453  0  1.028569  0
H  H12  1  0.77058510  0.22254436  0.35880682  1  0.144128  0  0.115181  0.113731  0  1.032023  0
H  H13  1  0.22941087  0.72254701  0.14120239  1  0.144464  0  0.115117  0.113595  0  1.032274  0
H  H14  1  0.22939631  0.77745304  0.64120053  1  0.144059  0  0.115202  0.113711  0  1.032199  0
H  H15  1  0.77059907  0.27744871  0.85879744  1  0.144117  0  0.115125  0.11358  0  1.032301  0
H  H16  1  0.42350266  0.45492337  0.31955000  1  0.104835  0  0.1031  0.121917  0  0.989564  0
H  H17  1  0.57652210  0.95491801  0.18045209  1  0.10479  0  0.103078  0.121829  0  0.989702  0
H  H18  1  0.57649365  0.54507738  0.68045551  1  0.104683  0  0.103085  0.121925  0  0.989659  0
H  H19  1  0.42349652  0.04507884  0.81954481  1  0.104639  0  0.103112  0.121931  0  0.989641  0
H  H20  1  0.27714862  0.49316874  0.19523364  1  0.083052  0  0.094292  0.09903  0  1.020175  0
H  H21  1  0.72290704  0.99316708  0.30476892  1  0.083548  0  0.09439  0.099113  0  1.020121  0
H  H22  1  0.72287380  0.50683926  0.80477583  1  0.083145  0  0.094395  0.099118  0  1.020145  0
H  H23  1  0.27711035  0.00683311  0.69523053  1  0.083513  0  0.094479  0.099323  0  1.020093  0
H  H24  1  0.30413579  0.41950521  0.08742248  1  0.031327  0  0.088408  0.08484  0  1.050922  0
H  H25  1  0.69592146  0.91950570  0.41258598  1  0.0312  0  0.088468  0.084849  0  1.051168  0
H  H26  1  0.69588289  0.58051059  0.91258506  1  0.031368  0  0.088438  0.084761  0  1.051177  0
H  H27  1  0.30409346  0.08049728  0.58741431  1  0.031263  0  0.088452  0.084834  0  1.051076  0
H  H28  1  0.47338156  0.30328640  0.09971417  1  0.063454  0  0.097981  0.104775  0  1.020512  0
H  H29  1  0.52666002  0.80329151  0.40029242  1  0.06271  0  0.097992  0.104745  0  1.020626  0
H  H30  1  0.52662095  0.69672327  0.90028817  1  0.063496  0  0.09802  0.104851  0  1.020633  0
H  H31  1  0.47335488  0.19671314  0.59970574  1  0.062727  0  0.097938  0.104658  0  1.02053  0
H  H32  1  0.71212391  0.02828260  0.49873611  1  0.032291  0  0.106094  0.12822  0  0.983219  0
H  H33  1  0.28789151  0.52828219  0.00127269  1  0.03198  0  0.106065  0.128216  0  0.983092  0
H  H34  1  0.28786001  0.97171871  0.50127518  1  0.03231  0  0.106053  0.128229  0  0.98299  0
H  H35  1  0.71210471  0.47171688  0.99871792  1  0.032064  0  0.106047  0.128242  0  0.983017  0
H  H36  1  0.64851151  0.10953890  0.53758620  1  0.055744  0  0.09961  0.116076  0  1.008756  0
H  H37  1  0.35149582  0.60954097  0.96242046  1  0.055896  0  0.099605  0.116085  0  1.008772  0
H  H38  1  0.35148233  0.89046687  0.46242174  1  0.055622  0  0.099584  0.116087  0  1.008932  0
H  H39  1  0.64850043  0.39046591  0.03757494  1  0.055593  0  0.099586  0.116105  0  1.008868  0
H  H40  1  0.01029173  0.03514765  0.45031853  1  0.087636  0  0.11322  0.102289  0  1.031078  0
H  H41  1  0.98970251  0.53515045  0.04968310  1  0.087693  0  0.113278  0.102401  0  1.031031  0
H  H42  1  0.98969336  0.96484027  0.54968065  1  0.08774  0  0.11323  0.10225  0  1.031296  0
H  H43  1  0.01029123  0.46484304  0.95030782  1  0.088148  0  0.113244  0.102291  0  1.03125  0
H  H44  1  0.28673805  0.28470480  0.50520431  1  0.125958  0  0.10376  0.124848  0  1.013529  0
H  H45  1  0.71326599  0.78470825  0.99479238  1  0.126098  0  0.103731  0.124841  0  1.013342  0
H  H46  1  0.71326319  0.71528925  0.49479367  1  0.125984  0  0.103803  0.124928  0  1.013516  0
H  H47  1  0.28673156  0.21529193  0.00521430  1  0.081518  0  0.10373  0.124793  0  1.013363  0
H  H48  1  0.13261681  0.39263306  0.53711164  1  0.049388  0  0.094922  0.09458  0  1.013212  0
H  H49  1  0.86738924  0.89263653  0.96288083  1  0.049353  0  0.094913  0.094568  0  1.013035  0
H  H50  1  0.86738691  0.60735653  0.46288657  1  0.049165  0  0.094883  0.094515  0  1.013191  0
H  H51  1  0.13259962  0.10736199  0.03712507  1  0.048893  0  0.094886  0.094557  0  1.013053  0
H  H52  1  0.83463716  0.38057064  0.54806318  1  0.097587  0  0.093978  0.099488  0  1.013229  0
H  H53  1  0.16537266  0.88056957  0.95192846  1  0.097556  0  0.094019  0.099612  0  1.013058  0
H  H54  1  0.16538025  0.61942229  0.45193893  1  0.09733  0  0.093997  0.099578  0  1.013074  0
H  H55  1  0.83461118  0.11942559  0.04807060  1  0.09736  0  0.094041  0.099619  0  1.012926  0
H  H56  1  0.69092599  0.26100464  0.53012087  1  0.09  0  0.095443  0.107392  0  1.038351  0
H  H57  1  0.30907567  0.76099849  0.96987593  1  0.089929  0  0.095441  0.107392  0  1.038364  0
H  H58  1  0.30907898  0.73899443  0.46987957  1  0.089981  0  0.095431  0.107443  0  1.038329  0
H  H59  1  0.69091312  0.23900059  0.03011826  1  0.090336  0  0.095454  0.107398  0  1.038486  0
H  H60  1  0.28265856  0.00291715  0.37692240  1  0.133696  0  0.114599  0.086634  0  1.056547  0
H  H61  1  0.71736439  0.50292721  0.12307944  1  0.133793  0  0.114583  0.086519  0  1.056485  0
H  H62  1  0.71731282  0.99708972  0.62307022  1  0.133515  0  0.114619  0.086591  0  1.05658  0
H  H63  1  0.28264556  0.49708692  0.87692093  1  0.133838  0  0.11461  0.086629  0  1.056422  0
H  H64  1  0.09860087  0.89225015  0.36693767  1  0.088774  0  0.107787  0.110168  0  1.043984  0
H  H65  1  0.90143036  0.39225636  0.13306342  1  0.088823  0  0.107798  0.110109  0  1.044041  0
H  H66  1  0.90138295  0.10775729  0.63305608  1  0.0886  0  0.107812  0.110289  0  1.044039  0
H  H67  1  0.09858082  0.60775220  0.86693599  1  0.088673  0  0.107809  0.11015  0  1.04417  0
H  H68  1  0.01760875  0.91611918  0.13287134  1  0.09132  0  0.110085  0.115795  0  1.01278  0
H  H69  1  0.98239876  0.41611905  0.36712673  1  0.091314  0  0.110089  0.115782  0  1.012858  0
H  H70  1  0.98244093  0.08386316  0.86712359  1  0.091743  0  0.110164  0.11586  0  1.012695  0
H  H71  1  0.01758259  0.58388003  0.63287104  1  0.091379  0  0.110162  0.11585  0  1.012775  0
H  H72  1  0.20807964  0.02527877  0.15404217  1  0.147139  0  0.121366  0.095915  0  0.999262  0
H  H73  1  0.79191715  0.52527403  0.34596491  1  0.147086  0  0.121355  0.096019  0  0.999203  0
H  H74  1  0.79195140  0.97471194  0.84595266  1  0.147315  0  0.121375  0.096032  0  0.999099  0
H  H75  1  0.20807293  0.47472616  0.65403843  1  0.147074  0  0.121372  0.095986  0  0.99915  0
H  H76  1  0.96858441  0.80058388  0.35633586  1  0.106067  0  0.10789  0.110106  0  1.046607  0
H  H77  1  0.03142735  0.30058268  0.14366800  1  0.106179  0  0.107904  0.11013  0  1.046648  0
H  H78  1  0.03143424  0.19941407  0.64366529  1  0.106239  0  0.107894  0.110152  0  1.04663  0
H  H79  1  0.96855026  0.69941806  0.85632678  1  0.106441  0  0.107868  0.110098  0  1.046683  0
H  H80  1  0.78621870  0.69112731  0.33781258  1  0.135219  0  0.117094  0.087773  0  1.032313  0
H  H81  1  0.21378853  0.19112487  0.16218782  1  0.135229  0  0.117041  0.087662  0  1.032401  0
H  H82  1  0.21377260  0.30887678  0.66218663  1  0.135213  0  0.117069  0.087743  0  1.032324  0
H  H83  1  0.78618909  0.80887421  0.83780908  1  0.135329  0  0.116993  0.087646  0  1.032389  0
H  H84  1  0.68182030  0.71729579  0.11431421  1  0.092421  0  0.115978  0.084209  0  1.031972  0
H  H85  1  0.31820173  0.21729692  0.38568616  1  0.092318  0  0.116001  0.084198  0  1.032034  0
H  H86  1  0.31818218  0.28270439  0.88568495  1  0.092424  0  0.115998  0.08421  0  1.031996  0
H  H87  1  0.68177463  0.78270216  0.61430797  1  0.092154  0  0.116005  0.08409  0  1.032166  0
H  H88  1  0.85944596  0.82930323  0.12199133  1  0.085056  0  0.105331  0.107986  0  1.044378  0
H  H89  1  0.14058305  0.32930792  0.37801008  1  0.084974  0  0.105321  0.107939  0  1.044475  0
H  H90  1  0.14057389  0.17069640  0.87800409  1  0.085145  0  0.105321  0.108019  0  1.0444  0
H  H91  1  0.85940204  0.67069227  0.62198909  1  0.084909  0  0.105311  0.107923  0  1.044434  0
H  H92  1  0.63815220  0.33965344  0.39148755  1  0.450587  0  0.327906  0.283891  0  0.92213  0
H  H93  1  0.36186069  0.83965390  0.10852578  1  0.450941  0  0.327959  0.283977  0  0.922064  0
H  H94  1  0.36183173  0.66034619  0.60852427  1  0.450916  0  0.327993  0.283973  0  0.921976  0
H  H95  1  0.63816166  0.16034462  0.89147252  1  0.451  0  0.327887  0.283963  0  0.922056  0
H  H96  1  0.23663911  0.13068624  0.46159715  1  0.531108  0  0.305868  0.283282  0  1.014285  0
H  H97  1  0.76335843  0.63069265  0.03840080  1  0.53124  0  0.305884  0.28323  0  1.014327  0
H  H98  1  0.76335097  0.86930446  0.53840407  1  0.531242  0  0.305886  0.283262  0  1.014336  0
H  H99  1  0.23663909  0.36930754  0.96159844  1  0.53128  0  0.305892  0.283221  0  1.01432  0
C  C100  1  0.55510349  0.14764080  0.14978634  1  1.559029  0  0.203878  0.638258  0  4.144711  0
C  C101  1  0.44490888  0.64763778  0.35021203  1  1.558722  0  0.203825  0.638099  0  4.144535  0
C  C102  1  0.44489897  0.85236943  0.85020910  1  1.558885  0  0.203793  0.638043  0  4.144784  0
C  C103  1  0.55511343  0.35236129  0.64977829  1  1.55884  0  0.203929  0.638296  0  4.144794  0
C  C104  1  0.70202490  0.18725924  0.20040377  1  -0.061011  0  -0.16647  -0.331235  0  3.957749  0
C  C105  1  0.29798738  0.68726212  0.29960662  1  -0.0606  0  -0.166522  -0.331295  0  3.957616  0
C  C106  1  0.29796765  0.81275099  0.79959608  1  -0.062227  0  -0.16659  -0.33154  0  3.957833  0
C  C107  1  0.70202383  0.31273695  0.70039705  1  -0.06124  0  -0.166569  -0.331346  0  3.957814  0
C  C108  1  0.64988183  0.24968376  0.24383702  1  0.078788  0  -0.042639  -0.007436  0  4.03243  0
C  C109  1  0.35012893  0.74968839  0.25617110  1  0.078414  0  -0.042643  -0.007388  0  4.032047  0
C  C110  1  0.35010700  0.75031922  0.75616409  1  0.078847  0  -0.042615  -0.007194  0  4.031931  0
C  C111  1  0.64988102  0.25031180  0.74383086  1  0.078858  0  -0.042614  -0.007322  0  4.032297  0
C  C112  1  0.69424560  0.25815104  0.31850074  1  0.24839  0  0.002402  -0.049141  0  3.95389  0
C  C113  1  0.30574898  0.75816063  0.18150918  1  0.248427  0  0.002424  -0.049144  0  3.954276  0
C  C114  1  0.30573332  0.74184524  0.68150479  1  0.249021  0  0.002348  -0.04922  0  3.954302  0
C  C115  1  0.69426220  0.24184067  0.81848970  1  0.248788  0  0.002463  -0.048959  0  3.954327  0
C  C116  1  0.52974134  0.35662209  0.27869421  1  0.341184  0  0.083346  0.166348  0  4.04327  0
C  C117  1  0.47029257  0.85661951  0.22131320  1  0.340044  0  0.083439  0.166115  0  4.043774  0
C  C118  1  0.47025621  0.64337810  0.72131088  1  0.324622  0  0.083383  0.166306  0  4.043549  0
C  C119  1  0.52973603  0.14337845  0.77868939  1  0.324591  0  0.083384  0.166268  0  4.043625  0
C  C120  1  0.43335991  0.42137034  0.27228603  1  -0.043545  0  -0.105282  -0.187883  0  4.028256  0
C  C121  1  0.56667870  0.92136599  0.22772235  1  -0.043051  0  -0.105277  -0.187687  0  4.028512  0
C  C122  1  0.56663269  0.57863263  0.72772233  1  -0.026849  0  -0.105125  -0.187794  0  4.028499  0
C  C123  1  0.43336109  0.07862918  0.77228072  1  -0.026764  0  -0.105263  -0.187799  0  4.028421  0
C  C124  1  0.35256024  0.44272156  0.20261047  1  -0.058006  0  -0.11182  -0.103006  0  4.070342  0
C  C125  1  0.64748573  0.94271940  0.29739822  1  -0.058011  0  -0.111932  -0.103172  0  4.070491  0
C  C126  1  0.64744355  0.55728141  0.79739943  1  -0.058255  0  -0.112028  -0.103264  0  4.07029  0
C  C127  1  0.35253790  0.05727744  0.70260604  1  -0.058566  0  -0.112  -0.103442  0  4.070543  0
C  C128  1  0.36881435  0.40100990  0.14104207  1  -0.093749  0  -0.114874  -0.11396  0  4.057335  0
C  C129  1  0.63123057  0.90101168  0.35896830  1  -0.094323  0  -0.114828  -0.113951  0  4.05759  0
C  C130  1  0.63118695  0.59899809  0.85896654  1  -0.094278  0  -0.114878  -0.113698  0  4.057191  0
C  C131  1  0.36878560  0.09899186  0.64103475  1  -0.093888  0  -0.115023  -0.11408  0  4.057712  0
C  C132  1  0.46398654  0.33621146  0.14740061  1  -0.010075  0  -0.101617  -0.126703  0  4.003877  0
C  C133  1  0.53605242  0.83621444  0.35260709  1  -0.008498  0  -0.101685  -0.126582  0  4.003378  0
C  C134  1  0.53601226  0.66379542  0.85260512  1  -0.01008  0  -0.10168  -0.12687  0  4.003714  0
C  C135  1  0.46395380  0.16379021  0.64739347  1  -0.008682  0  -0.101476  -0.126319  0  4.003435  0
C  C136  1  0.54597117  0.31263948  0.21701358  1  -0.045309  0  -0.02913  -0.032499  0  4.022005  0
C  C137  1  0.45405795  0.81263750  0.28299302  1  -0.045736  0  -0.029287  -0.032555  0  4.02179  0
C  C138  1  0.45403256  0.68736628  0.78298675  1  -0.044688  0  -0.029098  -0.032486  0  4.021791  0
C  C139  1  0.54595822  0.18736158  0.71700898  1  -0.046067  0  -0.029212  -0.032602  0  4.021725  0
C  C140  1  0.55880278  0.09786359  0.42379487  1  1.542794  0  0.212765  0.639842  0  4.130086  0
C  C141  1  0.44119120  0.59787199  0.07620885  1  1.542448  0  0.212609  0.6397  0  4.130107  0
C  C142  1  0.44119356  0.90213269  0.57621595  1  1.542475  0  0.212675  0.639688  0  4.130297  0
C  C143  1  0.55879637  0.40212931  0.92378842  1  1.542364  0  0.212616  0.639734  0  4.130279  0
C  C144  1  0.69725159  0.08909454  0.49106433  1  0.011402  0  -0.158884  -0.319808  0  3.973424  0
C  C145  1  0.30274990  0.58909697  0.00894213  1  0.011503  0  -0.158743  -0.319787  0  3.973557  0
C  C146  1  0.30275470  0.91090341  0.50894740  1  0.011558  0  -0.158711  -0.31969  0  3.973367  0
C  C147  1  0.69724510  0.41089987  0.99105263  1  0.011763  0  -0.158676  -0.319811  0  3.973735  0
C  C148  1  0.85907953  0.12486404  0.48751680  1  0.019777  0  -0.048657  -0.010651  0  4.064974  0
C  C149  1  0.14092178  0.62486398  0.01248623  1  0.019834  0  -0.048655  -0.010602  0  4.065295  0
C  C150  1  0.14091180  0.87513224  0.51248773  1  0.019702  0  -0.048793  -0.01108  0  4.065195  0
C  C151  1  0.85907072  0.37513398  0.98750565  1  0.019863  0  -0.048723  -0.010768  0  4.065471  0
C  C152  1  0.99535597  0.09188157  0.46810340  1  0.330011  0  -0.001201  -0.059363  0  3.966375  0
C  C153  1  0.00464545  0.59188191  0.03189457  1  0.330119  0  -0.001319  -0.059577  0  3.96667  0
C  C154  1  0.00462540  0.90811025  0.53189756  1  0.330251  0  -0.00122  -0.059253  0  3.966622  0
C  C155  1  0.99535326  0.40811549  0.96809627  1  0.329719  0  -0.001264  -0.05937  0  3.966495  0
C  C156  1  0.07089602  0.21068331  0.49375584  1  0.314465  0  0.085217  0.165672  0  4.037773  0
C  C157  1  0.92911109  0.71068302  0.00623834  1  0.314759  0  0.085255  0.165704  0  4.03789  0
C  C158  1  0.92909526  0.78931130  0.50624018  1  0.314757  0  0.085367  0.165658  0  4.038086  0
C  C159  1  0.07088270  0.28931549  0.99376162  1  0.314248  0  0.085305  0.165689  0  4.037893  0
C  C160  1  0.15582232  0.27861039  0.50718768  1  -0.043422  0  -0.101821  -0.186441  0  4.008867  0
C  C161  1  0.84418921  0.77861250  0.99281017  1  -0.043496  0  -0.101762  -0.186354  0  4.008813  0
C  C162  1  0.84417642  0.72138589  0.49280954  1  -0.043546  0  -0.101918  -0.186508  0  4.009083  0
C  C163  1  0.15580585  0.22138658  0.00719363  1  0.001151  0  -0.101781  -0.186289  0  4.008956  0
C  C164  1  0.06785227  0.33946323  0.52577998  1  -0.082945  0  -0.110852  -0.109046  0  4.077544  0
C  C165  1  0.93215652  0.83946112  0.97421866  1  -0.082699  0  -0.110907  -0.10917  0  4.077754  0
C  C166  1  0.93213903  0.66053472  0.47421923  1  -0.082872  0  -0.110872  -0.109077  0  4.077596  0
C  C167  1  0.06784474  0.16053851  0.02578410  1  -0.082226  0  -0.110842  -0.109177  0  4.077917  0
C  C168  1  0.90063269  0.33257334  0.53239345  1  -0.034914  0  -0.116103  -0.129448  0  4.076014  0
C  C169  1  0.09936864  0.83257364  0.96759914  1  -0.034184  0  -0.116078  -0.129383  0  4.07589  0
C  C170  1  0.09936108  0.66742127  0.46760226  1  -0.034791  0  -0.116046  -0.129384  0  4.075669  0
C  C171  1  0.90062267  0.16742321  0.03240113  1  -0.034349  0  -0.116169  -0.129431  0  4.075589  0
C  C172  1  0.81806271  0.26432448  0.52177158  1  -0.117391  0  -0.105938  -0.136127  0  4.017923  0
C  C173  1  0.18194140  0.76432363  0.97822282  1  -0.117998  0  -0.105981  -0.136294  0  4.017915  0
C  C174  1  0.18194227  0.73567236  0.47822940  1  -0.117175  0  -0.105941  -0.136351  0  4.017681  0
C  C175  1  0.81804612  0.23567545  0.02176860  1  -0.118003  0  -0.105886  -0.136203  0  4.017875  0
C  C176  1  0.90312410  0.20186379  0.50255081  1  -0.052531  0  -0.033461  -0.047585  0  4.052868  0
C  C177  1  0.09688528  0.70186158  0.99744885  1  -0.052739  0  -0.033429  -0.047456  0  4.052861  0
C  C178  1  0.09686348  0.79813249  0.49745071  1  -0.052168  0  -0.033446  -0.047236  0  4.052555  0
C  C179  1  0.90311096  0.29813581  0.00254496  1  -0.052562  0  -0.033504  -0.047487  0  4.05294  0
C  C180  1  0.22064839  0.98116981  0.32419147  1  0.454456  0  0.047829  0.09141  0  3.93969  0
C  C181  1  0.77938248  0.48117438  0.17581087  1  0.455066  0  0.047917  0.091852  0  3.93931  0
C  C182  1  0.77935035  0.01883093  0.67580363  1  0.454637  0  0.04792  0.091704  0  3.939648  0
C  C183  1  0.22062375  0.51883473  0.82419076  1  0.455148  0  0.047798  0.091523  0  3.939467  0
C  C184  1  0.11751172  0.91935739  0.31754992  1  0.005353  0  -0.074268  -0.154307  0  3.9166  0
C  C185  1  0.88249950  0.41935962  0.18244905  1  0.053492  0  -0.07428  -0.154363  0  3.916562  0
C  C186  1  0.88248700  0.08064336  0.68244305  1  0.054024  0  -0.074371  -0.15463  0  3.916784  0
C  C187  1  0.11749056  0.58064559  0.81755057  1  0.053201  0  -0.0742  -0.154206  0  3.916664  0
C  C188  1  0.04051278  0.89295179  0.24848097  1  0.0072  0  0.020532  0.111621  0  3.948437  0
C  C189  1  0.95950725  0.39295286  0.25151751  1  -0.041128  0  0.020566  0.111754  0  3.948251  0
C  C190  1  0.95950956  0.10704561  0.75151414  1  -0.041468  0  0.020537  0.111753  0  3.948556  0
C  C191  1  0.04047909  0.60705123  0.74848284  1  -0.0406  0  0.020505  0.111715  0  3.948488  0
C  C192  1  0.07195374  0.93285982  0.18840599  1  -0.038431  0  -0.077218  -0.161515  0  3.92259  0
C  C193  1  0.92805495  0.43285870  0.31159445  1  -0.037816  0  -0.077187  -0.161521  0  3.922569  0
C  C194  1  0.92807604  0.06713033  0.81158714  1  -0.037528  0  -0.077183  -0.161602  0  3.92219  0
C  C195  1  0.07192642  0.56714037  0.68840651  1  -0.037982  0  -0.077302  -0.161651  0  3.92256  0
C  C196  1  0.17721412  0.99420268  0.19927349  1  0.432914  0  0.049805  0.094607  0  3.933104  0
C  C197  1  0.82280675  0.49420554  0.30072858  1  0.432918  0  0.049776  0.094614  0  3.933179  0
C  C198  1  0.82281441  0.00578635  0.80071793  1  0.432341  0  0.049777  0.094718  0  3.93236  0
C  C199  1  0.17718831  0.50579576  0.69927469  1  0.433159  0  0.049789  0.094645  0  3.933066  0
C  C200  1  0.93280612  0.82628601  0.24036400  1  -0.072447  0  0.01896  0.104492  0  3.957784  0
C  C201  1  0.06720178  0.32628415  0.25963601  1  -0.073173  0  0.018904  0.10425  0  3.958014  0
C  C202  1  0.06721126  0.17371250  0.75963226  1  -0.072881  0  0.018975  0.104436  0  3.957969  0
C  C203  1  0.93277835  0.67371659  0.74036537  1  -0.073701  0  0.018798  0.104031  0  3.958301  0
C  C204  1  0.90950570  0.78537859  0.30103399  1  0.004193  0  -0.069932  -0.141619  0  3.906936  0
C  C205  1  0.09051106  0.28537669  0.19896542  1  0.004789  0  -0.069996  -0.141569  0  3.907477  0
C  C206  1  0.09050297  0.21462271  0.69896148  1  0.003943  0  -0.070017  -0.141716  0  3.907298  0
C  C207  1  0.90946780  0.71462461  0.80103106  1  0.004797  0  -0.069949  -0.141621  0  3.907734  0
C  C208  1  0.80750563  0.72314509  0.29142368  1  0.468537  0  0.051172  0.100916  0  3.923074  0
C  C209  1  0.19250150  0.22314367  0.20858123  1  0.468467  0  0.051155  0.100874  0  3.92375  0
C  C210  1  0.19248817  0.27685677  0.70857628  1  0.468922  0  0.051283  0.101074  0  3.923403  0
C  C211  1  0.80747612  0.77685652  0.79141567  1  0.467665  0  0.051302  0.101121  0  3.923612  0
C  C212  1  0.74881490  0.73825260  0.16649761  1  0.474279  0  0.043603  0.094377  0  3.953522  0
C  C213  1  0.25120333  0.23825335  0.33350472  1  0.474398  0  0.043544  0.094354  0  3.953637  0
C  C214  1  0.25118511  0.26174758  0.83350292  1  0.47449  0  0.043614  0.094496  0  3.953452  0
C  C215  1  0.74878050  0.76174516  0.66649062  1  0.474299  0  0.043513  0.09443  0  3.953627  0
C  C216  1  0.84851868  0.80106665  0.17190245  1  0.065218  0  -0.079788  -0.163335  0  3.938679  0
C  C217  1  0.15150675  0.30107198  0.32810212  1  0.064846  0  -0.079701  -0.163215  0  3.938606  0
C  C218  1  0.15149374  0.19893074  0.82809548  1  0.06464  0  -0.079792  -0.163411  0  3.938723  0
C  C219  1  0.84847834  0.69892877  0.67189705  1  0.065457  0  -0.079665  -0.163064  0  3.938359  0
N  N220  1  0.62238769  0.32183810  0.33933227  1  -1.248533  0  -0.39836  -0.270331  0  3.701597  0
N  N221  1  0.37762153  0.82184013  0.16067792  1  -1.248513  0  -0.398289  -0.270157  0  3.701831  0
N  N222  1  0.37759497  0.67816097  0.66067625  1  -1.249233  0  -0.398469  -0.270412  0  3.701761  0
N  N223  1  0.62240332  0.17815727  0.83932114  1  -1.24888  0  -0.398309  -0.27037  0  3.702017  0
N  N224  1  0.12186787  0.14293734  0.47209297  1  -1.308747  0  -0.403295  -0.268427  0  3.694609  0
N  N225  1  0.87813581  0.64293789  0.02790298  1  -1.309326  0  -0.403373  -0.268477  0  3.694903  0
N  N226  1  0.87811719  0.85705504  0.52790142  1  -1.30957  0  -0.403387  -0.268422  0  3.69498  0
N  N227  1  0.12186792  0.35705839  0.97209575  1  -1.309196  0  -0.403363  -0.268443  0  3.694632  0
N  N228  1  0.25141404  0.01825783  0.26615559  1  -1.245601  0  -0.328614  -0.226625  0  3.569286  0
N  N229  1  0.74860015  0.51825603  0.23384717  1  -1.246408  0  -0.328666  -0.226994  0  3.569244  0
N  N230  1  0.74857971  0.98174068  0.73383639  1  -1.245775  0  -0.328715  -0.226996  0  3.569225  0
N  N231  1  0.25139988  0.48174806  0.76615814  1  -1.246567  0  -0.328633  -0.22683  0  3.569181  0
N  N232  1  0.72867269  0.69926588  0.22526076  1  -1.272774  0  -0.334846  -0.241425  0  3.603863  0
N  N233  1  0.27134568  0.19926885  0.27473859  1  -1.272682  0  -0.334723  -0.241192  0  3.604089  0
N  N234  1  0.27131488  0.30073542  0.77473704  1  -1.272898  0  -0.334874  -0.241556  0  3.603931  0
N  N235  1  0.72863565  0.80073190  0.72525599  1  -1.272105  0  -0.334709  -0.241263  0  3.604087  0
O  O236  1  0.46069609  0.10509924  0.18043295  1  -1.201001  0  -0.35571  -0.603315  0  2.360701  0
O  O237  1  0.53931650  0.60510025  0.31957252  1  -1.200954  0  -0.355612  -0.603083  0  2.361009  0
O  O238  1  0.53931884  0.89489983  0.81956999  1  -1.200896  0  -0.355597  -0.603087  0  2.36119  0
O  O239  1  0.46068600  0.39489381  0.68042982  1  -1.200605  0  -0.355764  -0.603417  0  2.360561  0
O  O240  1  0.53195010  0.15616995  0.08284995  1  -1.161992  0  -0.335347  -0.558283  0  2.093335  0
O  O241  1  0.46806855  0.65616081  0.41716501  1  -1.161987  0  -0.335421  -0.558398  0  2.092605  0
O  O242  1  0.46806487  0.84383136  0.91715831  1  -1.161912  0  -0.335371  -0.558303  0  2.092764  0
O  O243  1  0.53195760  0.34383380  0.58284427  1  -1.162288  0  -0.335293  -0.558247  0  2.093656  0
O  O244  1  0.60247135  0.10055751  0.36209889  1  -1.158934  0  -0.317041  -0.538335  0  2.358116  0
O  O245  1  0.39753878  0.60056711  0.13790738  1  -1.158843  0  -0.316972  -0.538194  0  2.358068  0
O  O246  1  0.39750137  0.89944714  0.63790979  1  -1.158882  0  -0.316988  -0.538254  0  2.358085  0
O  O247  1  0.60245748  0.39943252  0.86208961  1  -1.158657  0  -0.31698  -0.538228  0  2.357982  0
O  O248  1  0.40980118  0.09934388  0.43073140  1  -1.205525  0  -0.327389  -0.588295  0  2.221112  0
O  O249  1  0.59020400  0.59934806  0.06927654  1  -1.205316  0  -0.3274  -0.588284  0  2.220925  0
O  O250  1  0.59019014  0.90064794  0.56927152  1  -1.205269  0  -0.327383  -0.588165  0  2.221078  0
O  O251  1  0.40979725  0.40065658  0.93072410  1  -1.205483  0  -0.327409  -0.588292  0  2.221113  0
