# generated using pymatgen
data_CuH8C9SN5O2
_symmetry_space_group_name_H-M   'P 1'
_cell_length_a   5.79624913
_cell_length_b   5.79622981
_cell_length_c   17.01938422
_cell_angle_alpha   89.99878576
_cell_angle_beta   90.00077537
_cell_angle_gamma   101.67150673
_symmetry_Int_Tables_number   1
_chemical_formula_structural   CuH8C9SN5O2
_chemical_formula_sum   'Cu2 H16 C18 S2 N10 O4'
_cell_volume   559.96731047
_cell_formula_units_Z   2
loop_
 _symmetry_equiv_pos_site_id
 _symmetry_equiv_pos_as_xyz
  1  'x, y, z'
loop_
 _atom_site_type_symbol
 _atom_site_label
 _atom_site_symmetry_multiplicity
 _atom_site_fract_x
 _atom_site_fract_y
 _atom_site_fract_z
 _atom_site_occupancy
 _atom_site_hle17_bader_spin_density
 _atom_site_hle17_ddec_charge
 _atom_site_hle17_ddec_spin_density
 _atom_site_hle17_ddec_sum_bond_order
 _atom_site_hle17_magmom
 _atom_site_hse06_10hf_bader_spin_density
 _atom_site_hse06_10hf_ddec_charge
 _atom_site_hse06_10hf_ddec_spin_density
 _atom_site_hse06_10hf_ddec_sum_bond_order
 _atom_site_hse06_10hf_magmom
 _atom_site_hse06_bader_spin_density
 _atom_site_hse06_ddec_charge
 _atom_site_hse06_ddec_spin_density
 _atom_site_hse06_ddec_sum_bond_order
 _atom_site_hse06_magmom
 _atom_site_pbe_bader_spin_density
 _atom_site_pbe_cm5_charge
 _atom_site_pbe_ddec_charge
 _atom_site_pbe_ddec_spin_density
 _atom_site_pbe_ddec_sum_bond_order
 _atom_site_pbe_magmom
Cu  Cu0  1  0.79257557  0.18618358  0.24999920  1  0  0.451577  0  2.13102  0  0  0.347711  0  2.645499  0  0  0.340817  0  2.606305  0  0  0.519304  0.356898  0  2.668528  0
Cu  Cu1  1  0.18618425  0.79256942  0.75000524  1  0  0.451533  0  2.131221  0  0  0.347648  0  2.645685  0  0  0.340769  0  2.60653  0  0  0.519322  0.356843  0  2.668713  0
H  H2  1  0.77951505  0.80037587  0.12757515  1  0  0.075499  0  0.943966  0  0  0.086266  0  1.004569  0  0  0.087936  0  1.002021  0  0  0.133846  0.084891  0  1.006496  0
H  H3  1  0.80038873  0.77950942  0.87241541  1  0  0.07533  0  0.944011  0  0  0.086237  0  1.004478  0  0  0.087914  0  1.001916  0  0  0.133831  0.084859  0  1.006411  0
H  H4  1  0.80036133  0.77947006  0.62758223  1  0  0.075521  0  0.943779  0  0  0.086416  0  1.004271  0  0  0.088092  0  1.001722  0  0  0.133837  0.085038  0  1.0062  0
H  H5  1  0.77950118  0.80037081  0.37241480  1  0  0.0755  0  0.943895  0  0  0.086336  0  1.004413  0  0  0.088007  0  1.001866  0  0  0.133898  0.08496  0  1.006341  0
H  H6  1  0.68559495  0.03942717  0.96233189  1  0  0.321785  0  0.92662  0  0  0.297289  0  0.994315  0  0  0.307861  0  0.985767  0  0  0.306483  0.289884  0  1.000321  0
H  H7  1  0.03943969  0.68559840  0.03766330  1  0  0.321736  0  0.926686  0  0  0.297185  0  0.994468  0  0  0.307752  0  0.985929  0  0  0.306465  0.289779  0  1.000472  0
H  H8  1  0.03942408  0.68558316  0.46233319  1  0  0.321662  0  0.926776  0  0  0.297192  0  0.994406  0  0  0.307761  0  0.985865  0  0  0.306494  0.289787  0  1.00041  0
H  H9  1  0.68557650  0.03940862  0.53766612  1  0  0.321776  0  0.926533  0  0  0.297332  0  0.994186  0  0  0.307901  0  0.985638  0  0  0.306481  0.289926  0  1.000191  0
H  H10  1  0.53522355  0.32592822  0.07407075  1  0  0.149956  0  0.945598  0  0  0.155876  0  1.007018  0  0  0.160985  0  1.004329  0  0  0.113323  0.152144  0  1.009339  0
H  H11  1  0.32593153  0.53524824  0.92592789  1  0  0.149977  0  0.945275  0  0  0.155853  0  1.006779  0  0  0.160962  0  1.004095  0  0  0.113317  0.152129  0  1.009089  0
H  H12  1  0.32589927  0.53523459  0.57407968  1  0  0.149748  0  0.945681  0  0  0.155671  0  1.007091  0  0  0.160778  0  1.004411  0  0  0.113213  0.151978  0  1.009369  0
H  H13  1  0.53522656  0.32591518  0.42593483  1  0  0.149954  0  0.945428  0  0  0.155855  0  1.006897  0  0  0.160963  0  1.004211  0  0  0.11334  0.152147  0  1.009193  0
H  H14  1  0.23914428  0.44043901  0.16610143  1  0  0.077888  0  0.947135  0  0  0.085636  0  1.014212  0  0  0.087887  0  1.011767  0  0  0.110803  0.083853  0  1.016066  0
H  H15  1  0.44044829  0.23915702  0.83389556  1  0  0.077873  0  0.94715  0  0  0.085649  0  1.014208  0  0  0.087889  0  1.011755  0  0  0.11083  0.083864  0  1.016062  0
H  H16  1  0.44040975  0.23914532  0.66610923  1  0  0.077823  0  0.947226  0  0  0.085562  0  1.014331  0  0  0.087808  0  1.011888  0  0  0.110784  0.083781  0  1.016177  0
H  H17  1  0.23915770  0.44042757  0.33389539  1  0  0.077938  0  0.947165  0  0  0.085672  0  1.014269  0  0  0.08792  0  1.011823  0  0  0.110801  0.083887  0  1.016123  0
C  C18  1  0.59812030  0.63890373  0.24999736  1  0  0.239636  0  4.054622  0  0  0.232414  0  4.351213  0  0  0.248092  0  4.36598  0  0  0.123306  0.222176  0  4.340688  0
C  C19  1  0.63890092  0.59817090  0.75000105  1  0  0.239914  0  4.055135  0  0  0.23268  0  4.351702  0  0  0.248357  0  4.366465  0  0  0.123455  0.222448  0  4.341173  0
C  C20  1  0.94839468  0.91915577  0.11811838  1  0  0.338586  0  3.667327  0  0  0.273995  0  3.93887  0  0  0.293693  0  3.947048  0  0  0.190921  0.260976  0  3.933469  0
C  C21  1  0.91919436  0.94839236  0.88187788  1  0  0.33875  0  3.667149  0  0  0.274123  0  3.938646  0  0  0.293826  0  3.946828  0  0  0.190926  0.261104  0  3.933243  0
C  C22  1  0.91914827  0.94840076  0.61812216  1  0  0.338426  0  3.666978  0  0  0.273746  0  3.938525  0  0  0.293439  0  3.946708  0  0  0.190822  0.260731  0  3.933116  0
C  C23  1  0.94839292  0.91916792  0.38187763  1  0  0.338622  0  3.667046  0  0  0.27401  0  3.93855  0  0  0.29371  0  3.946728  0  0  0.190906  0.260993  0  3.933147  0
C  C24  1  0.31945544  0.98018912  0.05046671  1  0  0.568014  0  3.860661  0  0  0.522941  0  4.146982  0  0  0.552065  0  4.150194  0  0  0.224431  0.503546  0  4.144219  0
C  C25  1  0.98021225  0.31943650  0.94953166  1  0  0.568016  0  3.860103  0  0  0.522747  0  4.146702  0  0  0.551874  0  4.149919  0  0  0.224352  0.503349  0  4.143942  0
C  C26  1  0.98014995  0.31943081  0.55048021  1  0  0.568227  0  3.860294  0  0  0.522816  0  4.147133  0  0  0.551934  0  4.150344  0  0  0.224425  0.503422  0  4.144381  0
C  C27  1  0.31941952  0.98019543  0.44953814  1  0  0.568176  0  3.859886  0  0  0.522832  0  4.146603  0  0  0.551962  0  4.149812  0  0  0.224501  0.503434  0  4.143847  0
C  C28  1  0.36829092  0.20765756  0.08692365  1  0  -0.293119  0  3.678801  0  0  -0.307926  0  3.939105  0  0  -0.323814  0  3.956896  0  0  -0.097029  -0.298046  0  3.927871  0
C  C29  1  0.20764520  0.36828726  0.91307164  1  0  -0.293221  0  3.678652  0  0  -0.307873  0  3.938972  0  0  -0.323765  0  3.956755  0  0  -0.09697  -0.297999  0  3.927736  0
C  C30  1  0.20764425  0.36826448  0.58692764  1  0  -0.292874  0  3.678583  0  0  -0.307491  0  3.938848  0  0  -0.323375  0  3.956642  0  0  -0.09683  -0.29765  0  3.927587  0
C  C31  1  0.36828970  0.20763286  0.41307940  1  0  -0.293123  0  3.678762  0  0  -0.307821  0  3.939166  0  0  -0.323709  0  3.956949  0  0  -0.09698  -0.297963  0  3.927922  0
C  C32  1  0.20612047  0.26886898  0.13722727  1  0  0.189014  0  3.672782  0  0  0.15422  0  3.929013  0  0  0.166211  0  3.94349  0  0  0.04553  0.146395  0  3.919655  0
C  C33  1  0.26888363  0.20610490  0.86277219  1  0  0.189106  0  3.672538  0  0  0.154269  0  3.928718  0  0  0.166291  0  3.943164  0  0  0.04544  0.146435  0  3.91938  0
C  C34  1  0.26885332  0.20611244  0.63724112  1  0  0.188963  0  3.673058  0  0  0.154118  0  3.929216  0  0  0.166115  0  3.943683  0  0  0.045431  0.146296  0  3.919873  0
C  C35  1  0.20612133  0.26886989  0.36277362  1  0  0.188996  0  3.672449  0  0  0.154187  0  3.928641  0  0  0.166189  0  3.943102  0  0  0.04551  0.146356  0  3.919304  0
S  S36  1  0.47047026  0.86598156  0.24999780  1  0  -0.348783  0  2.392651  0  0  -0.331043  0  2.775354  0  0  -0.339723  0  2.764504  0  0  -0.179227  -0.325087  0  2.781887  0
S  S37  1  0.86594474  0.47048895  0.75000290  1  0  -0.349023  0  2.3923  0  0  -0.331355  0  2.775117  0  0  -0.340046  0  2.764268  0  0  -0.179337  -0.325396  0  2.78165  0
N  N38  1  0.69014637  0.47376013  0.24999655  1  0  -0.515517  0  3.169885  0  0  -0.473749  0  3.518741  0  0  -0.479977  0  3.513388  0  0  -0.452733  -0.470248  0  3.521153  0
N  N39  1  0.47378146  0.69016191  0.74999897  1  0  -0.515375  0  3.17065  0  0  -0.473617  0  3.519458  0  0  -0.479851  0  3.514124  0  0  -0.452707  -0.470116  0  3.521867  0
N  N40  1  0.99520672  0.12289494  0.15548437  1  0  -0.365135  0  3.298705  0  0  -0.300688  0  3.610379  0  0  -0.315654  0  3.614832  0  0  -0.363083  -0.291798  0  3.607496  0
N  N41  1  0.12291524  0.99518383  0.84450236  1  0  -0.365269  0  3.29898  0  0  -0.300819  0  3.610696  0  0  -0.315792  0  3.615155  0  0  -0.363112  -0.291939  0  3.607826  0
N  N42  1  0.12289670  0.99516063  0.65549670  1  0  -0.365181  0  3.298756  0  0  -0.300612  0  3.610359  0  0  -0.31558  0  3.614828  0  0  -0.362994  -0.291731  0  3.60748  0
N  N43  1  0.99519321  0.12289491  0.34450296  1  0  -0.36519  0  3.298646  0  0  -0.300728  0  3.610313  0  0  -0.315692  0  3.614761  0  0  -0.36309  -0.291843  0  3.607436  0
N  N44  1  0.09787397  0.84722999  0.06790955  1  0  -0.403886  0  3.349745  0  0  -0.332139  0  3.583693  0  0  -0.356347  0  3.593184  0  0  -0.363575  -0.316075  0  3.576908  0
N  N45  1  0.84722107  0.09786872  0.93208375  1  0  -0.403868  0  3.349433  0  0  -0.332199  0  3.583545  0  0  -0.356406  0  3.59302  0  0  -0.363514  -0.316134  0  3.576759  0
N  N46  1  0.84722630  0.09788043  0.56790430  1  0  -0.404009  0  3.349865  0  0  -0.332322  0  3.583998  0  0  -0.356538  0  3.593514  0  0  -0.363663  -0.31626  0  3.577212  0
N  N47  1  0.09786431  0.84720416  0.43208724  1  0  -0.403962  0  3.349719  0  0  -0.332182  0  3.583722  0  0  -0.356389  0  3.593201  0  0  -0.363667  -0.31612  0  3.576944  0
O  O48  1  0.45175415  0.89403417  0.00520087  1  0  -0.571999  0  1.947224  0  0  -0.523019  0  2.163586  0  0  -0.545316  0  2.156662  0  0  -0.306939  -0.507517  0  2.167791  0
O  O49  1  0.89400647  0.45177199  0.99479336  1  0  -0.572007  0  1.946197  0  0  -0.522977  0  2.162691  0  0  -0.545279  0  2.15577  0  0  -0.306963  -0.507472  0  2.166892  0
O  O50  1  0.89400998  0.45171855  0.50520455  1  0  -0.571979  0  1.946993  0  0  -0.522897  0  2.163492  0  0  -0.545184  0  2.156567  0  0  -0.306923  -0.507395  0  2.167699  0
O  O51  1  0.45174970  0.89400148  0.49480437  1  0  -0.572006  0  1.946104  0  0  -0.523024  0  2.162649  0  0  -0.545321  0  2.155725  0  0  -0.306991  -0.50752  0  2.166858  0
