# generated using pymatgen
data_DyCuH32C48(NO2)4
_symmetry_space_group_name_H-M   'P 1'
_cell_length_a   15.98194040
_cell_length_b   19.60605559
_cell_length_c   19.60311768
_cell_angle_alpha   80.43248539
_cell_angle_beta   65.95437715
_cell_angle_gamma   65.94766472
_symmetry_Int_Tables_number   1
_chemical_formula_structural   DyCuH32C48(NO2)4
_chemical_formula_sum   'Dy4 Cu4 H128 C192 N16 O32'
_cell_volume   5122.40878518
_cell_formula_units_Z   4
loop_
 _symmetry_equiv_pos_site_id
 _symmetry_equiv_pos_as_xyz
  1  'x, y, z'
loop_
 _atom_site_type_symbol
 _atom_site_label
 _atom_site_symmetry_multiplicity
 _atom_site_fract_x
 _atom_site_fract_y
 _atom_site_fract_z
 _atom_site_occupancy
 _atom_site_pbe_bader_charge
 _atom_site_pbe_bader_spin_density
 _atom_site_pbe_cm5_charge
 _atom_site_pbe_ddec_charge
 _atom_site_pbe_ddec_spin_density
 _atom_site_pbe_ddec_sum_bond_order
 _atom_site_pbe_magmom
Dy  Dy0  1  0.15633580  0.29854572  0.88613916  1  2.120167  0  1.536396  1.943546  0  2.191451  0
Dy  Dy1  1  0.34101682  0.70152450  0.11391798  1  2.118933  0  1.536193  1.944456  0  2.190674  0
Dy  Dy2  1  0.54508268  0.11387505  0.29847337  1  2.120459  0  1.535849  1.943545  0  2.189525  0
Dy  Dy3  1  0.95768158  0.88594128  0.70165601  1  2.121074  0  1.535618  1.943719  0  2.190841  0
Cu  Cu4  1  0.20176128  0.40643950  0.18455111  1  0.731564  0  0.575069  0.266264  0  2.513404  0
Cu  Cu5  1  0.79270879  0.59352079  0.81550954  1  0.729302  0  0.5748  0.266748  0  2.510635  0
Cu  Cu6  1  0.39173928  0.81543009  0.40673768  1  0.729864  0  0.574558  0.266815  0  2.511055  0
Cu  Cu7  1  0.61399126  0.18440123  0.59325585  1  0.730613  0  0.574615  0.266601  0  2.510182  0
H  H8  1  0.81502094  0.42716927  0.06919814  1  0.088428  0  0.100736  0.105033  0  1.020214  0
H  H9  1  0.63531202  0.44993482  0.12403475  1  0.077133  0  0.096852  0.096664  0  1.034285  0
H  H10  1  0.86554760  0.26804088  0.91663091  1  0.105737  0  0.11154  0.11964  0  0.986547  0
H  H11  1  0.68512313  0.29191758  0.96899037  1  0.06439  0  0.101581  0.101156  0  1.008762  0
H  H12  1  0.48130760  0.50262070  0.10235738  1  0.092096  0  0.114115  0.118523  0  1.019769  0
H  H13  1  0.30770166  0.51368769  0.14899489  1  0.153593  0  0.121705  0.104572  0  1.018843  0
H  H14  1  0.57042336  0.26550799  0.07544873  1  0.105578  0  0.113388  0.122429  0  1.003579  0
H  H15  1  0.39367055  0.28565290  0.12305752  1  0.10494  0  0.11277  0.080868  0  1.040315  0
H  H16  1  0.38493332  0.41853877  0.76085243  1  0.115563  0  0.099112  0.096636  0  1.056392  0
H  H17  1  0.52291368  0.45619868  0.74534511  1  0.052765  0  0.096259  0.092226  0  1.018889  0
H  H18  1  0.32391861  0.38494682  0.99563072  1  0.092485  0  0.104167  0.101483  0  1.027496  0
H  H19  1  0.46004952  0.42320761  0.98141597  1  0.090116  0  0.097608  0.092746  0  1.073272  0
H  H20  1  0.68508837  0.41385580  0.74850635  1  0.051599  0  0.105636  0.11154  0  0.999584  0
H  H21  1  0.80859873  0.46451245  0.73930568  1  0.080766  0  0.112065  0.077924  0  1.002347  0
H  H22  1  0.50008162  0.52718012  0.96108404  1  0.136069  0  0.113769  0.130808  0  1.0183  0
H  H23  1  0.63275159  0.56774772  0.94638354  1  0.126157  0  0.113484  0.084497  0  1.042032  0
H  H24  1  0.26955034  0.23223051  0.63185529  1  0.096456  0  0.101847  0.102593  0  1.042408  0
H  H25  1  0.28443849  0.25588304  0.49841024  1  0.119867  0  0.104899  0.115334  0  1.020858  0
H  H26  1  0.02252751  0.44048956  0.69738728  1  0.054634  0  0.103237  0.107379  0  1.019477  0
H  H27  1  0.03125878  0.46287961  0.56578427  1  0.061852  0  0.088225  0.082082  0  1.071941  0
H  H28  1  0.32450397  0.34466252  0.39771985  1  0.109788  0  0.113992  0.123942  0  1.006515  0
H  H29  1  0.33112931  0.37218484  0.26832259  1  0.104944  0  0.117697  0.086168  0  1.026683  0
H  H30  1  0.00882528  0.40848858  0.47036095  1  0.070581  0  0.105841  0.11111  0  0.995165  0
H  H31  1  0.02846798  0.43133516  0.33673677  1  0.053495  0  0.111062  0.07352  0  1.008813  0
H  H32  1  0.23347144  0.04111962  0.93658351  1  0.105482  0  0.112866  0.118421  0  0.985124  0
H  H33  1  0.34277855  0.90606772  0.91378952  1  0.076581  0  0.109591  0.116724  0  0.991737  0
H  H34  1  0.48702686  0.10153403  0.83138011  1  0.079596  0  0.098958  0.096373  0  1.056695  0
H  H35  1  0.59802927  0.96721671  0.80751998  1  0.054165  0  0.10395  0.110374  0  1.008438  0
H  H36  1  0.46311347  0.80781886  0.95152850  1  0.124594  0  0.112975  0.124158  0  1.031173  0
H  H37  1  0.58802746  0.68001042  0.93250043  1  0.129997  0  0.112958  0.085813  0  1.060571  0
H  H38  1  0.64655548  0.86457529  0.73574892  1  0.098113  0  0.104348  0.110156  0  1.037629  0
H  H39  1  0.76348385  0.73362219  0.72388893  1  0.092991  0  0.111007  0.079123  0  1.025356  0
H  H40  1  0.31142354  0.57306184  0.93078753  1  0.06714  0  0.100802  0.105077  0  1.022474  0
H  H41  1  0.20943643  0.55016906  0.87589512  1  0.094533  0  0.09664  0.097024  0  1.033283  0
H  H42  1  0.05020171  0.73215765  0.08324840  1  0.115397  0  0.111648  0.11976  0  0.98641  0
H  H43  1  0.94609288  0.70813159  0.03089647  1  0.079647  0  0.101467  0.100003  0  1.00889  0
H  H44  1  0.08636895  0.49745873  0.89757832  1  0.104028  0  0.114449  0.119615  0  1.019095  0
H  H45  1  0.97038958  0.48633506  0.85106096  1  0.139441  0  0.121074  0.103703  0  1.019834  0
H  H46  1  0.91134449  0.73456800  0.92451173  1  0.101574  0  0.113643  0.122997  0  1.00289  0
H  H47  1  0.80233519  0.71435169  0.87695595  1  0.109786  0  0.112654  0.080782  0  1.039178  0
H  H48  1  0.56446248  0.58146271  0.23910558  1  0.076573  0  0.099101  0.097309  0  1.056932  0
H  H49  1  0.72456298  0.54379660  0.25463984  1  0.048196  0  0.09612  0.091345  0  1.019361  0
H  H50  1  0.70465794  0.61488068  0.00430255  1  0.071725  0  0.104429  0.101841  0  1.027789  0
H  H51  1  0.86481611  0.57656174  0.01852837  1  0.093431  0  0.097648  0.092733  0  1.071632  0
H  H52  1  0.84767549  0.58632036  0.25141629  1  0.054146  0  0.105774  0.111216  0  0.999492  0
H  H53  1  0.01260078  0.53564328  0.26066127  1  0.074567  0  0.111696  0.076998  0  1.004725  0
H  H54  1  0.98845748  0.47279871  0.03895329  1  0.13405  0  0.113973  0.13149  0  1.017247  0
H  H55  1  0.14700467  0.43228833  0.05364210  1  0.117611  0  0.113374  0.084171  0  1.042784  0
H  H56  1  0.13372721  0.76799240  0.36843231  1  0.084016  0  0.101881  0.102948  0  1.04287  0
H  H57  1  0.03875068  0.74430775  0.50183185  1  0.108808  0  0.105218  0.115077  0  1.022071  0
H  H58  1  0.16029198  0.55989009  0.30269339  1  0.094268  0  0.103063  0.106619  0  1.019916  0
H  H59  1  0.05968149  0.53749301  0.43423514  1  0.059034  0  0.088345  0.081653  0  1.073358  0
H  H60  1  0.06697075  0.65531907  0.60239835  1  0.104303  0  0.114245  0.124712  0  1.006364  0
H  H61  1  0.97188405  0.62762185  0.73178197  1  0.101848  0  0.118216  0.086973  0  1.026397  0
H  H62  1  0.88741066  0.59188524  0.52973997  1  0.068644  0  0.106089  0.111235  0  0.995244  0
H  H63  1  0.79652174  0.56881723  0.66330962  1  0.074206  0  0.110788  0.07309  0  1.008842  0
H  H64  1  0.21062699  0.95903699  0.06343855  1  0.096986  0  0.113141  0.118525  0  0.985957  0
H  H65  1  0.16219713  0.09410141  0.08616632  1  0.085357  0  0.109631  0.116985  0  0.991097  0
H  H66  1  0.41989236  0.89859690  0.16819333  1  0.081837  0  0.098611  0.095891  0  1.0572  0
H  H67  1  0.37276838  0.03292563  0.19205733  1  0.068572  0  0.103452  0.109323  0  1.007337  0
H  H68  1  0.22242990  0.19230456  0.04833245  1  0.104744  0  0.11297  0.124425  0  1.031135  0
H  H69  1  0.20038344  0.32011336  0.06749873  1  0.131559  0  0.113094  0.085677  0  1.061043  0
H  H70  1  0.24671119  0.13542431  0.26417796  1  0.113422  0  0.104231  0.109813  0  1.037747  0
H  H71  1  0.22109234  0.26632300  0.27604475  1  0.073645  0  0.11077  0.079495  0  1.024363  0
H  H72  1  0.75778584  0.93090755  0.42690023  1  0.100003  0  0.101114  0.10538  0  1.022311  0
H  H73  1  0.91459787  0.87591423  0.44985166  1  0.079869  0  0.096925  0.097409  0  1.032997  0
H  H74  1  0.86681847  0.08336212  0.26786899  1  0.095576  0  0.111529  0.119322  0  0.987555  0
H  H75  1  0.02322716  0.03085680  0.29195469  1  0.054779  0  0.101807  0.101163  0  1.008726  0
H  H76  1  0.01616287  0.89737988  0.50258985  1  0.098992  0  0.114562  0.120168  0  1.018589  0
H  H77  1  0.17864670  0.85074002  0.51373065  1  0.140121  0  0.121455  0.104768  0  1.020582  0
H  H78  1  0.16418603  0.92445637  0.26548651  1  0.098399  0  0.11352  0.122233  0  1.003358  0
H  H79  1  0.32075339  0.87687404  0.28569767  1  0.111282  0  0.112863  0.08108  0  1.039133  0
H  H80  1  0.19669086  0.23909837  0.41843811  1  0.098059  0  0.099427  0.097805  0  1.056205  0
H  H81  1  0.02101546  0.25473442  0.45610246  1  0.051977  0  0.096271  0.092139  0  1.020063  0
H  H82  1  0.29109220  0.00443212  0.38457862  1  0.076285  0  0.104302  0.102114  0  1.026576  0
H  H83  1  0.11664476  0.01877454  0.42280309  1  0.08516  0  0.097317  0.091771  0  1.071414  0
H  H84  1  0.90086358  0.25147639  0.41357465  1  0.077546  0  0.105782  0.111296  0  0.999215  0
H  H85  1  0.72684021  0.26032675  0.46414010  1  0.053204  0  0.11204  0.077551  0  1.003813  0
H  H86  1  0.97306487  0.03894139  0.52697771  1  0.139598  0  0.113878  0.130895  0  1.016949  0
H  H87  1  0.79993010  0.05336238  0.56754945  1  0.113502  0  0.113542  0.084667  0  1.042635  0
H  H88  1  0.49775833  0.36835960  0.23211446  1  0.105888  0  0.101752  0.102421  0  1.043072  0
H  H89  1  0.45951379  0.50174336  0.25569787  1  0.11115  0  0.104714  0.115012  0  1.021958  0
H  H90  1  0.53665426  0.30264443  0.44035252  1  0.095146  0  0.103202  0.107386  0  1.019508  0
H  H91  1  0.50585481  0.43416837  0.46268832  1  0.060649  0  0.088218  0.081542  0  1.072655  0
H  H92  1  0.33072179  0.60233209  0.34480770  1  0.109674  0  0.11432  0.124484  0  1.007736  0
H  H93  1  0.29643492  0.73164540  0.37263581  1  0.102137  0  0.117562  0.085497  0  1.027899  0
H  H94  1  0.58303477  0.52952773  0.40813116  1  0.067134  0  0.105833  0.110557  0  0.995479  0
H  H95  1  0.54036722  0.66306511  0.43134852  1  0.068415  0  0.110741  0.072487  0  1.009542  0
H  H96  1  0.72535169  0.06339561  0.04110648  1  0.09533  0  0.113104  0.119199  0  0.984542  0
H  H97  1  0.75111955  0.08635040  0.90603686  1  0.10593  0  0.109514  0.116756  0  0.990405  0
H  H98  1  0.41138325  0.16835776  0.10140329  1  0.070398  0  0.098922  0.096623  0  1.057477  0
H  H99  1  0.43475691  0.19242735  0.96705224  1  0.083343  0  0.103907  0.109847  0  1.007705  0
H  H100  1  0.72879591  0.04845674  0.80788623  1  0.105628  0  0.112702  0.123952  0  1.031545  0
H  H101  1  0.73194460  0.06741142  0.67997299  1  0.137143  0  0.113342  0.086465  0  1.059264  0
H  H102  1  0.48913745  0.26448537  0.86424156  1  0.085601  0  0.104425  0.11008  0  1.037602  0
H  H103  1  0.50324154  0.27619100  0.73325237  1  0.108423  0  0.110556  0.078521  0  1.025117  0
H  H104  1  0.11567532  0.06893280  0.57297305  1  0.109272  0  0.100864  0.105113  0  1.022099  0
H  H105  1  0.24039620  0.12399750  0.55002385  1  0.050457  0  0.09691  0.097282  0  1.032851  0
H  H106  1  0.21764567  0.91695426  0.73248780  1  0.120012  0  0.111854  0.120335  0  0.986918  0
H  H107  1  0.34560125  0.96949333  0.70839880  1  0.065683  0  0.10141  0.100566  0  1.008098  0
H  H108  1  0.41615678  0.10232483  0.49734004  1  0.091093  0  0.114589  0.119575  0  1.01984  0
H  H109  1  0.54333424  0.14884454  0.48604688  1  0.144813  0  0.12153  0.104293  0  1.019652  0
H  H110  1  0.35406435  0.07577424  0.73449563  1  0.110868  0  0.113619  0.122198  0  1.002517  0
H  H111  1  0.48344476  0.12320513  0.71409815  1  0.10874  0  0.112767  0.080848  0  1.039581  0
H  H112  1  0.85447219  0.76052309  0.58165815  1  0.093379  0  0.099082  0.09684  0  1.056985  0
H  H113  1  0.73180338  0.74495465  0.54423070  1  0.039649  0  0.095835  0.091326  0  1.018863  0
H  H114  1  0.68087362  0.99531309  0.61501886  1  0.075499  0  0.104191  0.101559  0  1.026919  0
H  H115  1  0.55874550  0.98102879  0.57707158  1  0.09268  0  0.097741  0.092748  0  1.072373  0
H  H116  1  0.56589867  0.74832192  0.58678332  1  0.057804  0  0.106053  0.112707  0  0.999558  0
H  H117  1  0.45167338  0.73928455  0.53591743  1  0.081268  0  0.112499  0.078251  0  1.0041  0
H  H118  1  0.53948137  0.96059739  0.47297276  1  0.140659  0  0.114134  0.131209  0  1.017738  0
H  H119  1  0.42148021  0.94612678  0.43225358  1  0.124277  0  0.11361  0.084817  0  1.041466  0
H  H120  1  0.09867490  0.63166854  0.76782078  1  0.091181  0  0.101809  0.10312  0  1.042725  0
H  H121  1  0.21712701  0.49821357  0.74425917  1  0.12005  0  0.10515  0.115442  0  1.02065  0
H  H122  1  0.28036134  0.69720074  0.55961590  1  0.093398  0  0.103175  0.107001  0  1.020264  0
H  H123  1  0.40316238  0.56560116  0.53736173  1  0.063639  0  0.08799  0.081287  0  1.073055  0
H  H124  1  0.27808929  0.39753020  0.65525081  1  0.097504  0  0.114502  0.125317  0  1.00779  0
H  H125  1  0.40092101  0.26823453  0.62731273  1  0.112697  0  0.117689  0.086145  0  1.026252  0
H  H126  1  0.52094520  0.47030897  0.59182064  1  0.071127  0  0.105843  0.110892  0  0.996283  0
H  H127  1  0.63500997  0.33678359  0.56851749  1  0.051591  0  0.110933  0.073615  0  1.007319  0
H  H128  1  0.82953616  0.93670631  0.95922268  1  0.123199  0  0.112742  0.119273  0  0.985984  0
H  H129  1  0.74297597  0.91378258  0.09424205  1  0.105198  0  0.109383  0.116285  0  0.990904  0
H  H130  1  0.68133357  0.83155486  0.89853857  1  0.113884  0  0.098944  0.096276  0  1.056955  0
H  H131  1  0.59404171  0.80764759  0.03284957  1  0.051527  0  0.10385  0.109892  0  1.009936  0
H  H132  1  0.58493121  0.95153150  0.19228664  1  0.129613  0  0.113087  0.124676  0  1.031241  0
H  H133  1  0.47936869  0.93241056  0.32018152  1  0.133033  0  0.11273  0.084873  0  1.060791  0
H  H134  1  0.61718341  0.73578422  0.13559317  1  0.083428  0  0.104625  0.110797  0  1.035403  0
H  H135  1  0.51222081  0.72388054  0.26662072  1  0.081595  0  0.110516  0.079029  0  1.023669  0
C  C136  1  0.95970656  0.32792768  0.95785026  1  1.511789  0  0.187128  0.574535  0  4.216819  0
C  C137  1  0.85084534  0.34588127  0.98994021  1  0.001062  0  -0.01162  -0.017181  0  3.942288  0
C  C138  1  0.78577567  0.39794849  0.04760037  1  0.006867  0  -0.080788  -0.081526  0  3.956589  0
C  C139  1  0.68510982  0.41105356  0.07762822  1  -0.090013  0  -0.090074  -0.129199  0  3.967003  0
C  C140  1  0.81381258  0.30795275  0.96180687  1  -0.086563  0  -0.076349  -0.077122  0  3.959665  0
C  C141  1  0.71362592  0.32099584  0.99164654  1  0.042517  0  -0.088243  -0.131573  0  3.988338  0
C  C142  1  0.64794302  0.37224972  0.05050022  1  -0.044125  0  -0.005407  0.064666  0  4.004502  0
C  C143  1  0.54268425  0.38286295  0.08242302  1  -0.080974  0  0.011839  0.099411  0  3.993908  0
C  C144  1  0.46571482  0.45272173  0.10584355  1  -0.002202  0  -0.078338  -0.171385  0  3.935146  0
C  C145  1  0.36767958  0.45947987  0.13162697  1  0.419087  0  0.044346  0.084065  0  3.915516  0
C  C146  1  0.51495479  0.32183467  0.08939507  1  0.021412  0  -0.077054  -0.160975  0  3.930845  0
C  C147  1  0.41581679  0.33275945  0.11630555  1  0.409856  0  0.039669  0.086901  0  3.947773  0
C  C148  1  0.26461164  0.37710424  0.88531708  1  1.529889  0  0.185483  0.558813  0  4.255132  0
C  C149  1  0.34581596  0.39989310  0.87879459  1  -0.050754  0  -0.015644  -0.031631  0  3.965643  0
C  C150  1  0.40283711  0.41957939  0.80848235  1  0.002429  0  -0.083014  -0.087032  0  3.976275  0
C  C151  1  0.48010821  0.43993480  0.80020939  1  -0.098892  0  -0.090345  -0.133178  0  3.979459  0
C  C152  1  0.36730239  0.40094761  0.94099193  1  -0.072015  0  -0.077148  -0.080775  0  3.958785  0
C  C153  1  0.44372781  0.42232793  0.93294425  1  -0.040162  0  -0.084287  -0.121401  0  3.955485  0
C  C154  1  0.50124859  0.44221920  0.86260793  1  -0.005752  0  -0.002394  0.068564  0  3.986734  0
C  C155  1  0.57984358  0.46710488  0.85539322  1  -0.003335  0  0.008184  0.104238  0  3.985951  0
C  C156  1  0.66920413  0.44983405  0.79266746  1  -0.014543  0  -0.090123  -0.18394  0  3.981  0
C  C157  1  0.73870009  0.47772004  0.78733624  1  0.431998  0  0.030081  0.071737  0  3.991192  0
C  C158  1  0.56814838  0.51005558  0.91157401  1  -0.016949  0  -0.075615  -0.155912  0  3.902714  0
C  C159  1  0.64181473  0.53495034  0.90238258  1  0.409655  0  0.040889  0.094632  0  3.92202  0
C  C160  1  0.14337119  0.32252740  0.74953148  1  1.576022  0  0.186359  0.568754  0  4.231556  0
C  C161  1  0.14580119  0.33503459  0.67169275  1  -0.115082  0  -0.012765  -0.022041  0  3.956701  0
C  C162  1  0.21897382  0.28288486  0.61591736  1  0.007755  0  -0.07942  -0.081685  0  3.963769  0
C  C163  1  0.22671115  0.29605696  0.54208843  1  -0.044446  0  -0.087074  -0.132786  0  3.95152  0
C  C164  1  0.07791017  0.39990791  0.65355122  1  0.02627  0  -0.083966  -0.087701  0  3.972783  0
C  C165  1  0.08314293  0.41196957  0.58025405  1  -0.05043  0  -0.097964  -0.139967  0  3.997455  0
C  C166  1  0.15810344  0.36081412  0.52378992  1  -0.071339  0  -0.008557  0.062895  0  4.005681  0
C  C167  1  0.16530360  0.37541251  0.44593885  1  0.005572  0  0.01304  0.107798  0  3.989652  0
C  C168  1  0.25669782  0.36439204  0.38699437  1  -0.043811  0  -0.071102  -0.1475  0  3.902132  0
C  C169  1  0.26061584  0.38006240  0.31438309  1  0.475364  0  0.04893  0.099886  0  3.919524  0
C  C170  1  0.08161442  0.40053986  0.42705402  1  -0.032646  0  -0.088824  -0.18664  0  3.983031  0
C  C171  1  0.09223906  0.41350257  0.35267118  1  0.470196  0  0.03412  0.070724  0  3.995896  0
C  C172  1  0.28911732  0.15969749  0.89669486  1  1.52726  0  0.182688  0.55603  0  4.246517  0
C  C173  1  0.35407820  0.07899861  0.88489968  1  -0.026706  0  -0.014943  -0.02535  0  3.963937  0
C  C174  1  0.31342225  0.02391350  0.90837841  1  -0.046956  0  -0.075967  -0.083855  0  3.972472  0
C  C175  1  0.37463298  0.94882756  0.89521432  1  -0.067404  0  -0.084046  -0.128428  0  3.963587  0
C  C176  1  0.45665833  0.05807783  0.84824122  1  0.010451  0  -0.08414  -0.090247  0  3.986623  0
C  C177  1  0.51798902  0.98329634  0.83457341  1  -0.037437  0  -0.088068  -0.130064  0  3.959363  0
C  C178  1  0.47755564  0.92771079  0.85791180  1  -0.018894  0  -0.004236  0.066276  0  3.995287  0
C  C179  1  0.54420757  0.84858819  0.84540283  1  0.043856  0  0.0112  0.102729  0  3.99253  0
C  C180  1  0.52823895  0.79386145  0.89966725  1  -0.091694  0  -0.078644  -0.164997  0  3.914127  0
C  C181  1  0.59854270  0.72143958  0.88875204  1  0.444625  0  0.037136  0.079258  0  3.943676  0
C  C182  1  0.63011879  0.82534892  0.78055570  1  -0.071875  0  -0.082502  -0.16427  0  3.942163  0
C  C183  1  0.69591916  0.75164150  0.77357918  1  0.495125  0  0.037135  0.090547  0  3.952991  0
C  C184  1  0.24542818  0.67227858  0.04213552  1  1.535077  0  0.187189  0.573286  0  4.220578  0
C  C185  1  0.18667689  0.65436461  0.00993961  1  -0.078582  0  -0.011164  -0.016224  0  3.945664  0
C  C186  1  0.23137125  0.60226883  0.95230369  1  -0.016557  0  -0.080414  -0.080606  0  3.956733  0
C  C187  1  0.17387960  0.58909337  0.92227702  1  -0.055236  0  -0.089596  -0.12954  0  3.964323  0
C  C188  1  0.08358727  0.69225410  0.03806470  1  -0.033128  0  -0.077132  -0.078883  0  3.961863  0
C  C189  1  0.02633346  0.67912052  0.00823433  1  -0.008546  0  -0.087519  -0.12878  0  3.986803  0
C  C190  1  0.07079600  0.62785650  0.94938245  1  -0.036105  0  -0.006743  0.062146  0  4.004304  0
C  C191  1  0.00802549  0.61720859  0.91750850  1  0.00259  0  0.01242  0.101147  0  3.991443  0
C  C192  1  0.02432472  0.54733787  0.89412352  1  -0.049433  0  -0.078847  -0.173118  0  3.932768  0
C  C193  1  0.95878133  0.54055367  0.86840590  1  0.44416  0  0.044374  0.08466  0  3.916624  0
C  C194  1  0.92618563  0.67822777  0.91057362  1  -0.02577  0  -0.07702  -0.161801  0  3.928962  0
C  C195  1  0.86485062  0.66726723  0.88370845  1  0.407649  0  0.039799  0.087338  0  3.946172  0
C  C196  1  0.52709325  0.62296983  0.11467324  1  1.540311  0  0.185253  0.558035  0  4.252416  0
C  C197  1  0.62460056  0.60012409  0.12117079  1  -0.040097  0  -0.01518  -0.02954  0  3.965185  0
C  C198  1  0.63103101  0.58043356  0.19148798  1  -0.014298  0  -0.083215  -0.089794  0  3.981143  0
C  C199  1  0.72039640  0.56005361  0.19976262  1  -0.090767  0  -0.090077  -0.130569  0  3.982009  0
C  C200  1  0.70938013  0.59895602  0.05896246  1  0.034636  0  -0.077303  -0.081238  0  3.9584  0
C  C201  1  0.79914499  0.57753496  0.06702299  1  -0.056424  0  -0.084552  -0.120827  0  3.952829  0
C  C202  1  0.80621175  0.55773552  0.13738238  1  -0.061246  0  -0.001958  0.067993  0  3.988654  0
C  C203  1  0.90247079  0.53293871  0.14461439  1  -0.019249  0  0.008564  0.103719  0  3.98752  0
C  C204  1  0.91186984  0.55028363  0.20729842  1  -0.024775  0  -0.091092  -0.184413  0  3.982958  0
C  C205  1  0.00392496  0.52241028  0.21264200  1  0.423431  0  0.031348  0.07431  0  3.992938  0
C  C206  1  0.98990374  0.48998494  0.08844173  1  0.030409  0  -0.076598  -0.15718  0  3.901454  0
C  C207  1  0.07927106  0.46512293  0.09762755  1  0.414875  0  0.041153  0.094927  0  3.921937  0
C  C208  1  0.21547635  0.67769648  0.25063271  1  1.551466  0  0.187034  0.570291  0  4.228909  0
C  C209  1  0.15252165  0.66526001  0.32847834  1  -0.060967  0  -0.012999  -0.022511  0  3.95677  0
C  C210  1  0.11781676  0.71735793  0.38429405  1  -0.080147  0  -0.079698  -0.083483  0  3.965076  0
C  C211  1  0.06485628  0.70417952  0.45811021  1  -0.015712  0  -0.087052  -0.13112  0  3.952163  0
C  C212  1  0.13129340  0.60042324  0.34656666  1  0.00184  0  -0.083508  -0.086423  0  3.97223  0
C  C213  1  0.07524611  0.58835302  0.41982973  1  -0.087174  0  -0.098044  -0.139442  0  3.998856  0
C  C214  1  0.04260150  0.63946840  0.47634462  1  -0.004604  0  -0.008514  0.062667  0  4.007283  0
C  C215  1  0.98655532  0.62479131  0.55416988  1  -0.029883  0  0.013269  0.108415  0  3.990674  0
C  C216  1  0.00811882  0.63564216  0.61312211  1  -0.000747  0  -0.071041  -0.148378  0  3.902671  0
C  C217  1  0.95518643  0.61987523  0.68572187  1  0.472708  0  0.048081  0.098586  0  3.917037  0
C  C218  1  0.90907868  0.59970193  0.57302639  1  -0.044155  0  -0.08937  -0.187142  0  3.984459  0
C  C219  1  0.85840591  0.58662458  0.64738525  1  0.440111  0  0.034331  0.071462  0  3.996327  0
C  C220  1  0.34522813  0.84044697  0.10317118  1  1.515551  0  0.183348  0.558419  0  4.245156  0
C  C221  1  0.31758206  0.92115492  0.11497021  1  -0.011025  0  -0.014722  -0.026576  0  3.968922  0
C  C222  1  0.24521287  0.97624632  0.09159611  1  -0.04175  0  -0.076182  -0.083138  0  3.975414  0
C  C223  1  0.21823710  0.05132456  0.10474055  1  -0.041737  0  -0.084085  -0.129412  0  3.9639  0
C  C224  1  0.36277320  0.94206228  0.15148266  1  -0.091029  0  -0.084054  -0.089464  0  3.98855  0
C  C225  1  0.33569988  0.01683551  0.16515324  1  -0.00658  0  -0.087503  -0.128855  0  3.957157  0
C  C226  1  0.26287468  0.07241729  0.14196142  1  -0.013588  0  -0.004542  0.06644  0  3.993446  0
C  C227  1  0.23799194  0.15151044  0.15450362  1  0.031341  0  0.011555  0.102441  0  3.99561  0
C  C228  1  0.22165270  0.20625717  0.10023588  1  -0.045501  0  -0.079164  -0.165412  0  3.91636  0
C  C229  1  0.20863524  0.27866081  0.11120571  1  0.451321  0  0.037024  0.078551  0  3.946621  0
C  C230  1  0.23587149  0.17468130  0.21937293  1  -0.106867  0  -0.08238  -0.163548  0  3.943234  0
C  C231  1  0.22110258  0.24835483  0.22637001  1  0.515494  0  0.037674  0.090002  0  3.953056  0
C  C232  1  0.71257936  0.04226291  0.32761244  1  1.522717  0  0.18748  0.573194  0  4.223322  0
C  C233  1  0.80349272  0.01008125  0.34559725  1  0.056776  0  -0.011422  -0.016974  0  3.94371  0
C  C234  1  0.81635160  0.95241466  0.39770762  1  -0.000171  0  -0.080927  -0.081775  0  3.957351  0
C  C235  1  0.90385616  0.92230111  0.41091372  1  -0.082271  0  -0.089363  -0.12875  0  3.964845  0
C  C236  1  0.87852110  0.03815816  0.30777234  1  -0.127235  0  -0.076919  -0.077669  0  3.961214  0
C  C237  1  0.96559229  0.00823788  0.32092811  1  -0.017174  0  -0.088084  -0.13059  0  3.987967  0
C  C238  1  0.97991240  0.94934480  0.37217426  1  -0.019242  0  -0.00638  0.063654  0  4.003489  0
C  C239  1  0.07454783  0.91736516  0.38283537  1  -0.034068  0  0.011772  0.097967  0  3.992917  0
C  C240  1  0.08164745  0.89391735  0.45270399  1  0.007685  0  -0.078925  -0.173482  0  3.932176  0
C  C241  1  0.17290880  0.86814032  0.45950122  1  0.414054  0  0.044238  0.084399  0  3.915586  0
C  C242  1  0.16331102  0.91044903  0.32182830  1  -0.019881  0  -0.076818  -0.159178  0  3.927858  0
C  C243  1  0.25151207  0.88355400  0.33278908  1  0.424719  0  0.039294  0.086716  0  3.945217  0
C  C244  1  0.35834134  0.11460630  0.37702042  1  1.544813  0  0.185128  0.558717  0  4.255615  0
C  C245  1  0.25434117  0.12121220  0.39966021  1  0.008531  0  -0.015467  -0.03074  0  3.967289  0
C  C246  1  0.17767161  0.19153319  0.41939660  1  -0.035585  0  -0.083155  -0.088635  0  3.978192  0
C  C247  1  0.08001762  0.19986408  0.43974438  1  -0.098171  0  -0.09063  -0.133402  0  3.982867  0
C  C248  1  0.23173762  0.05907348  0.40061961  1  -0.070437  0  -0.077007  -0.08181  0  3.959894  0
C  C249  1  0.13391387  0.06718869  0.42197587  1  -0.016012  0  -0.084484  -0.119557  0  3.951329  0
C  C250  1  0.05653934  0.13751469  0.44196507  1  -0.015649  0  -0.00168  0.068526  0  3.988137  0
C  C251  1  0.95310119  0.14465627  0.46686232  1  -0.01462  0  0.008605  0.105221  0  3.986308  0
C  C252  1  0.88091552  0.20727467  0.44956946  1  -0.022885  0  -0.090586  -0.184247  0  3.981302  0
C  C253  1  0.78361225  0.21242068  0.47740871  1  0.42756  0  0.029949  0.071826  0  3.993704  0
C  C254  1  0.92203003  0.08839162  0.50981559  1  -0.037251  0  -0.075775  -0.155827  0  3.899647  0
C  C255  1  0.82353301  0.09741194  0.53470301  1  0.452979  0  0.040495  0.093862  0  3.921779  0
C  C256  1  0.53371285  0.25060902  0.32242010  1  1.551206  0  0.186597  0.568715  0  4.230584  0
C  C257  1  0.51880601  0.32843320  0.33489016  1  -0.051323  0  -0.012373  -0.02065  0  3.958267  0
C  C258  1  0.49782166  0.38423483  0.28273680  1  -0.054706  0  -0.0799  -0.083439  0  3.96644  0
C  C259  1  0.47707288  0.45802792  0.29587764  1  -0.061092  0  -0.086658  -0.131106  0  3.954526  0
C  C260  1  0.52188464  0.34650681  0.39977160  1  -0.026907  0  -0.084547  -0.089113  0  3.973163  0
C  C261  1  0.50475093  0.41975877  0.41180479  1  -0.053238  0  -0.097978  -0.138634  0  3.997135  0
C  C262  1  0.48105898  0.47624844  0.36061770  1  -0.030292  0  -0.007612  0.06299  0  4.008209  0
C  C263  1  0.45938605  0.55404839  0.37529020  1  -0.01263  0  0.012827  0.106361  0  3.994579  0
C  C264  1  0.37885631  0.61301390  0.36449757  1  -0.028922  0  -0.071138  -0.146712  0  3.903578  0
C  C265  1  0.35920754  0.68557127  0.38034714  1  0.469401  0  0.048427  0.099047  0  3.919568  0
C  C266  1  0.51806888  0.57285103  0.40035970  1  -0.020733  0  -0.088582  -0.18465  0  3.983136  0
C  C267  1  0.49438625  0.64718813  0.41352675  1  0.439556  0  0.034669  0.071719  0  3.995502  0
C  C268  1  0.55108603  0.10322391  0.15966376  1  1.534347  0  0.183056  0.557285  0  4.247509  0
C  C269  1  0.56685661  0.11501030  0.07894442  1  -0.056808  0  -0.015717  -0.02601  0  3.964743  0
C  C270  1  0.66261630  0.09163677  0.02387516  1  -0.058842  0  -0.076061  -0.084764  0  3.971074  0
C  C271  1  0.67650945  0.10489250  0.94877855  1  -0.00388  0  -0.083628  -0.12805  0  3.962071  0
C  C272  1  0.48522402  0.15161646  0.05796028  1  0.010232  0  -0.083913  -0.09165  0  3.989967  0
C  C273  1  0.49870035  0.16539329  0.98316076  1  -0.042194  0  -0.08796  -0.127877  0  3.958837  0
C  C274  1  0.59472053  0.14219518  0.92761865  1  -0.079431  0  -0.004411  0.06621  0  3.995876  0
C  C275  1  0.60724020  0.15472206  0.84846294  1  -0.033484  0  0.012112  0.103187  0  3.992755  0
C  C276  1  0.67780745  0.10035873  0.79381986  1  -0.028645  0  -0.079022  -0.165149  0  3.915458  0
C  C277  1  0.68003954  0.11121721  0.72134392  1  0.406875  0  0.036452  0.077903  0  3.945245  0
C  C278  1  0.54475776  0.21960756  0.82508983  1  -0.008827  0  -0.082577  -0.164007  0  3.94175  0
C  C279  1  0.55271953  0.22651057  0.75135694  1  0.447812  0  0.037623  0.091364  0  3.951445  0
C  C280  1  0.08247862  0.95772740  0.67236398  1  1.531003  0  0.187317  0.573968  0  4.216438  0
C  C281  1  0.15908185  0.98998170  0.65445089  1  -0.036395  0  -0.010807  -0.015531  0  3.943391  0
C  C282  1  0.16646356  0.04754617  0.60224297  1  -0.078735  0  -0.080941  -0.082085  0  3.958682  0
C  C283  1  0.23702663  0.07768039  0.58904289  1  0.02461  0  -0.089034  -0.127461  0  3.965584  0
C  C284  1  0.22415934  0.96205832  0.69246754  1  -0.047084  0  -0.076947  -0.079349  0  3.960796  0
C  C285  1  0.29444563  0.99199313  0.67930428  1  -0.007465  0  -0.088572  -0.131065  0  3.986166  0
C  C286  1  0.30127780  0.05073829  0.62788264  1  -0.047996  0  -0.006146  0.06313  0  4.005371  0
C  C287  1  0.37470743  0.08261721  0.61713410  1  -0.042098  0  0.011595  0.098393  0  3.995953  0
C  C288  1  0.42832192  0.10587087  0.54720137  1  -0.051357  0  -0.079254  -0.173901  0  3.935085  0
C  C289  1  0.50070283  0.13157812  0.54032387  1  0.439161  0  0.044019  0.084928  0  3.916057  0
C  C290  1  0.39558529  0.08962366  0.67811074  1  -0.019735  0  -0.076223  -0.157553  0  3.926901  0
C  C291  1  0.46794843  0.11643214  0.66705471  1  0.447427  0  0.038579  0.085281  0  3.946724  0
C  C292  1  0.85043026  0.88503305  0.62293047  1  1.516894  0  0.185032  0.558366  0  4.255297  0
C  C293  1  0.77569508  0.87849019  0.60021763  1  0.038932  0  -0.015453  -0.031652  0  3.968307  0
C  C294  1  0.78889690  0.80814941  0.58065540  1  -0.059711  0  -0.08308  -0.088764  0  3.979099  0
C  C295  1  0.71977775  0.79983467  0.56045659  1  -0.063363  0  -0.089835  -0.130775  0  3.981061  0
C  C296  1  0.69201786  0.94066652  0.59915606  1  -0.059593  0  -0.076865  -0.079678  0  3.960058  0
C  C297  1  0.62352146  0.93256578  0.57795486  1  -0.042061  0  -0.084812  -0.121925  0  3.957656  0
C  C298  1  0.63622733  0.86222054  0.55819736  1  -0.02471  0  -0.001835  0.06814  0  3.98913  0
C  C299  1  0.56483687  0.85503555  0.53331266  1  0.004592  0  0.008677  0.105933  0  3.984302  0
C  C300  1  0.53791543  0.79244305  0.55064615  1  -0.012466  0  -0.090691  -0.18687  0  3.981657  0
C  C301  1  0.47377256  0.78721046  0.52264906  1  0.432074  0  0.030533  0.07413  0  3.991626  0
C  C302  1  0.52065787  0.91119047  0.49017601  1  -0.041822  0  -0.077012  -0.157505  0  3.904044  0
C  C303  1  0.45618459  0.90211876  0.46518533  1  0.418675  0  0.040805  0.094607  0  3.921538  0
C  C304  1  0.10732197  0.74934387  0.67753890  1  1.576379  0  0.186818  0.570079  0  4.229484  0
C  C305  1  0.18270651  0.67151600  0.66506517  1  -0.066296  0  -0.012733  -0.021746  0  3.957764  0
C  C306  1  0.16523212  0.61572764  0.71720974  1  -0.022841  0  -0.080161  -0.084606  0  3.965638  0
C  C307  1  0.23127578  0.54189394  0.70407586  1  -0.079997  0  -0.087013  -0.13128  0  3.949831  0
C  C308  1  0.26876610  0.65337457  0.60022333  1  -0.023523  0  -0.083802  -0.087524  0  3.975198  0
C  C309  1  0.33678193  0.58008089  0.58822012  1  -0.108325  0  -0.098161  -0.139339  0  3.999407  0
C  C310  1  0.31825303  0.52362459  0.63937370  1  0.020468  0  -0.007876  0.063479  0  4.005025  0
C  C311  1  0.38895911  0.44581643  0.62472569  1  -0.006828  0  0.012951  0.107255  0  3.990505  0
C  C312  1  0.35659427  0.38684884  0.63555058  1  0.011509  0  -0.070849  -0.148631  0  3.90418  0
C  C313  1  0.42534762  0.31429053  0.61965512  1  0.446086  0  0.048171  0.098883  0  3.919022  0
C  C314  1  0.49151467  0.42699539  0.59960479  1  -0.102297  0  -0.089281  -0.186543  0  3.985019  0
C  C315  1  0.55532616  0.35265676  0.58640887  1  0.515182  0  0.034172  0.070274  0  3.992328  0
C  C316  1  0.81408396  0.89675502  0.84049566  1  1.542096  0  0.183688  0.556786  0  4.244947  0
C  C317  1  0.76072971  0.88504948  0.92119391  1  -0.034058  0  -0.014256  -0.02358  0  3.964813  0
C  C318  1  0.77782450  0.90849043  0.97635771  1  -0.089092  0  -0.076871  -0.087246  0  3.974822  0
C  C319  1  0.72972256  0.89527425  0.05142084  1  -0.049889  0  -0.08402  -0.127925  0  3.962807  0
C  C320  1  0.69477909  0.84840929  0.94204771  1  -0.056152  0  -0.08438  -0.090283  0  3.988123  0
C  C321  1  0.64701722  0.83471055  0.01682261  1  -0.039316  0  -0.088329  -0.130922  0  3.961512  0
C  C322  1  0.66409488  0.85797719  0.07246123  1  -0.019191  0  -0.003331  0.068525  0  3.994924  0
C  C323  1  0.60992341  0.84542838  0.15157351  1  -0.025211  0  0.011662  0.102758  0  3.994379  0
C  C324  1  0.57168480  0.89967118  0.20628923  1  -0.050803  0  -0.078913  -0.165729  0  3.917261  0
C  C325  1  0.51244601  0.88870637  0.27875428  1  0.423417  0  0.03687  0.079613  0  3.943767  0
C  C326  1  0.58886398  0.78057443  0.17482741  1  -0.000339  0  -0.082422  -0.164247  0  3.940383  0
C  C327  1  0.53014113  0.77356233  0.24856212  1  0.490821  0  0.037632  0.090947  0  3.951988  0
N  N328  1  0.34189643  0.40050442  0.13640467  1  -1.2316  0  -0.368437  -0.230146  0  3.670968  0
N  N329  1  0.72528367  0.52213552  0.83998915  1  -1.202821  0  -0.368382  -0.221599  0  3.6658  0
N  N330  1  0.18005962  0.40463730  0.29616855  1  -1.238436  0  -0.354128  -0.224572  0  3.620548  0
N  N331  1  0.68234644  0.69945623  0.82683439  1  -1.253562  0  -0.355587  -0.231447  0  3.614653  0
N  N332  1  0.87876342  0.59950416  0.86365313  1  -1.221105  0  -0.368367  -0.230534  0  3.671182  0
N  N333  1  0.08755122  0.47795706  0.16002530  1  -1.193238  0  -0.368667  -0.221988  0  3.665744  0
N  N334  1  0.88096482  0.59535283  0.70390264  1  -1.212963  0  -0.35386  -0.224494  0  3.618118  0
N  N335  1  0.20857211  0.30057687  0.17314993  1  -1.252015  0  -0.355843  -0.230485  0  3.617008  0
N  N336  1  0.25766984  0.86342355  0.40056038  1  -1.230974  0  -0.368092  -0.230879  0  3.672031  0
N  N337  1  0.75277955  0.15971160  0.52184497  1  -1.197747  0  -0.367915  -0.220632  0  3.664901  0
N  N338  1  0.41527231  0.70371319  0.40490474  1  -1.210107  0  -0.353633  -0.224379  0  3.61932  0
N  N339  1  0.61839125  0.17318143  0.69923686  1  -1.205355  0  -0.355165  -0.231447  0  3.615291  0
N  N340  1  0.52180774  0.13639748  0.59924087  1  -1.235355  0  -0.367915  -0.23062  0  3.673037  0
N  N341  1  0.43481501  0.83984334  0.47807342  1  -1.20301  0  -0.368656  -0.223029  0  3.665251  0
N  N342  1  0.52410789  0.29612851  0.59505820  1  -1.221558  0  -0.353097  -0.22284  0  3.61482  0
N  N343  1  0.49060438  0.82676812  0.30076423  1  -1.251951  0  -0.355547  -0.231508  0  3.615483  0
O  O344  1  0.01514351  0.27318349  0.91243195  1  -1.159644  0  -0.393773  -0.616311  0  2.174134  0
O  O345  1  0.99674006  0.36677645  0.97517999  1  -1.191772  0  -0.402812  -0.658902  0  2.133118  0
O  O346  1  0.21450423  0.35529220  0.94844107  1  -1.192933  0  -0.383622  -0.637469  0  2.202536  0
O  O347  1  0.24718078  0.37827523  0.82694658  1  -1.173404  0  -0.38258  -0.626043  0  2.212389  0
O  O348  1  0.08331949  0.37337743  0.79865813  1  -1.18515  0  -0.378228  -0.621395  0  2.206141  0
O  O349  1  0.20460830  0.26130271  0.76463782  1  -1.170974  0  -0.401569  -0.62367  0  2.160832  0
O  O350  1  0.32409187  0.20899761  0.86115112  1  -1.176438  0  -0.380648  -0.620597  0  2.180968  0
O  O351  1  0.19748158  0.17868794  0.94057702  1  -1.18901  0  -0.39932  -0.642097  0  2.160046  0
O  O352  1  0.20065656  0.72686450  0.08774216  1  -1.156529  0  -0.394102  -0.615606  0  2.174203  0
O  O353  1  0.33866498  0.63349507  0.02474248  1  -1.198697  0  -0.40274  -0.658826  0  2.13466  0
O  O354  1  0.51823433  0.64473922  0.05155793  1  -1.183389  0  -0.383282  -0.636857  0  2.200868  0
O  O355  1  0.45249715  0.62185325  0.17307704  1  -1.185515  0  -0.383046  -0.627274  0  2.2116  0
O  O356  1  0.25537657  0.62678940  0.20155570  1  -1.179536  0  -0.378487  -0.62225  0  2.204524  0
O  O357  1  0.23068766  0.73887788  0.23545207  1  -1.165518  0  -0.401907  -0.62431  0  2.159542  0
O  O358  1  0.39418953  0.79118737  0.13861332  1  -1.176146  0  -0.381253  -0.622201  0  2.180068  0
O  O359  1  0.31640265  0.82137342  0.05938251  1  -1.178379  0  -0.399484  -0.642544  0  2.159259  0
O  O360  1  0.71170289  0.08789038  0.27302793  1  -1.161133  0  -0.393836  -0.615544  0  2.171922  0
O  O361  1  0.63680154  0.02476529  0.36636249  1  -1.19215  0  -0.403213  -0.658796  0  2.138049  0
O  O362  1  0.43024142  0.05146497  0.35532979  1  -1.200673  0  -0.383077  -0.63708  0  2.20026  0
O  O363  1  0.37460215  0.17295733  0.37822329  1  -1.175637  0  -0.382949  -0.626783  0  2.214474  0
O  O364  1  0.54325849  0.20142956  0.37319602  1  -1.185351  0  -0.37832  -0.621337  0  2.203991  0
O  O365  1  0.53339838  0.23552556  0.26130664  1  -1.16414  0  -0.401786  -0.623792  0  2.161097  0
O  O366  1  0.46680118  0.13876360  0.20893312  1  -1.18635  0  -0.380926  -0.621265  0  2.18064  0
O  O367  1  0.62372401  0.05936742  0.17869306  1  -1.184211  0  -0.399132  -0.642488  0  2.160903  0
O  O368  1  0.07244426  0.91232553  0.72713977  1  -1.159195  0  -0.393919  -0.615966  0  2.17358  0
O  O369  1  0.02826725  0.97492016  0.63340323  1  -1.196527  0  -0.402988  -0.658688  0  2.132452  0
O  O370  1  0.83754248  0.94818409  0.64458358  1  -1.179483  0  -0.383805  -0.638199  0  2.201524  0
O  O371  1  0.92612847  0.82665329  0.62189284  1  -1.184832  0  -0.382094  -0.625187  0  2.210529  0
O  O372  1  0.11836171  0.79852397  0.62676049  1  -1.183055  0  -0.378029  -0.622074  0  2.204604  0
O  O373  1  0.03086493  0.76438182  0.73868247  1  -1.176617  0  -0.401794  -0.624178  0  2.160975  0
O  O374  1  0.81473801  0.86117482  0.79117253  1  -1.17438  0  -0.381251  -0.62099  0  2.177463  0
O  O375  1  0.86194464  0.94055776  0.82151776  1  -1.184804  0  -0.399464  -0.642765  0  2.159905  0
