# generated using pymatgen
data_CuH9C7IN
_symmetry_space_group_name_H-M   'P 1'
_cell_length_a   4.23826966
_cell_length_b   10.02129714
_cell_length_c   10.89489990
_cell_angle_alpha   113.42752723
_cell_angle_beta   95.08710785
_cell_angle_gamma   102.10937825
_symmetry_Int_Tables_number   1
_chemical_formula_structural   CuH9C7IN
_chemical_formula_sum   'Cu2 H18 C14 I2 N2'
_cell_volume   407.43671711
_cell_formula_units_Z   2
loop_
 _symmetry_equiv_pos_site_id
 _symmetry_equiv_pos_as_xyz
  1  'x, y, z'
loop_
 _atom_site_type_symbol
 _atom_site_label
 _atom_site_symmetry_multiplicity
 _atom_site_fract_x
 _atom_site_fract_y
 _atom_site_fract_z
 _atom_site_occupancy
 _atom_site_hle17_bader_spin_density
 _atom_site_hle17_ddec_charge
 _atom_site_hle17_ddec_spin_density
 _atom_site_hle17_ddec_sum_bond_order
 _atom_site_hle17_magmom
 _atom_site_hse06_10hf_bader_spin_density
 _atom_site_hse06_10hf_ddec_charge
 _atom_site_hse06_10hf_ddec_spin_density
 _atom_site_hse06_10hf_ddec_sum_bond_order
 _atom_site_hse06_10hf_magmom
 _atom_site_hse06_bader_spin_density
 _atom_site_hse06_ddec_charge
 _atom_site_hse06_ddec_spin_density
 _atom_site_hse06_ddec_sum_bond_order
 _atom_site_hse06_magmom
 _atom_site_pbe_bader_spin_density
 _atom_site_pbe_cm5_charge
 _atom_site_pbe_ddec_charge
 _atom_site_pbe_ddec_spin_density
 _atom_site_pbe_ddec_sum_bond_order
 _atom_site_pbe_magmom
Cu  Cu0  1  0.27494390  0.87921187  0.97381548  1  0  0.269563  0  2.091756  0  0  0.190267  0  2.551634  0  0  0.203417  0  2.49948  0  0  0.252362  0.183624  0  2.58617  0
Cu  Cu1  1  0.72506114  0.12078901  0.02618182  1  0  0.269549  0  2.091709  0  0  0.19023  0  2.551558  0  0  0.203346  0  2.499394  0  0  0.252336  0.183588  0  2.586087  0
H  H2  1  0.18045550  0.39206038  0.54994748  1  0  0.103427  0  0.964812  0  0  0.120065  0  1.017779  0  0  0.122641  0  1.01816  0  0  0.101359  0.117906  0  1.018625  0
H  H3  1  0.81954306  0.60793707  0.45005479  1  0  0.103423  0  0.96476  0  0  0.120074  0  1.017724  0  0  0.122649  0  1.01811  0  0  0.10136  0.117913  0  1.01857  0
H  H4  1  0.61712849  0.34282173  0.84657357  1  0  0.103086  0  0.974242  0  0  0.110241  0  1.043738  0  0  0.113645  0  1.042787  0  0  0.0924  0.107659  0  1.044863  0
H  H5  1  0.38287086  0.65718137  0.15342898  1  0  0.103074  0  0.974267  0  0  0.110238  0  1.043746  0  0  0.113642  0  1.042795  0  0  0.092402  0.107655  0  1.044872  0
H  H6  1  0.81991860  0.62238902  0.98173840  1  0  0.064678  0  0.973504  0  0  0.072725  0  1.043295  0  0  0.074981  0  1.041428  0  0  0.097287  0.070632  0  1.045143  0
H  H7  1  0.18008123  0.37761522  0.01825907  1  0  0.064728  0  0.973417  0  0  0.072752  0  1.04324  0  0  0.075006  0  1.041373  0  0  0.097287  0.07066  0  1.045084  0
H  H8  1  0.32124203  0.78051425  0.67430113  1  0  0.11292  0  0.976714  0  0  0.133361  0  1.042363  0  0  0.135019  0  1.041986  0  0  0.081432  0.131968  0  1.042748  0
H  H9  1  0.67875389  0.21948322  0.32569280  1  0  0.112967  0  0.976702  0  0  0.133392  0  1.042361  0  0  0.135054  0  1.041982  0  0  0.08144  0.131998  0  1.04274  0
H  H10  1  0.65692972  0.76137413  0.76647085  1  0  0.118511  0  0.990991  0  0  0.131381  0  1.069495  0  0  0.134373  0  1.066796  0  0  0.08075  0.128612  0  1.071795  0
H  H11  1  0.34306914  0.23862448  0.23352084  1  0  0.118461  0  0.991037  0  0  0.131323  0  1.069552  0  0  0.134317  0  1.066849  0  0  0.080728  0.128549  0  1.071861  0
H  H12  1  0.50899468  0.63276806  0.59093510  1  0  0.105647  0  0.966672  0  0  0.126416  0  1.029469  0  0  0.128058  0  1.029106  0  0  0.086395  0.125362  0  1.029762  0
H  H13  1  0.49099823  0.36722828  0.40905832  1  0  0.105681  0  0.966593  0  0  0.126431  0  1.029411  0  0  0.128082  0  1.029039  0  0  0.086411  0.125377  0  1.029705  0
H  H14  1  0.61069823  0.15154230  0.50183680  1  0  0.112846  0  0.951571  0  0  0.1361  0  1.011534  0  0  0.137658  0  1.011183  0  0  0.092492  0.135562  0  1.011124  0
H  H15  1  0.38930604  0.84846079  0.49817139  1  0  0.112904  0  0.951574  0  0  0.136177  0  1.011526  0  0  0.137733  0  1.011178  0  0  0.092501  0.13564  0  1.011118  0
H  H16  1  0.97304726  0.12778159  0.57356651  1  0  0.113182  0  0.948302  0  0  0.135728  0  1.0087  0  0  0.137347  0  1.008581  0  0  0.090025  0.134479  0  1.008854  0
H  H17  1  0.02694901  0.87221585  0.42643843  1  0  0.11325  0  0.948243  0  0  0.135801  0  1.008651  0  0  0.137418  0  1.008529  0  0  0.090059  0.134553  0  1.008802  0
H  H18  1  0.62264248  0.11901104  0.65162520  1  0  0.110035  0  0.974919  0  0  0.126652  0  1.043859  0  0  0.128426  0  1.043989  0  0  0.080066  0.124694  0  1.04472  0
H  H19  1  0.37735289  0.88099316  0.34838130  1  0  0.110033  0  0.974857  0  0  0.126668  0  1.043789  0  0  0.128446  0  1.043913  0  0  0.080047  0.12471  0  1.044645  0
C  C20  1  0.20503560  0.59391185  0.72721413  1  0  0.309107  0  3.718328  0  0  0.318404  0  3.956905  0  0  0.327908  0  3.977328  0  0  0.112345  0.311697  0  3.943601  0
C  C21  1  0.79496038  0.40608561  0.27278164  1  0  0.309097  0  3.718334  0  0  0.318304  0  3.956978  0  0  0.327803  0  3.977403  0  0  0.112307  0.311601  0  3.943674  0
C  C22  1  0.09444983  0.43887262  0.64560899  1  0  -0.238358  0  3.678975  0  0  -0.259589  0  3.913316  0  0  -0.270149  0  3.935764  0  0  -0.094154  -0.25354  0  3.900221  0
C  C23  1  0.90555166  0.56112597  0.35439103  1  0  -0.238326  0  3.678808  0  0  -0.259552  0  3.913181  0  0  -0.270116  0  3.935634  0  0  -0.09413  -0.253496  0  3.900091  0
C  C24  1  0.88213519  0.34320040  0.68550533  1  0  0.207139  0  3.747749  0  0  0.227791  0  3.985459  0  0  0.235735  0  4.005872  0  0  0.006098  0.221805  0  3.971194  0
C  C25  1  0.11787303  0.65680159  0.31449799  1  0  0.207175  0  3.747672  0  0  0.227827  0  3.985387  0  0  0.235773  0  4.005798  0  0  0.006119  0.221842  0  3.971143  0
C  C26  1  0.78293975  0.41104766  0.80958550  1  0  -0.1917  0  3.7242  0  0  -0.208586  0  3.969106  0  0  -0.218191  0  3.990639  0  0  -0.096801  -0.202201  0  3.954427  0
C  C27  1  0.21706968  0.58895659  0.19041593  1  0  -0.191701  0  3.724175  0  0  -0.20859  0  3.969075  0  0  -0.218196  0  3.990608  0  0  -0.096817  -0.202209  0  3.954406  0
C  C28  1  0.89713978  0.56612884  0.88564025  1  0  0.13423  0  3.717324  0  0  0.104545  0  3.9666  0  0  0.112957  0  3.983871  0  0  0.034069  0.100061  0  3.954307  0
C  C29  1  0.10286011  0.43387540  0.11435905  1  0  0.134223  0  3.717301  0  0  0.104523  0  3.96655  0  0  0.112932  0  3.983815  0  0  0.034102  0.100041  0  3.954258  0
C  C30  1  0.43566439  0.69648937  0.68657264  1  0  -0.378224  0  3.71574  0  0  -0.463196  0  3.953439  0  0  -0.466703  0  3.959508  0  0  -0.252797  -0.460287  0  3.949541  0
C  C31  1  0.56433157  0.30350810  0.31342221  1  0  -0.378222  0  3.715694  0  0  -0.463155  0  3.953426  0  0  -0.466669  0  3.959493  0  0  -0.252796  -0.460244  0  3.949517  0
C  C32  1  0.76508114  0.17648270  0.59904510  1  0  -0.348652  0  3.71472  0  0  -0.42768  0  3.946121  0  0  -0.431182  0  3.953554  0  0  -0.243367  -0.4247  0  3.940502  0
C  C33  1  0.23491985  0.82351476  0.40095907  1  0  -0.348806  0  3.714715  0  0  -0.427888  0  3.946122  0  0  -0.431385  0  3.953545  0  0  -0.243396  -0.424904  0  3.940503  0
I  I34  1  0.17752527  0.06274586  0.85936258  1  0  -0.379923  0  1.725684  0  0  -0.321035  0  2.175431  0  0  -0.335779  0  2.132088  0  0  -0.15805  -0.310862  0  2.205802  0
I  I35  1  0.82247838  0.93724823  0.14063584  1  0  -0.379966  0  1.725654  0  0  -0.321062  0  2.175378  0  0  -0.335818  0  2.132044  0  0  -0.158059  -0.310883  0  2.205737  0
N  N36  1  0.10625303  0.65752593  0.84774838  1  0  -0.327504  0  3.303665  0  0  -0.253583  0  3.576753  0  0  -0.270144  0  3.587294  0  0  -0.361909  -0.242477  0  3.568457  0
N  N37  1  0.89374556  0.34247605  0.15225006  1  0  -0.327553  0  3.303797  0  0  -0.253498  0  3.576745  0  0  -0.270036  0  3.587251  0  0  -0.361903  -0.242387  0  3.568442  0
