# generated using pymatgen
data_CdH17C18N5O7
_symmetry_space_group_name_H-M   'P 1'
_cell_length_a   9.25666292
_cell_length_b   10.63144362
_cell_length_c   23.17185529
_cell_angle_alpha   90.00009563
_cell_angle_beta   91.66638413
_cell_angle_gamma   90.00027605
_symmetry_Int_Tables_number   1
_chemical_formula_structural   CdH17C18N5O7
_chemical_formula_sum   'Cd4 H68 C72 N20 O28'
_cell_volume   2279.41705091
_cell_formula_units_Z   4
loop_
 _symmetry_equiv_pos_site_id
 _symmetry_equiv_pos_as_xyz
  1  'x, y, z'
loop_
 _atom_site_type_symbol
 _atom_site_label
 _atom_site_symmetry_multiplicity
 _atom_site_fract_x
 _atom_site_fract_y
 _atom_site_fract_z
 _atom_site_occupancy
 _atom_site_pbe_bader_charge
 _atom_site_pbe_bader_spin_density
 _atom_site_pbe_cm5_charge
 _atom_site_pbe_ddec_charge
 _atom_site_pbe_ddec_spin_density
 _atom_site_pbe_ddec_sum_bond_order
 _atom_site_pbe_magmom
Cd  Cd0  1  0.55072145  0.29226335  0.46365380  1  1.246547  0  0.787447  0.856386  0  2.147108  0
Cd  Cd1  1  0.94927487  0.79226793  0.03634455  1  1.246559  0  0.787413  0.856347  0  2.147091  0
Cd  Cd2  1  0.44927609  0.70773460  0.53634507  1  1.246496  0  0.787399  0.856296  0  2.147138  0
Cd  Cd3  1  0.05072271  0.20773661  0.96365562  1  1.246508  0  0.787436  0.856379  0  2.147125  0
H  H4  1  0.88496208  0.98109816  0.51571508  1  0.550724  0  0.309492  0.296468  0  0.99107  0
H  H5  1  0.61504018  0.48110145  0.98428800  1  0.550716  0  0.309472  0.296492  0  0.991025  0
H  H6  1  0.11504209  0.01889603  0.48428988  1  0.550983  0  0.309492  0.2965  0  0.99101  0
H  H7  1  0.38496175  0.51890214  0.01571392  1  0.55072  0  0.309494  0.296506  0  0.991033  0
H  H8  1  0.30097018  0.47075401  0.40797747  1  0.160704  0  0.112834  0.091976  0  1.036672  0
H  H9  1  0.19902427  0.97075492  0.09202488  1  0.160761  0  0.112856  0.092031  0  1.036581  0
H  H10  1  0.69903067  0.52924583  0.59202401  1  0.160737  0  0.11284  0.092002  0  1.036596  0
H  H11  1  0.80097223  0.02924679  0.90797528  1  0.16075  0  0.112836  0.091976  0  1.036655  0
H  H12  1  0.52118554  0.17263302  0.33545347  1  0.090688  0  0.110005  0.071699  0  1.034384  0
H  H13  1  0.97880368  0.67263255  0.16454732  1  0.090567  0  0.110065  0.071839  0  1.034437  0
H  H14  1  0.47881310  0.82736776  0.66454627  1  0.090658  0  0.110035  0.07175  0  1.034407  0
H  H15  1  0.02118745  0.32737293  0.83545452  1  0.090517  0  0.110053  0.071771  0  1.034445  0
H  H16  1  0.40135543  0.20749145  0.23952161  1  0.078185  0  0.108643  0.115522  0  1.004868  0
H  H17  1  0.09863966  0.70749068  0.26047882  1  0.078143  0  0.108664  0.115535  0  1.004787  0
H  H18  1  0.59864214  0.79251027  0.76047855  1  0.078168  0  0.108665  0.115523  0  1.004829  0
H  H19  1  0.90136009  0.29251009  0.73952222  1  0.078156  0  0.108669  0.115529  0  1.004823  0
H  H20  1  0.17303788  0.51822878  0.31547130  1  0.08619  0  0.102564  0.109038  0  1.033474  0
H  H21  1  0.32695403  0.01822621  0.18453068  1  0.086086  0  0.102564  0.109041  0  1.033502  0
H  H22  1  0.82695538  0.48177106  0.68452926  1  0.086046  0  0.102564  0.109054  0  1.033528  0
H  H23  1  0.67304787  0.98177081  0.81546952  1  0.086073  0  0.102565  0.109064  0  1.03355  0
H  H24  1  0.11058962  0.44413410  0.21253843  1  0.015391  0  0.095989  0.098144  0  0.977378  0
H  H25  1  0.38940896  0.94412901  0.28746221  1  0.015462  0  0.095993  0.098152  0  0.977359  0
H  H26  1  0.88941231  0.55587044  0.78746307  1  0.015407  0  0.096031  0.09821  0  0.977369  0
H  H27  1  0.61059399  0.05587083  0.71253670  1  0.015492  0  0.096026  0.098162  0  0.977341  0
H  H28  1  0.20700212  0.31714396  0.18235018  1  0.067052  0  0.101016  0.112501  0  0.971286  0
H  H29  1  0.29299143  0.81714328  0.31765075  1  0.067015  0  0.101016  0.112493  0  0.971248  0
H  H30  1  0.79299655  0.68285681  0.81765086  1  0.067037  0  0.10104  0.112543  0  0.971295  0
H  H31  1  0.70700726  0.18286313  0.68235115  1  0.067019  0  0.10099  0.112435  0  0.971253  0
H  H32  1  0.27242211  0.51785524  0.13657539  1  0.055324  0  0.091168  0.094183  0  0.999312  0
H  H33  1  0.22757626  0.01785949  0.36342578  1  0.055298  0  0.09115  0.094163  0  0.999245  0
H  H34  1  0.72758196  0.48214084  0.86342569  1  0.055238  0  0.091121  0.094145  0  0.99927  0
H  H35  1  0.77243320  0.98214881  0.63657448  1  0.055377  0  0.09121  0.094215  0  0.99923  0
H  H36  1  0.32032367  0.58475606  0.20433340  1  0.03112  0  0.084608  0.07295  0  1.018137  0
H  H37  1  0.17967613  0.08475611  0.29566654  1  0.031113  0  0.084613  0.072947  0  1.018141  0
H  H38  1  0.67968039  0.41524189  0.79566681  1  0.031079  0  0.0846  0.072939  0  1.018158  0
H  H39  1  0.82032359  0.91524749  0.70433278  1  0.031252  0  0.084602  0.072911  0  1.018188  0
H  H40  1  0.46929139  0.35405196  0.15272404  1  0.093682  0  0.095649  0.100264  0  1.023421  0
H  H41  1  0.03070773  0.85405123  0.34727481  1  0.093697  0  0.095653  0.10029  0  1.023414  0
H  H42  1  0.53070941  0.64594129  0.84727528  1  0.09381  0  0.095682  0.100308  0  1.023386  0
H  H43  1  0.96930508  0.14595237  0.65273023  1  0.093806  0  0.095734  0.100366  0  1.02335  0
H  H44  1  0.51988808  0.42791704  0.21803403  1  0.054584  0  0.099951  0.108274  0  0.977857  0
H  H45  1  0.98011118  0.92791795  0.28196531  1  0.054553  0  0.09994  0.108307  0  0.977932  0
H  H46  1  0.48011379  0.57207621  0.78196531  1  0.054598  0  0.099952  0.108302  0  0.977834  0
H  H47  1  0.01989515  0.07207812  0.71803967  1  0.054609  0  0.099947  0.10834  0  0.977826  0
H  H48  1  0.73755686  0.38012421  0.13766112  1  0.072826  0  0.11176  0.125594  0  0.979601  0
H  H49  1  0.76244103  0.88012168  0.36233731  1  0.072764  0  0.111748  0.125573  0  0.979671  0
H  H50  1  0.26244718  0.61987374  0.86233823  1  0.072854  0  0.11176  0.125615  0  0.979624  0
H  H51  1  0.23756740  0.11988097  0.63766510  1  0.072712  0  0.111743  0.125539  0  0.979619  0
H  H52  1  0.45054288  0.70092012  0.14085261  1  0.092883  0  0.107901  0.119573  0  1.009085  0
H  H53  1  0.04945980  0.20091798  0.35915090  1  0.092944  0  0.107887  0.119546  0  1.009161  0
H  H54  1  0.54946012  0.29907501  0.85914889  1  0.092819  0  0.107925  0.119574  0  1.00906  0
H  H55  1  0.95054654  0.79908280  0.64085495  1  0.092757  0  0.10791  0.119523  0  1.009186  0
H  H56  1  0.63814351  0.82272514  0.09105923  1  0.153125  0  0.116865  0.097213  0  1.033091  0
H  H57  1  0.86185632  0.32271602  0.40894391  1  0.153221  0  0.116863  0.09724  0  1.03315  0
H  H58  1  0.36185519  0.17727375  0.90894310  1  0.153165  0  0.116851  0.097189  0  1.033109  0
H  H59  1  0.13814457  0.67728287  0.59105973  1  0.153258  0  0.116849  0.097246  0  1.033057  0
H  H60  1  0.91121686  0.51423232  0.08507496  1  0.105923  0  0.118856  0.097398  0  1.005873  0
H  H61  1  0.58878007  0.01422772  0.41492360  1  0.105857  0  0.118848  0.097403  0  1.005845  0
H  H62  1  0.08878719  0.48576939  0.91492482  1  0.105964  0  0.118874  0.097441  0  1.005841  0
H  H63  1  0.41122291  0.98577117  0.58507660  1  0.105844  0  0.118833  0.097395  0  1.005862  0
H  H64  1  0.73424398  0.19921633  0.55485546  1  0.665186  0  0.293254  0.386021  0  0.943005  0
H  H65  1  0.76575341  0.69921601  0.94514520  1  0.665175  0  0.293222  0.385946  0  0.943113  0
H  H66  1  0.26575469  0.80077974  0.44514557  1  0.665175  0  0.293225  0.385944  0  0.943117  0
H  H67  1  0.23424633  0.30078477  0.05485498  1  0.665167  0  0.293226  0.385954  0  0.943104  0
H  H68  1  0.62845420  0.08890652  0.54399986  1  0.61348  0  0.284449  0.375962  0  0.964156  0
H  H69  1  0.87154581  0.58890856  0.95600074  1  0.613512  0  0.284454  0.375978  0  0.96413  0
H  H70  1  0.37154338  0.91109049  0.45600073  1  0.613509  0  0.284489  0.376025  0  0.964084  0
H  H71  1  0.12845502  0.41109316  0.04399988  1  0.613485  0  0.284466  0.375975  0  0.964139  0
C  C72  1  0.70651398  0.52939044  0.45491739  1  1.663401  0  0.194098  0.531507  0  4.308592  0
C  C73  1  0.79347750  0.02938816  0.04507511  1  1.663778  0  0.193989  0.531378  0  4.308826  0
C  C74  1  0.29348235  0.47061504  0.54507543  1  1.663477  0  0.194099  0.53153  0  4.308606  0
C  C75  1  0.20651340  0.97060603  0.95491637  1  1.663107  0  0.194093  0.531452  0  4.308657  0
C  C76  1  0.77122501  0.65542806  0.47274271  1  0.551759  0  0.149683  0.188765  0  3.952999  0
C  C77  1  0.72876834  0.15542638  0.02725334  1  0.551151  0  0.149774  0.188794  0  3.953083  0
C  C78  1  0.22877141  0.34457460  0.52725399  1  0.551145  0  0.149741  0.188817  0  3.953029  0
C  C79  1  0.27122371  0.84457158  0.97274116  1  0.551664  0  0.149709  0.188854  0  3.953039  0
C  C80  1  0.91013075  0.69519808  0.45855261  1  0.374492  0  0.053683  -0.207689  0  3.89381  0
C  C81  1  0.58986502  0.19519493  0.04144523  1  0.375167  0  0.05362  -0.207618  0  3.893767  0
C  C82  1  0.08987114  0.30480175  0.54144716  1  0.375184  0  0.053678  -0.207634  0  3.893794  0
C  C83  1  0.41012814  0.80480396  0.95855059  1  0.374513  0  0.053702  -0.207656  0  3.89383  0
C  C84  1  0.95760156  0.81962158  0.47473441  1  1.338976  0  0.235651  0.490266  0  4.161238  0
C  C85  1  0.54239605  0.31962193  0.02526655  1  1.338877  0  0.235642  0.490278  0  4.161275  0
C  C86  1  0.04239931  0.18037637  0.52526794  1  1.33886  0  0.235624  0.490185  0  4.161381  0
C  C87  1  0.45760041  0.68038072  0.97473231  1  1.338952  0  0.235638  0.490266  0  4.161457  0
C  C88  1  0.71875989  0.85014006  0.51514042  1  1.809656  0  0.329947  0.637113  0  4.170082  0
C  C89  1  0.78124047  0.35013934  0.98485867  1  1.809569  0  0.329989  0.637221  0  4.170079  0
C  C90  1  0.28123985  0.14985978  0.48485976  1  1.809559  0  0.329942  0.637125  0  4.170127  0
C  C91  1  0.21875924  0.64986143  0.01514022  1  1.809606  0  0.32999  0.637234  0  4.169938  0
C  C92  1  0.32077923  0.41432232  0.36962882  1  0.416578  0  0.047229  0.108137  0  3.926073  0
C  C93  1  0.17921379  0.91432047  0.13037219  1  0.416899  0  0.047165  0.108029  0  3.926227  0
C  C94  1  0.67921944  0.58567940  0.63037179  1  0.416701  0  0.047213  0.108164  0  3.926079  0
C  C95  1  0.82078379  0.08567842  0.86962841  1  0.416742  0  0.047234  0.108166  0  3.926126  0
C  C96  1  0.44289947  0.24830366  0.32929960  1  0.460274  0  0.04117  0.095518  0  3.989751  0
C  C97  1  0.05709152  0.74830144  0.17070039  1  0.461513  0  0.041025  0.095306  0  3.990049  0
C  C98  1  0.55709916  0.75169806  0.67069971  1  0.460469  0  0.041103  0.095456  0  3.989799  0
C  C99  1  0.94290389  0.25169933  0.82929932  1  0.460895  0  0.041063  0.0954  0  3.989752  0
C  C100  1  0.37565459  0.26815302  0.27576773  1  -0.069937  0  -0.088954  -0.19898  0  3.979086  0
C  C101  1  0.12433543  0.76815317  0.22423228  1  -0.070623  0  -0.088869  -0.198814  0  3.979034  0
C  C102  1  0.62434405  0.73184775  0.72423201  1  -0.070154  0  -0.088904  -0.198888  0  3.978975  0
C  C103  1  0.87565999  0.23184854  0.77576787  1  -0.070554  0  -0.088866  -0.198808  0  3.979009  0
C  C104  1  0.24956089  0.44031948  0.31721182  1  0.026114  0  -0.087094  -0.185242  0  3.930699  0
C  C105  1  0.25042904  0.94032001  0.18278961  1  0.026444  0  -0.087079  -0.185212  0  3.930851  0
C  C106  1  0.75043561  0.55968035  0.68278877  1  0.026601  0  -0.087055  -0.185267  0  3.930786  0
C  C107  1  0.74956636  0.05967888  0.81721010  1  0.026602  0  -0.08711  -0.185302  0  3.930851  0
C  C108  1  0.27797836  0.36804329  0.26832535  1  0.003167  0  0.011843  0.165636  0  3.951851  0
C  C109  1  0.22201548  0.86804199  0.23167563  1  0.002855  0  0.011836  0.165508  0  3.952013  0
C  C110  1  0.72202247  0.63195655  0.73167571  1  0.00262  0  0.011833  0.165614  0  3.951772  0
C  C111  1  0.77797884  0.13195690  0.76832408  1  0.00277  0  0.011821  0.165514  0  3.952053  0
C  C112  1  0.21854395  0.40190675  0.20934738  1  -0.004341  0  -0.15518  -0.203839  0  3.930527  0
C  C113  1  0.28145331  0.90190498  0.29065321  1  -0.004347  0  -0.155195  -0.203832  0  3.930416  0
C  C114  1  0.78145797  0.59809402  0.79065411  1  -0.004248  0  -0.155218  -0.203958  0  3.930571  0
C  C115  1  0.71854750  0.09809579  0.70934654  1  -0.004684  0  -0.155169  -0.203731  0  3.930457  0
C  C116  1  0.31923360  0.49632306  0.17964277  1  -0.038271  0  -0.162482  -0.129446  0  3.919024  0
C  C117  1  0.18076526  0.99632474  0.32035748  1  -0.038244  0  -0.162476  -0.129365  0  3.918774  0
C  C118  1  0.68076935  0.50367489  0.82035614  1  -0.038227  0  -0.162479  -0.129414  0  3.918909  0
C  C119  1  0.81923773  0.00368262  0.67964316  1  -0.038275  0  -0.162509  -0.129333  0  3.918921  0
C  C120  1  0.47258970  0.44608654  0.17459241  1  -0.054888  0  -0.162594  -0.214308  0  3.955397  0
C  C121  1  0.02740778  0.94608572  0.32540650  1  -0.054905  0  -0.162569  -0.214418  0  3.955483  0
C  C122  1  0.52741219  0.55390953  0.82540736  1  -0.054938  0  -0.162605  -0.214328  0  3.95537  0
C  C123  1  0.97259744  0.05391505  0.67459718  1  -0.054998  0  -0.162671  -0.214562  0  3.955582  0
C  C124  1  0.57729703  0.52841137  0.14386865  1  0.008139  0  0.017077  0.182847  0  3.924761  0
C  C125  1  0.92270109  0.02840983  0.35613123  1  0.008003  0  0.017117  0.182883  0  3.924774  0
C  C126  1  0.42270593  0.47158470  0.85613069  1  0.007954  0  0.01709  0.18283  0  3.924894  0
C  C127  1  0.07730305  0.97159188  0.64387287  1  0.008093  0  0.017022  0.182744  0  3.924999  0
C  C128  1  0.71080051  0.47805910  0.12808273  1  -0.044439  0  -0.090011  -0.193642  0  3.955622  0
C  C129  1  0.78919685  0.97805578  0.37191577  1  -0.044265  0  -0.090011  -0.193641  0  3.955847  0
C  C130  1  0.28920569  0.52193886  0.87191664  1  -0.044216  0  -0.090001  -0.193659  0  3.95572  0
C  C131  1  0.21080509  0.02194406  0.62808615  1  -0.044238  0  -0.089938  -0.193493  0  3.955804  0
C  C132  1  0.55131821  0.65475161  0.12998342  1  -0.09726  0  -0.08794  -0.184527  0  3.916018  0
C  C133  1  0.94868390  0.15474929  0.37001832  1  -0.0973  0  -0.087947  -0.184462  0  3.916032  0
C  C134  1  0.44868480  0.34524258  0.87001808  1  -0.09712  0  -0.087968  -0.184519  0  3.916047  0
C  C135  1  0.05131917  0.84525242  0.62998621  1  -0.097215  0  -0.087916  -0.184358  0  3.916155  0
C  C136  1  0.65556413  0.72381295  0.10152427  1  0.485901  0  0.046784  0.103344  0  3.937059  0
C  C137  1  0.84443622  0.22380560  0.39847794  1  0.486586  0  0.04679  0.103288  0  3.937189  0
C  C138  1  0.34443672  0.27618500  0.89847721  1  0.486234  0  0.046771  0.103382  0  3.937093  0
C  C139  1  0.15556467  0.77619424  0.60152571  1  0.486528  0  0.046705  0.103171  0  3.937227  0
C  C140  1  0.80823023  0.55181687  0.09892262  1  0.467234  0  0.035694  0.077205  0  3.993221  0
C  C141  1  0.69176693  0.05181077  0.40107684  1  0.467367  0  0.035675  0.077212  0  3.993337  0
C  C142  1  0.19177275  0.44818108  0.90107758  1  0.466545  0  0.035626  0.077113  0  3.993408  0
C  C143  1  0.30823497  0.94818813  0.59892379  1  0.467197  0  0.035617  0.077075  0  3.993317  0
N  N144  1  0.00427796  0.61327593  0.42812589  1  0.331665  0  0.049764  0.555011  0  4.222645  0
N  N145  1  0.49571659  0.11327647  0.07187359  1  0.33209  0  0.049658  0.554768  0  4.222999  0
N  N146  1  0.99572395  0.38672296  0.57187474  1  0.332194  0  0.04971  0.554889  0  4.222812  0
N  N147  1  0.50427767  0.88672430  0.92812309  1  0.331658  0  0.049607  0.554729  0  4.222982  0
N  N148  1  0.67881311  0.73072813  0.49946549  1  -1.208357  0  -0.350259  -0.433254  0  3.414659  0
N  N149  1  0.82118284  0.23072674  0.00053194  1  -1.208277  0  -0.35033  -0.433371  0  3.414735  0
N  N150  1  0.32118331  0.26927453  0.50053164  1  -1.208366  0  -0.350327  -0.433335  0  3.414685  0
N  N151  1  0.17881360  0.76927310  0.99946606  1  -1.20837  0  -0.350336  -0.433436  0  3.414773  0
N  N152  1  0.85655591  0.88870423  0.50405080  1  -1.312537  0  -0.386886  -0.443397  0  3.536214  0
N  N153  1  0.64344577  0.38870486  0.99594919  1  -1.312491  0  -0.386872  -0.443425  0  3.536149  0
N  N154  1  0.14344491  0.11129560  0.49594982  1  -1.31279  0  -0.386895  -0.4434  0  3.536182  0
N  N155  1  0.35655502  0.61129779  0.00404971  1  -1.312451  0  -0.386852  -0.443431  0  3.536219  0
N  N156  1  0.41757376  0.32033248  0.37554490  1  -1.235491  0  -0.330253  -0.252668  0  3.518945  0
N  N157  1  0.08241657  0.82033114  0.12445601  1  -1.236225  0  -0.330184  -0.252579  0  3.518998  0
N  N158  1  0.58242489  0.67966830  0.62445484  1  -1.235476  0  -0.330284  -0.252754  0  3.518924  0
N  N159  1  0.91757997  0.17966681  0.87554630  1  -1.235454  0  -0.330264  -0.25271  0  3.518855  0
N  N160  1  0.78149984  0.67325843  0.08565060  1  -1.222775  0  -0.338701  -0.259635  0  3.547032  0
N  N161  1  0.71849911  0.17325155  0.41435026  1  -1.223546  0  -0.338715  -0.259683  0  3.547131  0
N  N162  1  0.21850208  0.32674140  0.91435089  1  -1.222624  0  -0.33864  -0.259628  0  3.547245  0
N  N163  1  0.28150170  0.82674734  0.58564950  1  -1.223312  0  -0.338576  -0.259473  0  3.546917  0
O  O164  1  0.67575218  0.45804173  0.49768792  1  -1.145966  0  -0.32726  -0.527262  0  2.240616  0
O  O165  1  0.82424063  0.95804095  0.00230534  1  -1.146145  0  -0.327284  -0.527283  0  2.240813  0
O  O166  1  0.32424092  0.54196187  0.50230530  1  -1.146182  0  -0.32729  -0.527309  0  2.240803  0
O  O167  1  0.17575135  0.04195794  0.99768614  1  -1.145868  0  -0.327301  -0.527277  0  2.240767  0
O  O168  1  0.68077782  0.51063461  0.40268478  1  -1.142021  0  -0.326875  -0.524882  0  2.076126  0
O  O169  1  0.81921682  0.01063074  0.09730902  1  -1.142074  0  -0.326753  -0.524771  0  2.075989  0
O  O170  1  0.31922178  0.48937369  0.59730936  1  -1.141807  0  -0.326835  -0.524863  0  2.0759  0
O  O171  1  0.18077623  0.98936345  0.90268205  1  -1.14178  0  -0.326858  -0.524855  0  2.07606  0
O  O172  1  0.98918368  0.49751480  0.43359828  1  -0.492315  0  -0.132599  -0.352304  0  1.995772  0
O  O173  1  0.51080732  0.99751577  0.06640061  1  -0.493095  0  -0.132543  -0.352169  0  1.995832  0
O  O174  1  0.01081385  0.50248410  0.56639973  1  -0.493106  0  -0.132607  -0.352302  0  1.995821  0
O  O175  1  0.48918802  0.00248595  0.93359608  1  -0.49275  0  -0.132558  -0.352209  0  1.99587  0
O  O176  1  0.09717400  0.66153480  0.39671458  1  -0.502635  0  -0.140225  -0.361755  0  1.955175  0
O  O177  1  0.40282297  0.16153695  0.10328497  1  -0.502697  0  -0.140163  -0.361694  0  1.955385  0
O  O178  1  0.90282790  0.33846315  0.60328605  1  -0.50273  0  -0.140169  -0.361669  0  1.955211  0
O  O179  1  0.59717672  0.83846288  0.89671349  1  -0.502283  0  -0.140132  -0.361595  0  1.955293  0
O  O180  1  0.07862265  0.86810702  0.46610242  1  -1.167332  0  -0.285124  -0.496782  0  2.267609  0
O  O181  1  0.42137986  0.36810994  0.03389949  1  -1.167353  0  -0.28511  -0.49679  0  2.267647  0
O  O182  1  0.92138261  0.13189093  0.53390298  1  -1.167359  0  -0.28509  -0.496718  0  2.26765  0
O  O183  1  0.57862205  0.63189460  0.96610114  1  -1.167297  0  -0.285123  -0.496791  0  2.267648  0
O  O184  1  0.63089854  0.92157895  0.53927529  1  -1.182858  0  -0.297341  -0.548008  0  2.171358  0
O  O185  1  0.86910333  0.42157851  0.96072515  1  -1.182793  0  -0.29735  -0.548045  0  2.171385  0
O  O186  1  0.36910229  0.07842089  0.46072533  1  -1.182791  0  -0.29733  -0.548017  0  2.171371  0
O  O187  1  0.13089967  0.57842038  0.03927592  1  -1.182807  0  -0.297339  -0.547999  0  2.171301  0
O  O188  1  0.63025167  0.18132014  0.54992015  1  -1.249395  0  -0.595281  -0.746886  0  2.027897  0
O  O189  1  0.86974560  0.68132120  0.95007964  1  -1.249398  0  -0.595258  -0.746829  0  2.027991  0
O  O190  1  0.36974590  0.81867688  0.45008001  1  -1.249394  0  -0.595288  -0.746851  0  2.027919  0
O  O191  1  0.13025413  0.31867957  0.04992011  1  -1.249379  0  -0.595266  -0.746817  0  2.027948  0
