# generated using pymatgen
data_AlH15(C3O)12
_symmetry_space_group_name_H-M   'P 1'
_cell_length_a   4.15340443
_cell_length_b   20.11069719
_cell_length_c   20.42539657
_cell_angle_alpha   61.05822913
_cell_angle_beta   84.60512673
_cell_angle_gamma   83.75650501
_symmetry_Int_Tables_number   1
_chemical_formula_structural   AlH15(C3O)12
_chemical_formula_sum   'Al1 H15 C36 O12'
_cell_volume   1482.48296973
_cell_formula_units_Z   1
loop_
 _symmetry_equiv_pos_site_id
 _symmetry_equiv_pos_as_xyz
  1  'x, y, z'
loop_
 _atom_site_type_symbol
 _atom_site_label
 _atom_site_symmetry_multiplicity
 _atom_site_fract_x
 _atom_site_fract_y
 _atom_site_fract_z
 _atom_site_occupancy
 _atom_site_pbe_bader_charge
 _atom_site_pbe_bader_spin_density
 _atom_site_pbe_cm5_charge
 _atom_site_pbe_ddec_charge
 _atom_site_pbe_ddec_spin_density
 _atom_site_pbe_ddec_sum_bond_order
 _atom_site_pbe_magmom
Al  Al0  1  0.02745246  0.49719461  0.50412973  1  2.513987  0  0.443953  1.627422  0  2.535356  0
H  H1  1  0.83247798  0.30709764  0.70744324  1  0.096404  0  0.113736  0.119012  0  0.981468  0
H  H2  1  0.81034709  0.23591130  0.84751857  1  0.084072  0  0.112928  0.121151  0  0.976751  0
H  H3  1  0.22195804  0.70761360  0.31622997  1  0.09007  0  0.112002  0.116229  0  0.985059  0
H  H4  1  0.22601383  0.84989352  0.24473734  1  0.108932  0  0.11865  0.131015  0  0.966625  0
H  H5  1  0.30997207  0.30884664  0.48317236  1  0.111654  0  0.111801  0.117258  0  0.985123  0
H  H6  1  0.34200136  0.23694484  0.41129636  1  0.092609  0  0.110072  0.11717  0  0.980065  0
H  H7  1  0.74289319  0.70375624  0.49043260  1  0.109562  0  0.10985  0.114163  0  0.988669  0
H  H8  1  0.71981381  0.84613722  0.42334307  1  0.084333  0  0.108095  0.114091  0  0.986593  0
H  H9  1  0.16823875  0.48413779  0.71223105  1  0.096591  0  0.113132  0.118786  0  0.982339  0
H  H10  1  0.16898536  0.41763638  0.85220378  1  0.065815  0  0.110527  0.117411  0  0.980124  0
H  H11  1  0.88591427  0.47883291  0.30910983  1  0.070697  0  0.112442  0.117611  0  0.982401  0
H  H12  1  0.89506308  0.41134558  0.23332760  1  0.08039  0  0.110806  0.11723  0  0.980886  0
H  H13  1  0.25579128  0.05353988  0.36660625  1  0.669675  0  0.314672  0.382891  0  0.957969  0
H  H14  1  0.24548240  0.36893288  0.04790601  1  0.688488  0  0.31316  0.380339  0  0.961233  0
H  H15  1  0.18697145  0.17360305  0.00647326  1  0.578931  0  0.296857  0.331545  0  0.981467  0
C  C16  1  0.50754283  0.44016724  0.61845147  1  1.555563  0  0.27469  0.653557  0  4.063052  0
C  C17  1  0.57984271  0.43887882  0.44498333  1  1.580455  0  0.274667  0.65569  0  4.061921  0
C  C18  1  0.49482114  0.61296043  0.44851103  1  1.527218  0  0.274798  0.657947  0  4.059271  0
C  C19  1  0.68349563  0.32983544  0.73989705  1  0.041243  0  -0.074318  -0.083817  0  3.972856  0
C  C20  1  0.67322455  0.29064730  0.81762911  1  -0.081569  0  -0.07541  -0.119941  0  3.940595  0
C  C21  1  0.33399650  0.73851431  0.33852366  1  0.039776  0  -0.075552  -0.083962  0  3.979026  0
C  C22  1  0.33359132  0.81734899  0.29910456  1  -0.081455  0  -0.068997  -0.110833  0  3.905766  0
C  C23  1  0.44419381  0.32957073  0.42932071  1  -0.10502  0  -0.076892  -0.086081  0  3.983869  0
C  C24  1  0.46054173  0.28989968  0.38922289  1  0.024724  0  -0.07727  -0.124295  0  3.949044  0
C  C25  1  0.62433046  0.73648472  0.43747316  1  -0.115284  0  -0.079355  -0.085686  0  3.98906  0
C  C26  1  0.61292158  0.81545679  0.40005046  1  0.030368  0  -0.079047  -0.128894  0  3.958157  0
C  C27  1  0.31187187  0.43046506  0.74256462  1  -0.038319  0  -0.075278  -0.086666  0  3.977917  0
C  C28  1  0.31081264  0.39328792  0.82026684  1  0.043463  0  -0.077176  -0.122424  0  3.9494  0
C  C29  1  0.76540409  0.42625035  0.33050875  1  -0.008225  0  -0.075511  -0.084232  0  3.979065  0
C  C30  1  0.77161105  0.38857590  0.28854483  1  -0.044379  0  -0.077817  -0.124998  0  3.945245  0
C  C31  1  0.50014906  0.39936211  0.70192936  1  0.001928  0  -0.004424  -0.028159  0  3.944545  0
C  C32  1  0.48857147  0.32238255  0.85878547  1  0.120462  0  -0.000911  0.119885  0  4.124502  0
C  C33  1  0.48231459  0.28268615  0.93813128  1  -0.112065  0  -0.019817  -0.057805  0  4.045474  0
C  C34  1  0.47837360  0.24599996  0.00647583  1  -0.283181  0  -0.052724  -0.147457  0  4.161454  0
C  C35  1  0.48668631  0.20466477  0.08584100  1  0.01801  0  0.003501  0.091856  0  4.118315  0
C  C36  1  0.48272912  0.69751412  0.40739619  1  0.022267  0  -0.009723  -0.045796  0  3.965857  0
C  C37  1  0.47163475  0.85683548  0.32976612  1  0.077336  0  0.008474  0.13344  0  4.107919  0
C  C38  1  0.47322063  0.93690668  0.28877165  1  -0.499634  0  -0.017322  -0.053536  0  4.029979  0
C  C39  1  0.47657688  0.00537969  0.24720574  1  0.225209  0  -0.037653  -0.090907  0  4.10723  0
C  C40  1  0.49064159  0.08503209  0.20447128  1  0.16797  0  0.020207  0.122773  0  4.065649  0
C  C41  1  0.59932929  0.39748806  0.40075035  1  0.023262  0  -0.007888  -0.036739  0  3.954034  0
C  C42  1  0.62174207  0.31940129  0.31775839  1  0.099882  0  0.004354  0.129292  0  4.120585  0
C  C43  1  0.62395679  0.28021735  0.27598147  1  -0.384954  0  -0.020299  -0.059173  0  4.046941  0
C  C44  1  0.61602274  0.24522393  0.24136736  1  0.048283  0  -0.042125  -0.097635  0  4.097916  0
C  C45  1  0.57864300  0.20493214  0.20232015  1  0.054844  0  0.01855  0.12352  0  4.085024  0
C  C46  1  0.44425447  0.12529256  0.12603710  1  0.077061  0  -0.000957  -0.133775  0  3.842618  0
C  C47  1  0.55705118  0.12547212  0.24159581  1  0.068907  0  0.01032  -0.111091  0  3.849117  0
C  C48  1  0.55589619  0.24380029  0.12389369  1  0.061971  0  0.002999  -0.116732  0  3.873018  0
C  C49  1  0.67534334  0.08391474  0.32012740  1  1.602046  0  0.256786  0.629356  0  4.086297  0
C  C50  1  0.66829975  0.32310094  0.08123825  1  1.583156  0  0.252613  0.62811  0  4.083589  0
C  C51  1  0.36639204  0.08046901  0.08870774  1  1.541373  0  0.227319  0.575365  0  4.1059  0
O  O52  1  0.27993573  0.58037834  0.43557880  1  -1.257768  0  -0.238995  -0.603879  0  2.345751  0
O  O53  1  0.26074535  0.48483340  0.58750618  1  -1.252643  0  -0.236231  -0.596125  0  2.34592  0
O  O54  1  0.33761450  0.42664970  0.49199499  1  -1.2668  0  -0.242834  -0.613779  0  2.372529  0
O  O55  1  0.72150574  0.57867163  0.49441302  1  -1.268939  0  -0.243207  -0.615665  0  2.368303  0
O  O56  1  0.80319002  0.48278586  0.43329560  1  -1.248156  0  -0.236368  -0.596722  0  2.337516  0
O  O57  1  0.76136403  0.42679170  0.58496834  1  -1.260178  0  -0.239671  -0.603013  0  2.358192  0
O  O58  1  0.49466946  0.04428446  0.37993796  1  -1.161969  0  -0.316303  -0.463055  0  2.253371  0
O  O59  1  0.96530035  0.08954705  0.32421058  1  -1.169738  0  -0.267718  -0.498023  0  2.306079  0
O  O60  1  0.48276028  0.38212346  0.03674210  1  -1.186315  0  -0.320341  -0.464556  0  2.246968  0
O  O61  1  0.95309212  0.32962402  0.08882546  1  -1.165075  0  -0.270204  -0.499474  0  2.2923  0
O  O62  1  0.19563655  0.11817213  0.02545509  1  -1.087572  0  -0.343129  -0.470008  0  2.244049  0
O  O63  1  0.43911775  0.01259537  0.11434238  1  -1.099749  0  -0.260494  -0.419185  0  2.083004  0
