# generated using pymatgen
data_K2P2H22C10O13
_symmetry_space_group_name_H-M   'P 1'
_cell_length_a   7.00819736
_cell_length_b   8.10358390
_cell_length_c   17.53583135
_cell_angle_alpha   101.32065175
_cell_angle_beta   101.49085676
_cell_angle_gamma   90.02408647
_symmetry_Int_Tables_number   1
_chemical_formula_structural   K2P2H22C10O13
_chemical_formula_sum   'K4 P4 H44 C20 O26'
_cell_volume   956.12783021
_cell_formula_units_Z   2
loop_
 _symmetry_equiv_pos_site_id
 _symmetry_equiv_pos_as_xyz
  1  'x, y, z'
loop_
 _atom_site_type_symbol
 _atom_site_label
 _atom_site_symmetry_multiplicity
 _atom_site_fract_x
 _atom_site_fract_y
 _atom_site_fract_z
 _atom_site_occupancy
 _atom_site_hle17_bader_spin_density
 _atom_site_hle17_ddec_charge
 _atom_site_hle17_ddec_spin_density
 _atom_site_hle17_ddec_sum_bond_order
 _atom_site_hle17_magmom
 _atom_site_hse06_10hf_bader_spin_density
 _atom_site_hse06_10hf_ddec_charge
 _atom_site_hse06_10hf_ddec_spin_density
 _atom_site_hse06_10hf_ddec_sum_bond_order
 _atom_site_hse06_10hf_magmom
 _atom_site_hse06_bader_spin_density
 _atom_site_hse06_ddec_charge
 _atom_site_hse06_ddec_spin_density
 _atom_site_hse06_ddec_sum_bond_order
 _atom_site_hse06_magmom
 _atom_site_pbe_bader_spin_density
 _atom_site_pbe_cm5_charge
 _atom_site_pbe_ddec_charge
 _atom_site_pbe_ddec_spin_density
 _atom_site_pbe_ddec_sum_bond_order
 _atom_site_pbe_magmom
K  K0  1  0.77752615  0.42349278  0.92507425  1  0  0.948678  0  0.467248  0  0  0.914603  0  0.632896  0  0  0.925751  0  0.612866  0  0  0.830578  0.906099  0  0.647267  0
K  K1  1  0.85198369  0.07645305  0.07494960  1  0  0.948806  0  0.467633  0  0  0.9148  0  0.63323  0  0  0.925817  0  0.613439  0  0  0.831208  0.906329  0  0.647548  0
K  K2  1  0.22246085  0.57650936  0.07492828  1  0  0.948684  0  0.467225  0  0  0.914585  0  0.632895  0  0  0.925731  0  0.612866  0  0  0.830588  0.906078  0  0.647265  0
K  K3  1  0.14802186  0.92354151  0.92505426  1  0  0.948783  0  0.467634  0  0  0.914799  0  0.633211  0  0  0.92582  0  0.61341  0  0  0.831209  0.906329  0  0.647527  0
P  P4  1  0.20648293  0.45817899  0.85529733  1  0  1.602162  0  4.926172  0  0  1.432865  0  5.451538  0  0  1.489989  0  5.399683  0  0  0.386399  1.393066  0  5.486799  0
P  P5  1  0.35051262  0.04192018  0.14465406  1  0  1.600084  0  4.933159  0  0  1.430619  0  5.458732  0  0  1.487944  0  5.406703  0  0  0.385073  1.390697  0  5.494075  0
P  P6  1  0.79349994  0.54182819  0.14470534  1  0  1.60209  0  4.926201  0  0  1.432776  0  5.45157  0  0  1.489899  0  5.399718  0  0  0.386356  1.392974  0  5.486828  0
P  P7  1  0.64950203  0.95808196  0.85534838  1  0  1.600295  0  4.932784  0  0  1.430864  0  5.458332  0  0  1.488186  0  5.40631  0  0  0.385208  1.390942  0  5.493681  0
H  H8  1  0.94858855  0.08977394  0.73927742  1  0  0.102938  0  0.938007  0  0  0.110095  0  1.005357  0  0  0.112438  0  1.003299  0  0  0.119424  0.10826  0  1.007073  0
H  H9  1  0.20898309  0.41036281  0.26080262  1  0  0.102698  0  0.936957  0  0  0.110084  0  1.004231  0  0  0.112414  0  1.002242  0  0  0.119311  0.108247  0  1.005946  0
H  H10  1  0.05141293  0.91022701  0.26071987  1  0  0.102907  0  0.938035  0  0  0.110062  0  1.005411  0  0  0.112405  0  1.003354  0  0  0.119421  0.108224  0  1.007123  0
H  H11  1  0.79102427  0.58963938  0.73919640  1  0  0.102691  0  0.936991  0  0  0.110063  0  1.004285  0  0  0.112388  0  1.002299  0  0  0.11933  0.108228  0  1.005999  0
H  H12  1  0.20809367  0.12667295  0.76991235  1  0  0.089499  0  0.933817  0  0  0.098335  0  1.000892  0  0  0.100118  0  0.999543  0  0  0.11759  0.096904  0  1.002082  0
H  H13  1  0.43776530  0.37341211  0.23006247  1  0  0.089626  0  0.933631  0  0  0.098445  0  1.000724  0  0  0.100298  0  0.999358  0  0  0.117557  0.096982  0  1.001939  0
H  H14  1  0.79190465  0.87332293  0.23008707  1  0  0.089481  0  0.933843  0  0  0.098313  0  1.000932  0  0  0.100095  0  0.999585  0  0  0.117591  0.096883  0  1.00212  0
H  H15  1  0.56223612  0.62658756  0.76993697  1  0  0.089624  0  0.933548  0  0  0.098413  0  1.00067  0  0  0.100264  0  0.999306  0  0  0.11755  0.09695  0  1.001887  0
H  H16  1  0.37768175  0.35462646  0.72203455  1  0  0.078798  0  0.929824  0  0  0.089393  0  0.997521  0  0  0.090536  0  0.996622  0  0  0.112113  0.088412  0  0.998424  0
H  H17  1  0.65492755  0.14534180  0.27784103  1  0  0.079124  0  0.929579  0  0  0.089852  0  0.997611  0  0  0.090972  0  0.996763  0  0  0.112249  0.0889  0  0.998469  0
H  H18  1  0.62231682  0.64537446  0.27796536  1  0  0.078759  0  0.929799  0  0  0.08934  0  0.99754  0  0  0.090483  0  0.996646  0  0  0.112112  0.088387  0  0.998415  0
H  H19  1  0.34508266  0.85465914  0.72215752  1  0  0.079076  0  0.929779  0  0  0.089797  0  0.99778  0  0  0.090939  0  0.996911  0  0  0.112229  0.088846  0  0.99864  0
H  H20  1  0.23560099  0.48084742  0.66035472  1  0  0.084458  0  0.935616  0  0  0.096495  0  0.998934  0  0  0.097752  0  0.997918  0  0  0.109341  0.095484  0  0.999851  0
H  H21  1  0.57440268  0.01914458  0.33957155  1  0  0.085913  0  0.935123  0  0  0.097326  0  0.999116  0  0  0.098596  0  0.998132  0  0  0.109765  0.096324  0  0.999973  0
H  H22  1  0.76439619  0.51915474  0.33964691  1  0  0.084425  0  0.935589  0  0  0.096475  0  0.998914  0  0  0.097734  0  0.9979  0  0  0.109332  0.095464  0  0.999832  0
H  H23  1  0.42559456  0.98085887  0.66042792  1  0  0.085889  0  0.935144  0  0  0.097295  0  0.99913  0  0  0.098565  0  0.998149  0  0  0.109725  0.096291  0  0.999988  0
H  H24  1  0.02347505  0.26390672  0.52955579  1  0  0.074514  0  0.961263  0  0  0.088286  0  1.033772  0  0  0.089878  0  1.032286  0  0  0.093076  0.086994  0  1.034958  0
H  H25  1  0.49293989  0.23606334  0.47041941  1  0  0.074703  0  0.961074  0  0  0.088119  0  1.033972  0  0  0.089734  0  1.032478  0  0  0.093107  0.086842  0  1.035141  0
H  H26  1  0.97652916  0.73609040  0.47044535  1  0  0.074521  0  0.961197  0  0  0.088304  0  1.033706  0  0  0.089892  0  1.032223  0  0  0.093077  0.087013  0  1.034891  0
H  H27  1  0.50706002  0.76393506  0.52957980  1  0  0.074712  0  0.961075  0  0  0.088124  0  1.033975  0  0  0.089739  0  1.032484  0  0  0.093112  0.086848  0  1.035141  0
H  H28  1  0.15339969  0.07587136  0.50833681  1  0  0.09113  0  0.941438  0  0  0.111177  0  1.003051  0  0  0.111722  0  1.002695  0  0  0.102552  0.1106  0  1.003508  0
H  H29  1  0.64432270  0.42403528  0.49163094  1  0  0.090997  0  0.941781  0  0  0.110886  0  1.003714  0  0  0.111466  0  1.003365  0  0  0.102494  0.110315  0  1.004143  0
H  H30  1  0.84659888  0.92412958  0.49166139  1  0  0.091151  0  0.941438  0  0  0.111199  0  1.003052  0  0  0.111745  0  1.002696  0  0  0.102572  0.110627  0  1.003504  0
H  H31  1  0.35567721  0.57596310  0.50837055  1  0  0.090979  0  0.941801  0  0  0.110881  0  1.003721  0  0  0.111461  0  1.00337  0  0  0.102492  0.110309  0  1.004151  0
H  H32  1  0.28287009  0.26675758  0.56219997  1  0  0.069785  0  0.960167  0  0  0.088531  0  1.026648  0  0  0.089167  0  1.026419  0  0  0.091992  0.087941  0  1.026955  0
H  H33  1  0.71985673  0.23317138  0.43778407  1  0  0.069286  0  0.960633  0  0  0.088641  0  1.026395  0  0  0.089263  0  1.026179  0  0  0.09217  0.088031  0  1.02674  0
H  H34  1  0.71713157  0.73324713  0.43779940  1  0  0.06981  0  0.960166  0  0  0.088593  0  1.026614  0  0  0.089229  0  1.026387  0  0  0.092016  0.088001  0  1.026927  0
H  H35  1  0.28014323  0.76682827  0.56221640  1  0  0.069295  0  0.960634  0  0  0.088658  0  1.026386  0  0  0.089281  0  1.026169  0  0  0.092169  0.088041  0  1.026738  0
H  H36  1  0.72133078  0.13118164  0.60673258  1  0  0.078813  0  0.953175  0  0  0.092675  0  1.024265  0  0  0.09455  0  1.022347  0  0  0.091016  0.091229  0  1.025739  0
H  H37  1  0.11384914  0.36877577  0.39328950  1  0  0.078798  0  0.952523  0  0  0.093131  0  1.023143  0  0  0.094947  0  1.021266  0  0  0.090994  0.091729  0  1.024569  0
H  H38  1  0.27866475  0.86881677  0.39326629  1  0  0.078843  0  0.953175  0  0  0.0927  0  1.024249  0  0  0.094575  0  1.022332  0  0  0.091012  0.091253  0  1.025724  0
H  H39  1  0.88615094  0.63122643  0.60670894  1  0  0.07881  0  0.952513  0  0  0.093144  0  1.023134  0  0  0.094961  0  1.021256  0  0  0.090993  0.091736  0  1.024567  0
H  H40  1  0.60903733  0.33204594  0.62148495  1  0  0.079885  0  0.973994  0  0  0.094678  0  1.048096  0  0  0.095219  0  1.048102  0  0  0.095959  0.094161  0  1.048264  0
H  H41  1  0.98680386  0.16783864  0.37855229  1  0  0.080914  0  0.973191  0  0  0.095891  0  1.047082  0  0  0.096424  0  1.04706  0  0  0.096406  0.095385  0  1.047234  0
H  H42  1  0.39095992  0.66795746  0.37851794  1  0  0.079954  0  0.973927  0  0  0.094724  0  1.048041  0  0  0.095264  0  1.048049  0  0  0.095972  0.094208  0  1.048207  0
H  H43  1  0.01319350  0.83216734  0.62144628  1  0  0.080871  0  0.973155  0  0  0.095878  0  1.047029  0  0  0.096411  0  1.047007  0  0  0.096387  0.095371  0  1.047181  0
H  H44  1  0.69610252  0.23365220  0.70392532  1  0  0.095378  0  0.952058  0  0  0.109758  0  1.020423  0  0  0.111702  0  1.018562  0  0  0.10337  0.108233  0  1.02194  0
H  H45  1  0.99161257  0.26628341  0.29610125  1  0  0.095687  0  0.952145  0  0  0.110148  0  1.020346  0  0  0.112075  0  1.018462  0  0  0.103693  0.108613  0  1.021902  0
H  H46  1  0.30389617  0.76635124  0.29607484  1  0  0.095389  0  0.952046  0  0  0.109776  0  1.020395  0  0  0.111726  0  1.018528  0  0  0.103366  0.108253  0  1.021909  0
H  H47  1  0.00838909  0.73372131  0.70389698  1  0  0.095655  0  0.952169  0  0  0.110134  0  1.020361  0  0  0.112061  0  1.018479  0  0  0.103682  0.108597  0  1.021921  0
H  H48  1  0.63830492  0.71485821  0.04039824  1  0  0.415072  0  0.892279  0  0  0.388177  0  0.950916  0  0  0.398525  0  0.935434  0  0  0.293004  0.380858  0  0.961858  0
H  H49  1  0.59802628  0.78483676  0.95951904  1  0  0.413493  0  0.894371  0  0  0.386861  0  0.952833  0  0  0.397237  0  0.937281  0  0  0.292107  0.379531  0  0.963814  0
H  H50  1  0.36169359  0.28514143  0.95960325  1  0  0.414971  0  0.892427  0  0  0.3881  0  0.951023  0  0  0.39845  0  0.935537  0  0  0.292957  0.38078  0  0.961965  0
H  H51  1  0.40197515  0.21516288  0.04048212  1  0  0.413552  0  0.894304  0  0  0.38693  0  0.95275  0  0  0.397305  0  0.9372  0  0  0.29216  0.379601  0  0.963729  0
C  C52  1  0.06799968  0.18534303  0.75403706  1  0  -0.000976  0  3.584839  0  0  -0.062337  0  3.841806  0  0  -0.057302  0  3.844773  0  0  -0.060842  -0.065613  0  3.839833  0
C  C53  1  0.31353616  0.31475776  0.24599810  1  0  -0.001888  0  3.583025  0  0  -0.063235  0  3.839836  0  0  -0.058389  0  3.843044  0  0  -0.060852  -0.066451  0  3.837829  0
C  C54  1  0.93200022  0.81465538  0.24596158  1  0  -0.00091  0  3.584921  0  0  -0.062266  0  3.841895  0  0  -0.057227  0  3.844856  0  0  -0.060822  -0.065534  0  3.839921  0
C  C55  1  0.68646830  0.68524442  0.75400182  1  0  -0.00179  0  3.582891  0  0  -0.063138  0  3.839608  0  0  -0.058278  0  3.842797  0  0  -0.06082  -0.066359  0  3.837611  0
C  C56  1  0.07560843  0.27069270  0.68368462  1  0  0.365101  0  3.648862  0  0  0.344476  0  3.908482  0  0  0.357021  0  3.915027  0  0  0.146364  0.335687  0  3.904042  0
C  C57  1  0.39132038  0.22930897  0.31628088  1  0  0.365837  0  3.646994  0  0  0.345551  0  3.906508  0  0  0.358055  0  3.912993  0  0  0.147406  0.336823  0  3.902092  0
C  C58  1  0.92438874  0.72930948  0.31631472  1  0  0.365012  0  3.649077  0  0  0.344306  0  3.908815  0  0  0.356859  0  3.915336  0  0  0.146344  0.33551  0  3.904398  0
C  C59  1  0.60868407  0.77069320  0.68371961  1  0  0.365912  0  3.646948  0  0  0.345889  0  3.906033  0  0  0.358388  0  3.912522  0  0  0.147456  0.337161  0  3.901621  0
C  C60  1  0.23571986  0.41182884  0.70815495  1  0  -0.000705  0  3.613715  0  0  -0.069859  0  3.882195  0  0  -0.063935  0  3.885274  0  0  -0.065684  -0.073847  0  3.88032  0
C  C61  1  0.52680816  0.08813825  0.29176251  1  0  -0.00318  0  3.613852  0  0  -0.073006  0  3.883892  0  0  -0.067026  0  3.887017  0  0  -0.066364  -0.077032  0  3.881975  0
C  C62  1  0.76428016  0.58817207  0.29184507  1  0  -0.000517  0  3.613595  0  0  -0.069674  0  3.882167  0  0  -0.063766  0  3.885272  0  0  -0.06562  -0.073682  0  3.880288  0
C  C63  1  0.47319502  0.91186771  0.70823709  1  0  -0.003129  0  3.614082  0  0  -0.072946  0  3.883979  0  0  -0.06698  0  3.887093  0  0  -0.06628  -0.076957  0  3.882019  0
C  C64  1  0.14648913  0.19091899  0.55243069  1  0  -0.072082  0  3.66508  0  0  -0.168612  0  3.932694  0  0  -0.162245  0  3.935696  0  0  -0.149445  -0.172666  0  3.930726  0
C  C65  1  0.59325941  0.30899655  0.44754112  1  0  -0.072034  0  3.66389  0  0  -0.168665  0  3.931286  0  0  -0.162393  0  3.934288  0  0  -0.149659  -0.172694  0  3.929309  0
C  C66  1  0.85351084  0.80908066  0.44756979  1  0  -0.072121  0  3.664972  0  0  -0.168705  0  3.932579  0  0  -0.162337  0  3.935582  0  0  -0.149479  -0.172762  0  3.930606  0
C  C67  1  0.40673909  0.69100311  0.55245810  1  0  -0.071999  0  3.663854  0  0  -0.168646  0  3.931274  0  0  -0.16237  0  3.934274  0  0  -0.149641  -0.17267  0  3.929299  0
C  C68  1  0.72276633  0.25421971  0.64675086  1  0  -0.078187  0  3.632937  0  0  -0.177957  0  3.905131  0  0  -0.171814  0  3.9079  0  0  -0.153962  -0.181822  0  3.903121  0
C  C69  1  0.07530090  0.24571030  0.35326573  1  0  -0.080656  0  3.63149  0  0  -0.180488  0  3.903591  0  0  -0.174458  0  3.906483  0  0  -0.154811  -0.184312  0  3.901666  0
C  C70  1  0.27722768  0.74577744  0.35324776  1  0  -0.078325  0  3.633004  0  0  -0.178054  0  3.905132  0  0  -0.171917  0  3.907905  0  0  -0.153966  -0.181926  0  3.903145  0
C  C71  1  0.92470197  0.75428938  0.64673212  1  0  -0.080559  0  3.631354  0  0  -0.180444  0  3.903492  0  0  -0.174422  0  3.906383  0  0  -0.154774  -0.184262  0  3.901573  0
O  O72  1  0.03510269  0.30911065  0.82060999  1  0  -0.537808  0  2.228057  0  0  -0.461132  0  2.478676  0  0  -0.479329  0  2.468157  0  0  -0.265383  -0.448343  0  2.48563  0
O  O73  1  0.21394591  0.19097655  0.17945267  1  0  -0.536827  0  2.227226  0  0  -0.460592  0  2.477824  0  0  -0.478732  0  2.46733  0  0  -0.265289  -0.447832  0  2.484774  0
O  O74  1  0.96489417  0.69088523  0.17938874  1  0  -0.537868  0  2.228178  0  0  -0.461144  0  2.478749  0  0  -0.479342  0  2.468234  0  0  -0.265448  -0.448371  0  2.485712  0
O  O75  1  0.78606122  0.80902057  0.82054813  1  0  -0.536879  0  2.22719  0  0  -0.460691  0  2.477801  0  0  -0.478832  0  2.467302  0  0  -0.265291  -0.447931  0  2.48476  0
O  O76  1  0.12019706  0.13852499  0.62320884  1  0  -0.341736  0  2.23696  0  0  -0.272189  0  2.486299  0  0  -0.288468  0  2.487484  0  0  -0.226643  -0.260649  0  2.485102  0
O  O77  1  0.49654459  0.36139750  0.37676034  1  0  -0.341629  0  2.235102  0  0  -0.271745  0  2.484363  0  0  -0.287985  0  2.485536  0  0  -0.227093  -0.260223  0  2.483179  0
O  O78  1  0.87980448  0.86147719  0.37679142  1  0  -0.341713  0  2.236979  0  0  -0.27212  0  2.486329  0  0  -0.288395  0  2.487507  0  0  -0.226621  -0.260573  0  2.485133  0
O  O79  1  0.50345550  0.63860467  0.62324038  1  0  -0.341706  0  2.235064  0  0  -0.271917  0  2.484292  0  0  -0.288163  0  2.485467  0  0  -0.227152  -0.260398  0  2.483105  0
O  O80  1  0.90202097  0.34916454  0.65665157  1  0  -0.337005  0  2.29042  0  0  -0.26294  0  2.536985  0  0  -0.28057  0  2.539383  0  0  -0.220832  -0.2505  0  2.534998  0
O  O81  1  0.24461383  0.15082468  0.34331898  1  0  -0.33536  0  2.287948  0  0  -0.262085  0  2.53531  0  0  -0.279386  0  2.537456  0  0  -0.22112  -0.249915  0  2.533502  0
O  O82  1  0.09797462  0.65083514  0.34334684  1  0  -0.336967  0  2.290474  0  0  -0.26291  0  2.537069  0  0  -0.280538  0  2.539464  0  0  -0.220833  -0.250469  0  2.535084  0
O  O83  1  0.75538765  0.84917625  0.65667945  1  0  -0.33546  0  2.287976  0  0  -0.262271  0  2.535296  0  0  -0.279559  0  2.537435  0  0  -0.221191  -0.250105  0  2.533488  0
O  O84  1  0.20657369  0.53472302  0.77588790  1  0  -0.499977  0  2.194957  0  0  -0.424023  0  2.450041  0  0  -0.442302  0  2.43882  0  0  -0.21654  -0.411162  0  2.457536  0
O  O85  1  0.42988404  0.96527581  0.22402983  1  0  -0.499139  0  2.196506  0  0  -0.422247  0  2.451024  0  0  -0.440795  0  2.440045  0  0  -0.215552  -0.409254  0  2.458426  0
O  O86  1  0.79342197  0.46527788  0.22411292  1  0  -0.499998  0  2.194943  0  0  -0.424057  0  2.450079  0  0  -0.442331  0  2.43886  0  0  -0.216563  -0.411201  0  2.457599  0
O  O87  1  0.57012035  0.03472508  0.77597168  1  0  -0.499147  0  2.196417  0  0  -0.422292  0  2.450933  0  0  -0.440841  0  2.43996  0  0  -0.21558  -0.4093  0  2.458338  0
O  O88  1  0.39832322  0.37968804  0.87862793  1  0  -0.909212  0  1.902813  0  0  -0.840017  0  2.146477  0  0  -0.865142  0  2.124942  0  0  -0.456111  -0.822194  0  2.160943  0
O  O89  1  0.51912678  0.12034448  0.12127911  1  0  -0.908007  0  1.905076  0  0  -0.838688  0  2.148745  0  0  -0.863823  0  2.127174  0  0  -0.455739  -0.820847  0  2.163222  0
O  O90  1  0.60167188  0.62030155  0.12137065  1  0  -0.909165  0  1.903068  0  0  -0.83996  0  2.146754  0  0  -0.865081  0  2.125218  0  0  -0.45611  -0.822139  0  2.161224  0
O  O91  1  0.48087731  0.87965012  0.87872178  1  0  -0.908152  0  1.904764  0  0  -0.838864  0  2.148482  0  0  -0.864  0  2.126911  0  0  -0.455854  -0.821021  0  2.16296  0
O  O92  1  0.12810314  0.58542024  0.91402217  1  0  -0.940102  0  1.89478  0  0  -0.882511  0  2.152422  0  0  -0.907074  0  2.131293  0  0  -0.532759  -0.864945  0  2.166505  0
O  O93  1  0.21334634  0.91482421  0.08591709  1  0  -0.940067  0  1.897478  0  0  -0.882455  0  2.155145  0  0  -0.907018  0  2.134009  0  0  -0.532359  -0.864883  0  2.169213  0
O  O94  1  0.87189487  0.41456935  0.08597606  1  0  -0.940109  0  1.894432  0  0  -0.882506  0  2.152068  0  0  -0.90707  0  2.130939  0  0  -0.532733  -0.86494  0  2.16615  0
O  O95  1  0.78665357  0.08517418  0.91408383  1  0  -0.940085  0  1.897608  0  0  -0.882475  0  2.155251  0  0  -0.907037  0  2.134116  0  0  -0.532341  -0.864902  0  2.169324  0
O  O96  1  0.70105245  0.74988922  0.99998930  1  0  -0.915584  0  1.766338  0  0  -0.875085  0  1.921657  0  0  -0.891407  0  1.89025  0  0  -0.689285  -0.863454  0  1.943609  0
O  O97  1  0.29895044  0.25011036  0.00001653  1  0  -0.915559  0  1.766448  0  0  -0.875068  0  1.921704  0  0  -0.891388  0  1.890295  0  0  -0.689296  -0.863439  0  1.943655  0
