# generated using pymatgen
data_CuH8(C3N)4
_symmetry_space_group_name_H-M   'P 1'
_cell_length_a   8.01150050
_cell_length_b   8.89314174
_cell_length_c   16.36936788
_cell_angle_alpha   90.00413536
_cell_angle_beta   89.99341703
_cell_angle_gamma   114.37750328
_symmetry_Int_Tables_number   1
_chemical_formula_structural   CuH8(C3N)4
_chemical_formula_sum   'Cu4 H32 C48 N16'
_cell_volume   1062.29672036
_cell_formula_units_Z   4
loop_
 _symmetry_equiv_pos_site_id
 _symmetry_equiv_pos_as_xyz
  1  'x, y, z'
loop_
 _atom_site_type_symbol
 _atom_site_label
 _atom_site_symmetry_multiplicity
 _atom_site_fract_x
 _atom_site_fract_y
 _atom_site_fract_z
 _atom_site_occupancy
 _atom_site_hle17_ddec_charge
 _atom_site_hle17_ddec_spin_density
 _atom_site_hle17_ddec_sum_bond_order
 _atom_site_hle17_magmom
 _atom_site_hse06_10hf_bader_charge
 _atom_site_hse06_10hf_bader_spin_density
 _atom_site_hse06_10hf_ddec_charge
 _atom_site_hse06_10hf_ddec_spin_density
 _atom_site_hse06_10hf_ddec_sum_bond_order
 _atom_site_hse06_10hf_magmom
 _atom_site_hse06_ddec_charge
 _atom_site_hse06_ddec_spin_density
 _atom_site_hse06_ddec_sum_bond_order
 _atom_site_hse06_magmom
 _atom_site_pbe_cm5_charge
 _atom_site_pbe_ddec_charge
 _atom_site_pbe_ddec_spin_density
 _atom_site_pbe_ddec_sum_bond_order
 _atom_site_pbe_magmom
Cu  Cu0  1  0.47639497  0.32988812  0.14910568  1  0.561384  -0.690962  2.451867  -0.473  0.96475  -0.556067  0.52686  -0.743742  2.877064  -0.552  0.585174  -0.821532  2.822372  -0.634  0.639841  0.499967  -0.692047  2.910271  -0.502
Cu  Cu1  1  0.02357350  0.67005962  0.64905960  1  0.560721  0.762567  2.453458  0.465  0.965411  0.552703  0.526867  0.803606  2.878039  0.549  0.584995  0.90813  2.823625  0.633  0.640032  0.499725  0.729241  2.911467  0.495
Cu  Cu2  1  0.52353257  0.67007861  0.85092435  1  0.560923  -0.681458  2.453032  -0.465  0.965502  -0.552717  0.526879  -0.741345  2.877804  -0.549  0.585163  -0.821325  2.823201  -0.633  0.639907  0.49971  -0.684133  2.911252  -0.495
Cu  Cu3  1  0.97635325  0.32991082  0.35091056  1  0.56135  -0.690993  2.452336  -0.473  0.964532  -0.556066  0.526933  -0.743763  2.877399  -0.552  0.585143  -0.82154  2.822838  -0.634  0.640025  0.500045  -0.691926  2.910618  -0.502
H  H4  1  0.58194027  0.17666710  0.99879223  1  0.090293  -0.001536  0.943963  -0.001  0.108568  -0.003167  0.098989  -0.001616  1.005121  -0.001  0.100953  -0.001227  1.003719  -0.001  0.118444  0.097478  -0.001932  1.006254  -0.001
H  H5  1  0.91805924  0.82336222  0.49883663  1  0.090643  0.002096  0.943461  0.001  0.108203  0.003212  0.099247  0.001876  1.004721  0.001  0.101196  0.001502  1.00334  0.001  0.118551  0.097719  0.002154  1.005895  0.001
H  H6  1  0.41801491  0.82336506  0.00117549  1  0.090645  -0.001566  0.943578  -0.001  0.108448  -0.003189  0.099231  -0.001634  1.004822  -0.001  0.101181  -0.001239  1.003437  -0.001  0.118552  0.097732  -0.001959  1.005956  -0.001
H  H7  1  0.08187778  0.17665763  0.50119340  1  0.090377  -0.001857  0.943597  -0.001  0.108307  -0.003213  0.099041  -0.001726  1.004803  -0.001  0.101007  -0.001355  1.003399  -0.001  0.118484  0.097518  -0.00201  1.005965  -0.001
H  H8  1  0.79103696  0.27963979  0.88045145  1  0.105831  -0.000336  0.970215  0.0  0.12173  -0.001038  0.11254  -0.000519  1.036453  -0.001  0.115328  -0.000345  1.036357  0.0  0.105124  0.110588  -0.000667  1.036531  -0.001
H  H9  1  0.70900288  0.72035213  0.38049814  1  0.105869  0.000621  0.970656  0.0  0.122191  0.000957  0.112615  0.000583  1.036842  0.001  0.115424  0.000462  1.036702  0.0  0.10522  0.110658  0.000661  1.036956  0.001
H  H10  1  0.20898802  0.72037862  0.11953887  1  0.105759  -0.000309  0.970397  0.0  0.121891  -0.001037  0.112596  -0.000481  1.036486  -0.001  0.115381  -0.000313  1.036398  0.0  0.105212  0.11065  -0.000628  1.036571  -0.001
H  H11  1  0.29102005  0.27965640  0.61950990  1  0.105936  -0.000538  0.97045  0.0  0.122153  -0.000951  0.112727  -0.000502  1.036596  -0.001  0.115534  -0.000393  1.036458  0.0  0.105238  0.110767  -0.000577  1.036693  -0.001
H  H12  1  0.97747510  0.58875354  0.86567161  1  0.100419  4.7e-05  0.943953  0.0  0.106691  0.000313  0.111853  0.000341  1.001983  0.0  0.113357  0.00031  1.002064  0.0  0.107344  0.110681  0.000355  1.002111  0.0
H  H13  1  0.52256939  0.41123015  0.36571239  1  0.100483  -9e-06  0.943878  0.0  0.107009  -0.000529  0.111937  -0.000428  1.001879  0.0  0.113437  -0.000364  1.001967  0.0  0.107331  0.110776  -0.000477  1.001989  0.0
H  H14  1  0.02254091  0.41125624  0.13432604  1  0.100359  -0.000474  0.943987  0.0  0.106448  -0.000431  0.111785  -0.000372  1.002051  0.0  0.113283  -0.000288  1.002141  0.0  0.107341  0.110625  -0.000457  1.002161  0.0
H  H15  1  0.47745319  0.58877220  0.63429076  1  0.100574  -0.000432  0.943795  0.0  0.107022  -0.000217  0.111912  -0.000254  1.001915  0.0  0.113415  -0.000198  1.001998  0.0  0.107274  0.110742  -0.000309  1.002036  0.0
H  H16  1  0.94876816  0.77429745  0.97380304  1  0.120222  -0.000923  0.952602  -0.001  0.147242  -0.001676  0.131282  -0.000938  1.0097  -0.001  0.134121  -0.000677  1.009079  -0.001  0.114146  0.129298  -0.001157  1.010257  -0.001
H  H17  1  0.55130745  0.22569203  0.47382571  1  0.120294  0.00084  0.952595  0.001  0.147203  0.00143  0.131308  0.0008  1.009669  0.001  0.134143  0.000558  1.009051  0.001  0.114179  0.129338  0.000996  1.010218  0.001
H  H18  1  0.05129445  0.22571593  0.02620254  1  0.120224  -0.000921  0.952776  -0.001  0.147362  -0.001695  0.131194  -0.000936  1.009883  -0.001  0.134026  -0.000672  1.009269  -0.001  0.114157  0.129223  -0.001158  1.010429  -0.001
H  H19  1  0.44875547  0.77430034  0.52616888  1  0.120383  -0.000739  0.952428  -0.001  0.146813  -0.00144  0.131233  -0.000728  1.009726  -0.001  0.13408  -0.000495  1.00908  -0.001  0.11417  0.129247  -0.000921  1.010289  -0.001
H  H20  1  0.89726639  0.91308010  0.06172559  1  0.117334  -0.000425  0.980432  -0.001  0.145494  -0.001339  0.124508  -0.000639  1.045005  -0.001  0.128009  -0.000382  1.042918  -0.001  0.109494  0.121939  -0.000871  1.046759  -0.001
H  H21  1  0.60267865  0.08694294  0.56175283  1  0.117305  0.000839  0.980501  0.001  0.145503  0.001364  0.124404  0.000813  1.045176  0.001  0.127904  0.000574  1.043091  0.001  0.109525  0.121839  0.001012  1.046925  0.001
H  H22  1  0.10270045  0.08694215  0.93825740  1  0.11737  -0.000429  0.980498  -0.001  0.145532  -0.00134  0.124543  -0.000647  1.045079  -0.001  0.128045  -0.000388  1.042989  -0.001  0.109558  0.121977  -0.000881  1.046827  -0.001
H  H23  1  0.39728014  0.91307809  0.43826925  1  0.117327  -0.000759  0.980478  -0.001  0.145233  -0.001366  0.124494  -0.000754  1.045042  -0.001  0.127996  -0.000525  1.042955  -0.001  0.10952  0.121924  -0.000946  1.046799  -0.001
H  H24  1  0.81924642  0.06446407  0.17337390  1  0.106316  -0.000363  0.935694  0.0  0.097725  -0.000257  0.120406  -0.000213  0.986293  0.0  0.122007  -0.000165  0.98596  0.0  0.112435  0.119167  -0.000271  0.98664  0.0
H  H25  1  0.68067537  0.93555149  0.67337399  1  0.10664  -2.8e-05  0.935628  0.0  0.097915  -0.000285  0.120737  -0.000235  0.986183  0.0  0.122324  -0.000216  0.985871  0.0  0.11252  0.119497  -0.000238  0.986535  0.0
H  H26  1  0.18070408  0.93554709  0.82661153  1  0.106406  7.4e-05  0.935728  0.0  0.097765  0.00026  0.120488  0.000241  0.986318  0.0  0.122088  0.000231  0.985986  0.0  0.112437  0.119251  0.000237  0.986667  0.0
H  H27  1  0.31927762  0.06445968  0.32664382  1  0.106528  -0.000359  0.935587  0.0  0.097805  -0.000233  0.12058  -0.000198  0.986215  0.0  0.122174  -0.000155  0.985903  0.0  0.112472  0.119347  -0.00025  0.98655  0.0
H  H28  1  0.58864051  0.90151288  0.27888604  1  0.1098  -0.000433  0.967961  0.0  0.141876  -0.001011  0.119008  -0.000521  1.027895  -0.001  0.120921  -0.000384  1.029641  0.0  0.107441  0.117662  -0.000641  1.026757  -0.001
H  H29  1  0.91130227  0.09849600  0.77886572  1  0.109932  0.000426  0.967872  0.0  0.142435  0.000796  0.119005  0.000444  1.027986  0.001  0.120928  0.000324  1.029679  0.0  0.107429  0.117648  0.000529  1.026885  0.001
H  H30  1  0.41132607  0.09848713  0.72110489  1  0.109933  -0.000384  0.967854  0.0  0.142057  -0.000801  0.119041  -0.000416  1.027913  -0.001  0.120959  -0.000297  1.029631  0.0  0.107449  0.117693  -0.000503  1.026779  -0.001
H  H31  1  0.08867531  0.90150893  0.22114598  1  0.109815  -0.000441  0.96819  0.0  0.142591  -0.001015  0.118969  -0.000528  1.028201  -0.001  0.120891  -0.00039  1.029897  0.0  0.107475  0.117615  -0.00065  1.027097  -0.001
H  H32  1  0.44272324  0.59257445  0.26666003  1  0.080685  -0.001223  0.958063  -0.001  0.11321  -0.002534  0.090536  -0.001229  1.018865  -0.001  0.091534  -0.000935  1.018966  -0.001  0.11392  0.089709  -0.001473  1.01891  -0.001
H  H33  1  0.05740086  0.40743739  0.76660779  1  0.080646  0.001493  0.9583  0.001  0.113014  0.002564  0.090453  0.00142  1.019084  0.001  0.09145  0.001119  1.019188  0.001  0.113841  0.089636  0.001664  1.019115  0.001
H  H34  1  0.55739966  0.40742890  0.73336877  1  0.080742  -0.001351  0.95812  -0.001  0.112596  -0.002587  0.090427  -0.001338  1.019065  -0.001  0.091419  -0.00103  1.019177  -0.001  0.11386  0.089609  -0.001594  1.0191  -0.001
H  H35  1  0.94272535  0.59257585  0.23336114  1  0.080734  -0.001239  0.958182  -0.001  0.113493  -0.002547  0.090594  -0.001244  1.018934  -0.001  0.091598  -0.000946  1.019026  -0.001  0.113909  0.089768  -0.00149  1.018982  -0.001
C  C36  1  0.32550667  0.11883921  0.09870800  1  -0.089943  -0.155999  3.404873  -0.148  0.762586  -0.125677  -0.123226  -0.090721  3.778048  -0.09  -0.132764  -0.078127  3.788727  -0.08  -0.030714  -0.121876  -0.096356  3.772597  -0.092
C  C37  1  0.17452068  0.88101296  0.59859877  1  -0.089179  0.173386  3.404254  0.148  0.757821  0.124989  -0.1227  0.097751  3.777633  0.089  -0.132188  0.086092  3.788339  0.08  -0.030461  -0.12127  0.101971  3.772188  0.092
C  C38  1  0.67450630  0.88102846  0.90139533  1  -0.089412  -0.155969  3.404437  -0.148  0.757762  -0.125135  -0.122931  -0.090434  3.777702  -0.089  -0.132459  -0.077993  3.788398  -0.08  -0.030609  -0.121512  -0.095943  3.772248  -0.092
C  C39  1  0.82548811  0.11885100  0.40129930  1  -0.089744  -0.15584  3.405094  -0.147  0.762252  -0.125548  -0.12304  -0.0906  3.778234  -0.089  -0.132555  -0.078029  3.78892  -0.08  -0.030502  -0.121679  -0.096184  3.772786  -0.092
C  C40  1  0.78987996  0.30127146  0.26867202  1  -0.043007  -0.141606  3.356534  -0.133  0.780446  -0.118034  -0.063473  -0.085709  3.715126  -0.084  -0.06313  -0.073829  3.71727  -0.075  -0.003457  -0.06681  -0.091516  3.714627  -0.087
C  C41  1  0.71002342  0.69878763  0.76864767  1  -0.043649  -0.14343  3.358896  -0.135  0.778915  -0.119078  -0.063947  -0.086344  3.717043  -0.085  -0.063671  -0.075065  3.719162  -0.077  -0.003525  -0.067152  -0.091418  3.716595  -0.087
C  C42  1  0.20999178  0.69875843  0.73135006  1  -0.043362  0.159624  3.358739  0.135  0.77863  0.119097  -0.063709  0.093511  3.71698  0.085  -0.063375  0.083013  3.719108  0.077  -0.003417  -0.066923  0.097366  3.716554  0.087
C  C43  1  0.28986342  0.30125335  0.23133226  1  -0.043287  -0.141577  3.3566  -0.133  0.780574  -0.118011  -0.063767  -0.085673  3.715287  -0.084  -0.063459  -0.073793  3.717427  -0.075  -0.003579  -0.067087  -0.091492  3.714769  -0.087
C  C44  1  0.66340531  0.30834983  0.99039635  1  0.14004  0.008773  3.665546  0.009  0.475952  0.003067  0.111431  0.001775  3.916271  0.003  0.120005  0.002882  3.933625  0.004  0.053166  0.106206  0.000802  3.904657  0.002
C  C45  1  0.83656600  0.69166551  0.49043834  1  0.139648  -0.008047  3.664884  -0.009  0.476637  -0.003655  0.111107  -0.001614  3.915748  -0.003  0.119672  -0.002439  3.933078  -0.004  0.052956  0.105879  -0.001062  3.904103  -0.003
C  C46  1  0.33655269  0.69167491  0.00958481  1  0.139676  0.009066  3.665086  0.009  0.476092  0.003296  0.111204  0.001914  3.915879  0.003  0.119782  0.002951  3.933201  0.004  0.053046  0.105958  0.001071  3.904222  0.002
C  C47  1  0.16338915  0.30835306  0.50957642  1  0.139926  0.008815  3.665548  0.009  0.475465  0.003267  0.111339  0.001795  3.916264  0.003  0.119918  0.002839  3.933614  0.004  0.053038  0.106117  0.000943  3.904657  0.002
C  C48  1  0.78095594  0.36802863  0.92389315  1  -0.104985  -0.007808  3.713322  -0.008  0.074094  -0.004379  -0.119023  -0.003021  3.966266  -0.003  -0.125383  -0.00283  3.987147  -0.003  -0.079377  -0.114882  -0.00322  3.952191  -0.003
C  C49  1  0.71905424  0.63196695  0.42393884  1  -0.104459  0.008998  3.713701  0.008  0.073753  0.004367  -0.118581  0.003356  3.966643  0.003  -0.12495  0.003287  3.987553  0.003  -0.079188  -0.114435  0.003394  3.952527  0.003
C  C50  1  0.21904512  0.63198119  0.07609472  1  -0.104651  -0.007836  3.713554  -0.008  0.073756  -0.004389  -0.118858  -0.003  3.966443  -0.003  -0.125223  -0.002809  3.987334  -0.003  -0.0793  -0.114721  -0.003181  3.952358  -0.003
C  C51  1  0.28093468  0.36803548  0.57607042  1  -0.104678  -0.007909  3.713698  -0.008  0.074505  -0.00436  -0.118777  -0.003084  3.966518  -0.003  -0.125136  -0.002928  3.987413  -0.003  -0.07923  -0.114632  -0.003233  3.952425  -0.003
C  C52  1  0.88367793  0.53749493  0.91669539  1  -0.001446  0.008755  3.710978  0.007  -0.071575  0.00391  -0.022056  0.002921  3.964082  0.003  -0.018963  0.003336  3.982933  0.003  -0.065388  -0.024151  0.002456  3.951637  0.002
C  C53  1  0.61636806  0.46248535  0.41672920  1  -0.001958  -0.008265  3.711528  -0.008  -0.071808  -0.004586  -0.022598  -0.00296  3.96467  -0.003  -0.019519  -0.003015  3.983547  -0.003  -0.065548  -0.024685  -0.003063  3.952209  -0.003
C  C54  1  0.11633695  0.46251238  0.08329676  1  -0.00156  0.008752  3.711524  0.007  -0.071973  0.003495  -0.02219  0.002663  3.964641  0.002  -0.019098  0.003073  3.983505  0.003  -0.065467  -0.024294  0.002303  3.952206  0.002
C  C55  1  0.38363750  0.53750716  0.58328066  1  -0.002042  0.008482  3.711474  0.007  -0.071584  0.003479  -0.022617  0.002461  3.964575  0.002  -0.019529  0.002808  3.983431  0.002  -0.065573  -0.024709  0.002172  3.952133  0.002
C  C56  1  0.86679447  0.64192614  0.97640823  1  -0.132067  -0.007187  3.696207  -0.007  -0.028085  -0.004486  -0.151442  -0.003211  3.947959  -0.003  -0.157782  -0.002842  3.967034  -0.003  -0.071599  -0.147609  -0.003571  3.935678  -0.004
C  C57  1  0.63327845  0.35806967  0.47642109  1  -0.131838  0.00806  3.6967  0.007  -0.028784  0.004288  -0.151032  0.003528  3.948321  0.003  -0.157378  0.003406  3.967416  0.003  -0.071461  -0.147201  0.003546  3.936018  0.003
C  C58  1  0.13324230  0.35809348  0.02359064  1  -0.131962  -0.00725  3.696911  -0.007  -0.028577  -0.004546  -0.151183  -0.003252  3.94851  -0.003  -0.157531  -0.002858  3.967609  -0.003  -0.071543  -0.147343  -0.003658  3.936202  -0.004
C  C59  1  0.36675296  0.64193019  0.52357900  1  -0.132038  -0.007281  3.696792  -0.007  -0.028375  -0.00442  -0.151152  -0.003335  3.948393  -0.003  -0.15748  -0.003086  3.967459  -0.003  -0.071483  -0.147325  -0.003513  3.936121  -0.003
C  C60  1  0.79705742  0.84602985  0.10788161  1  -0.121473  -0.005099  3.681748  -0.005  -0.070222  -0.003687  -0.139724  -0.002632  3.923716  -0.003  -0.145461  -0.002289  3.942641  -0.002  -0.069521  -0.135896  -0.00297  3.910935  -0.003
C  C61  1  0.70296970  0.15398068  0.60787588  1  -0.121308  0.00634  3.681747  0.006  -0.07009  0.003829  -0.139463  0.003058  3.923729  0.003  -0.145209  0.002823  3.942657  0.003  -0.069502  -0.13564  0.003287  3.910956  0.003
C  C62  1  0.20296597  0.15398239  0.89211848  1  -0.121574  -0.005444  3.681708  -0.005  -0.070024  -0.003774  -0.139776  -0.002706  3.923757  -0.003  -0.145522  -0.002387  3.942685  -0.002  -0.069518  -0.135949  -0.003046  3.910982  -0.003
C  C63  1  0.29704927  0.84603280  0.39212482  1  -0.121369  -0.005451  3.681866  -0.005  -0.070284  -0.003803  -0.139585  -0.002791  3.923767  -0.003  -0.145326  -0.002482  3.942697  -0.003  -0.069505  -0.135762  -0.003074  3.910988  -0.003
C  C64  1  0.75381714  0.93020478  0.17018806  1  0.013125  0.006707  3.681653  0.005  -0.015222  0.002687  -0.001441  0.001987  3.919566  0.002  0.002353  0.002401  3.936904  0.002  -0.05572  -0.003907  0.001561  3.907864  0.001
C  C65  1  0.74617343  0.06980674  0.67017290  1  0.012769  -0.006859  3.681816  -0.006  -0.01575  -0.003968  -0.001904  -0.002663  3.919813  -0.002  0.001911  -0.002789  3.937141  -0.003  -0.055785  -0.004388  -0.002644  3.908126  -0.002
C  C66  1  0.24617462  0.06980382  0.82980654  1  0.013202  0.007587  3.681505  0.006  -0.015381  0.003727  -0.001432  0.002724  3.919467  0.002  0.00237  0.002969  3.936803  0.003  -0.055723  -0.003918  0.002587  3.907772  0.002
C  C67  1  0.25381583  0.93020187  0.32983391  1  0.012818  0.006769  3.681788  0.006  -0.0156  0.002855  -0.001736  0.002097  3.919737  0.002  0.002058  0.002479  3.937062  0.002  -0.055735  -0.004205  0.001707  3.908044  0.001
C  C68  1  0.62516685  0.84032044  0.22884277  1  -0.105288  -0.005934  3.706404  -0.006  0.016004  -0.003554  -0.116682  -0.002507  3.949371  -0.003  -0.123047  -0.002354  3.970466  -0.002  -0.075492  -0.11258  -0.002663  3.935145  -0.003
C  C69  1  0.87482717  0.15969302  0.72882327  1  -0.105456  0.006819  3.706523  0.006  0.016395  0.00364  -0.116837  0.002735  3.94953  0.003  -0.123201  0.002675  3.97064  0.003  -0.075523  -0.11272  0.002785  3.935281  0.003
C  C70  1  0.37484622  0.15968564  0.77115671  1  -0.105438  -0.006219  3.70637  -0.006  0.016321  -0.003636  -0.11682  -0.00253  3.949358  -0.003  -0.123191  -0.0024  3.970463  -0.003  -0.07545  -0.112702  -0.002655  3.935129  -0.003
C  C71  1  0.12518658  0.84031182  0.27117683  1  -0.105298  -0.005991  3.706792  -0.006  0.016039  -0.003695  -0.116692  -0.002608  3.949749  -0.003  -0.123037  -0.002446  3.97084  -0.003  -0.075588  -0.112597  -0.00277  3.935519  -0.003
C  C72  1  0.54520823  0.66880670  0.22292695  1  0.119831  0.006557  3.701644  0.007  0.437267  0.002245  0.092906  0.001086  3.955095  0.002  0.100396  0.002038  3.974406  0.003  0.045719  0.088314  0.000246  3.942342  0.001
C  C73  1  0.95485207  0.33120134  0.72289685  1  0.119975  -0.006098  3.70167  -0.007  0.43729  -0.002884  0.093265  -0.001125  3.955071  -0.003  0.100743  -0.001867  3.974366  -0.003  0.045827  0.088654  -0.000597  3.942298  -0.002
C  C74  1  0.45485720  0.33119926  0.77708658  1  0.119879  0.007015  3.701679  0.007  0.438015  0.002663  0.093131  0.001346  3.955088  0.002  0.10062  0.002209  3.974395  0.003  0.045674  0.088519  0.000683  3.942322  0.002
C  C75  1  0.04522334  0.66880460  0.27708492  1  0.119776  0.006637  3.701734  0.007  0.437059  0.002362  0.092934  0.001166  3.955128  0.002  0.100406  0.002119  3.974425  0.003  0.045748  0.088343  0.000342  3.942379  0.002
C  C76  1  0.74403969  0.57414612  0.04093075  1  0.171108  0.003293  3.742241  0.003  0.470724  -0.00053  0.164768  -0.001091  3.989765  -0.001  0.172087  0.000269  4.009963  0.001  0.116861  0.15995  -0.002144  3.976791  -0.002
C  C77  1  0.75600350  0.42585457  0.54094863  1  0.170878  -0.00237  3.742037  -0.003  0.470302  0.000845  0.164416  0.001823  3.989808  0.001  0.171714  0.000578  4.009993  0.0  0.11681  0.159589  0.002605  3.976806  0.002
C  C78  1  0.25598743  0.42586611  0.95905957  1  0.170912  0.003295  3.742413  0.003  0.471158  -0.000438  0.164666  -0.001047  3.989949  -0.001  0.17197  0.00027  4.010151  0.001  0.11688  0.159832  -0.002002  3.976939  -0.002
C  C79  1  0.24400707  0.57415152  0.45906246  1  0.171015  0.003056  3.742465  0.003  0.47038  -0.001134  0.164603  -0.001604  3.989938  -0.001  0.171927  -0.00022  4.010128  0.0  0.116821  0.159788  -0.002647  3.976973  -0.002
C  C80  1  0.71099656  0.67352554  0.10552441  1  0.169916  0.002001  3.743807  0.002  0.520092  -0.001093  0.169509  -0.001386  3.983955  -0.001  0.176561  -0.000152  4.004399  0.0  0.117731  0.164918  -0.002391  3.970493  -0.002
C  C81  1  0.78906518  0.32648849  0.60552184  1  0.170051  -0.001754  3.743492  -0.002  0.520487  0.000407  0.169695  0.001247  3.983866  0.001  0.176752  0.000214  4.004283  0.0  0.117732  0.165093  0.001894  3.97037  0.001
C  C82  1  0.28905744  0.32648539  0.89447629  1  0.170204  0.002523  3.743385  0.002  0.520422  -0.000523  0.169605  -0.000979  3.98385  -0.001  0.176658  0.000101  4.004289  0.0  0.117672  0.165002  -0.001689  3.970371  -0.001
C  C83  1  0.21098087  0.67351875  0.39447703  1  0.170092  0.001962  3.743884  0.002  0.520544  -0.001063  0.169737  -0.001338  3.984036  -0.001  0.176788  -9.7e-05  4.004458  0.0  0.117752  0.165156  -0.002347  3.970554  -0.002
N  N84  1  0.22700066  0.99487694  0.06750022  1  -0.402695  0.026113  2.821289  0.015  -1.386802  -0.008994  -0.36401  0.000506  3.094503  -0.007  -0.375464  0.007434  3.114126  0.002  -0.360973  -0.354203  -0.005621  3.081813  -0.014
N  N85  1  0.27309165  0.00504632  0.56746999  1  -0.403299  -0.022442  2.820873  -0.017  -1.38261  0.007699  -0.36465  0.000155  3.094503  0.006  -0.376107  -0.006293  3.114092  -0.002  -0.361275  -0.354858  0.005746  3.081822  0.012
N  N86  1  0.77308309  0.00502517  0.93255179  1  -0.403145  0.027113  2.82104  0.017  -1.382496  -0.007987  -0.364461  0.001139  3.094443  -0.006  -0.375907  0.007823  3.114053  0.002  -0.361159  -0.354668  -0.004654  3.081734  -0.013
N  N87  1  0.72698191  0.99484716  0.43247145  1  -0.402859  0.026273  2.82152  0.016  -1.386472  -0.008712  -0.364184  0.000625  3.094755  -0.007  -0.375644  0.007536  3.114358  0.002  -0.361155  -0.35437  -0.005465  3.08208  -0.013
N  N88  1  0.67627585  0.29136719  0.22111059  1  -0.397082  0.030407  3.067197  0.019  -1.386398  -0.003251  -0.360962  0.003407  3.379182  -0.004  -0.377592  0.008757  3.387138  0.003  -0.386018  -0.350053  -0.001574  3.374241  -0.01
N  N89  1  0.82360602  0.70868071  0.72107165  1  -0.397223  0.03218  3.068594  0.024  -1.385638  -0.002001  -0.360733  0.005373  3.3799  0.0  -0.377267  0.010299  3.387877  0.006  -0.38598  -0.34989  0.000937  3.374989  -0.006
N  N90  1  0.32355460  0.70863808  0.77892249  1  -0.397457  -0.027663  3.068692  -0.024  -1.385253  0.002079  -0.360958  -0.004059  3.380274  0.0  -0.377538  -0.008621  3.388218  -0.006  -0.386044  -0.350115  0.000115  3.375387  0.006
N  N91  1  0.17622919  0.29131589  0.27889546  1  -0.396854  0.030544  3.067001  0.019  -1.386804  -0.003185  -0.360741  0.003464  3.378929  -0.004  -0.37735  0.008825  3.38692  0.003  -0.385959  -0.349836  -0.00152  3.373975  -0.01
N  N92  1  0.64414566  0.40891217  0.04696537  1  -0.298407  -0.079626  3.293253  -0.097  -1.266543  -0.090737  -0.249882  -0.062773  3.573591  -0.081  -0.275455  -0.05287  3.593761  -0.072  -0.331128  -0.235499  -0.068321  3.561611  -0.085
N  N93  1  0.85584665  0.59111120  0.54701283  1  -0.298138  0.090287  3.293252  0.098  -1.266415  0.091176  -0.249952  0.068713  3.573955  0.081  -0.275499  0.059286  3.594095  0.072  -0.331163  -0.235403  0.073388  3.561888  0.085
N  N94  1  0.35581437  0.59110886  0.95300479  1  -0.298002  -0.080501  3.293558  -0.098  -1.266183  -0.091065  -0.249918  -0.063233  3.57416  -0.081  -0.275497  -0.053287  3.594315  -0.072  -0.33114  -0.235363  -0.068812  3.56208  -0.085
N  N95  1  0.14410804  0.40890366  0.45301598  1  -0.298634  -0.079934  3.293476  -0.097  -1.266335  -0.090838  -0.250066  -0.062908  3.573811  -0.081  -0.275652  -0.053036  3.594004  -0.072  -0.331238  -0.235695  -0.068373  3.561855  -0.085
N  N96  1  0.58699921  0.58699561  0.16312160  1  -0.3099  -0.067652  3.303661  -0.082  -1.259272  -0.078689  -0.262604  -0.0546  3.583635  -0.07  -0.287668  -0.046043  3.604124  -0.063  -0.332431  -0.248377  -0.059539  3.571487  -0.074
N  N97  1  0.91310227  0.41304987  0.66309648  1  -0.309355  0.076695  3.303238  0.083  -1.259491  0.079041  -0.262658  0.059782  3.583654  0.071  -0.287659  0.051681  3.604074  0.063  -0.33237  -0.248357  0.063972  3.571494  0.074
N  N98  1  0.41308519  0.41303255  0.83689315  1  -0.309653  -0.068648  3.303501  -0.083  -1.259813  -0.078957  -0.262596  -0.055015  3.583647  -0.071  -0.287643  -0.046468  3.604097  -0.063  -0.332321  -0.248301  -0.059949  3.571501  -0.074
N  N99  1  0.08698462  0.58697828  0.33688895  1  -0.309871  -0.067713  3.303536  -0.082  -1.259605  -0.078859  -0.262764  -0.054737  3.58368  -0.071  -0.287767  -0.046163  3.60411  -0.063  -0.332455  -0.248541  -0.059684  3.571537  -0.074
