# generated using pymatgen
data_Zr3H23C45N5O26
_symmetry_space_group_name_H-M   'P 1'
_cell_length_a   19.06851493
_cell_length_b   19.05460969
_cell_length_c   19.08299176
_cell_angle_alpha   59.52675836
_cell_angle_beta   59.93024425
_cell_angle_gamma   60.07338227
_symmetry_Int_Tables_number   1
_chemical_formula_structural   Zr3H23C45N5O26
_chemical_formula_sum   'Zr6 H46 C90 N10 O52'
_cell_volume   4885.19004781
_cell_formula_units_Z   2
loop_
 _symmetry_equiv_pos_site_id
 _symmetry_equiv_pos_as_xyz
  1  'x, y, z'
loop_
 _atom_site_type_symbol
 _atom_site_label
 _atom_site_symmetry_multiplicity
 _atom_site_fract_x
 _atom_site_fract_y
 _atom_site_fract_z
 _atom_site_occupancy
 _atom_site_pbe_bader_charge
 _atom_site_pbe_bader_spin_density
 _atom_site_pbe_cm5_charge
 _atom_site_pbe_ddec_charge
 _atom_site_pbe_ddec_spin_density
 _atom_site_pbe_ddec_sum_bond_order
 _atom_site_pbe_magmom
Zr  Zr0  1  0.90551808  0.40801780  0.59399783  1  2.637599  0  1.633382  2.376307  0  2.750016  0
Zr  Zr1  1  0.09242721  0.59368627  0.40838176  1  2.637027  0  1.633661  2.376175  0  2.750024  0
Zr  Zr2  1  0.09066781  0.40645063  0.59537854  1  2.635962  0  1.629911  2.375201  0  2.751876  0
Zr  Zr3  1  0.90748777  0.59508151  0.40676628  1  2.638222  0  1.629719  2.37507  0  2.751945  0
Zr  Zr4  1  0.90659986  0.59319967  0.59355044  1  2.639974  0  1.633082  2.37901  0  2.754454  0
Zr  Zr5  1  0.09142458  0.40839345  0.40871107  1  2.631796  0  1.634081  2.37703  0  2.751565  0
H  H6  1  0.92459502  0.42591606  0.72124178  1  0.626983  0  0.334715  0.429827  0  0.849717  0
H  H7  1  0.92819214  0.72093851  0.42629764  1  0.605922  0  0.334942  0.430299  0  0.848447  0
H  H8  1  0.21821579  0.42698903  0.42930447  1  0.61916  0  0.333627  0.428617  0  0.850882  0
H  H9  1  0.92543924  0.42901106  0.42727445  1  0.617762  0  0.33396  0.429154  0  0.850017  0
H  H10  1  0.47026106  0.59201780  0.06003705  1  0.108264  0  0.118623  0.129338  0  0.985618  0
H  H11  1  0.54321555  0.38996516  0.95690285  1  0.10362  0  0.118261  0.129574  0  0.983309  0
H  H12  1  0.65542049  0.63539073  0.79223843  1  0.154025  0  0.118008  0.127523  0  0.985355  0
H  H13  1  0.51815431  0.64550918  0.91462758  1  0.105546  0  0.112002  0.115457  0  0.984913  0
H  H14  1  0.27877622  0.43557218  0.14791981  1  0.119409  0  0.11544  0.127036  0  0.999353  0
H  H15  1  0.39907783  0.44394249  0.00903372  1  0.083998  0  0.111243  0.113625  0  0.987892  0
H  H16  1  0.10961099  0.95672085  0.39035914  1  0.058047  0  0.118553  0.129488  0  0.983565  0
H  H17  1  0.87779282  0.05930414  0.59308296  1  0.096586  0  0.11835  0.128536  0  0.986164  0
H  H18  1  0.13756410  0.14775328  0.43559202  1  0.157421  0  0.115037  0.126531  0  1.000493  0
H  H19  1  0.14779488  0.00884201  0.44397040  1  0.072677  0  0.111288  0.113789  0  0.987537  0
H  H20  1  0.91708504  0.79164076  0.63603634  1  0.110992  0  0.118127  0.127863  0  0.985133  0
H  H21  1  0.92179198  0.91408005  0.64614440  1  0.068345  0  0.112216  0.115856  0  0.984882  0
H  H22  1  0.45456723  0.04856864  0.38964094  1  0.106811  0  0.117829  0.12864  0  0.983632  0
H  H23  1  0.55709826  0.96786693  0.59516743  1  0.085658  0  0.118899  0.13006  0  0.983267  0
H  H24  1  0.64308751  0.78147636  0.43583776  1  0.146799  0  0.115172  0.127463  0  0.993557  0
H  H25  1  0.50450672  0.90183326  0.44452241  1  0.067493  0  0.111085  0.113661  0  0.987299  0
H  H26  1  0.28899485  0.15200735  0.63835101  1  0.140117  0  0.117669  0.12345  0  0.987215  0
H  H27  1  0.41100866  0.01408994  0.64852688  1  0.1105  0  0.11043  0.112378  0  0.990063  0
H  H28  1  0.87985798  0.59483189  0.96821639  1  0.095586  0  0.118809  0.129994  0  0.983057  0
H  H29  1  0.10681833  0.38916152  0.04914924  1  0.077222  0  0.117978  0.128963  0  0.982742  0
H  H30  1  0.92086160  0.63823690  0.15209915  1  0.121694  0  0.117567  0.123291  0  0.987479  0
H  H31  1  0.92670087  0.64836954  0.01414594  1  0.093228  0  0.110424  0.112492  0  0.989518  0
H  H32  1  0.13958532  0.43569423  0.78167048  1  0.117948  0  0.115017  0.127153  0  0.993434  0
H  H33  1  0.14913562  0.44425639  0.90210424  1  0.068338  0  0.111133  0.113844  0  0.98716  0
H  H34  1  0.11980805  0.81704222  0.17211519  1  0.118951  0  0.109076  0.122074  0  1.005152  0
H  H35  1  0.18670974  0.92694191  0.05626226  1  0.079508  0  0.104979  0.114399  0  0.994627  0
H  H36  1  0.89751142  0.81081155  0.17301992  1  0.069736  0  0.105097  0.113719  0  1.022768  0
H  H37  1  0.89138467  0.17158719  0.81720217  1  0.129789  0  0.109282  0.122548  0  1.005324  0
H  H38  1  0.83063864  0.05552940  0.92698089  1  0.04909  0  0.104743  0.115041  0  0.993961  0
H  H39  1  0.11897671  0.17255509  0.81095545  1  0.102089  0  0.105256  0.111279  0  1.026187  0
H  H40  1  0.46126003  0.38229134  0.60426471  1  0.105963  0  0.117708  0.128259  0  0.985301  0
H  H41  1  0.55198062  0.60422399  0.38267415  1  0.108293  0  0.117755  0.128292  0  0.98551  0
H  H42  1  0.65177644  0.42382447  0.63621146  1  0.172741  0  0.115802  0.128727  0  1.001957  0
H  H43  1  0.51503019  0.42855671  0.64594489  1  0.075172  0  0.111204  0.114163  0  0.986802  0
H  H44  1  0.28800179  0.63591944  0.42424053  1  0.119226  0  0.116044  0.129122  0  1.001792  0
H  H45  1  0.41023658  0.64573910  0.42897150  1  0.075488  0  0.11117  0.114126  0  0.986869  0
H  H46  1  0.24800989  0.03540962  0.95527354  1  0.033588  0  0.095528  0.131582  0  0.992363  0
H  H47  1  0.18452232  0.13548748  0.89941788  1  0.024528  0  0.095494  0.132011  0  0.993133  0
H  H48  1  0.25464323  0.05571764  0.85066246  1  0.041966  0  0.092277  0.126581  0  0.991409  0
H  H49  1  0.76320831  0.95324356  0.03379863  1  0.059604  0  0.09562  0.131688  0  0.993455  0
H  H50  1  0.77877081  0.90217873  0.13539632  1  0.06452  0  0.095424  0.131883  0  0.991188  0
H  H51  1  0.83960234  0.84855813  0.05948254  1  0.019908  0  0.092187  0.126297  0  0.992774  0
C  C52  1  0.75843983  0.50523257  0.73098836  1  1.576534  0  0.239127  0.647779  0  4.10975  0
C  C53  1  0.00527769  0.73058348  0.50574806  1  1.580549  0  0.238375  0.646988  0  4.108934  0
C  C54  1  0.23118669  0.50481438  0.26326159  1  1.586485  0  0.239333  0.64724  0  4.109831  0
C  C55  1  0.00072210  0.26285116  0.50522699  1  1.590547  0  0.240053  0.648018  0  4.107934  0
C  C56  1  0.00163258  0.26025156  0.73318935  1  1.526067  0  0.238519  0.648834  0  4.080884  0
C  C57  1  0.75989174  0.50727752  0.50312044  1  1.564813  0  0.237807  0.644872  0  4.111506  0
C  C58  1  0.00497917  0.73293520  0.26066610  1  1.527321  0  0.238427  0.649157  0  4.081159  0
C  C59  1  0.22969119  0.50276718  0.50754882  1  1.571241  0  0.238651  0.646808  0  4.108868  0
C  C60  1  0.00230167  0.50408094  0.73313739  1  1.617288  0  0.236949  0.644005  0  4.117593  0
C  C61  1  0.22834328  0.25951403  0.50713230  1  1.584482  0  0.238146  0.645199  0  4.110528  0
C  C62  1  0.00491237  0.50685746  0.25985257  1  1.594804  0  0.238685  0.645872  0  4.111132  0
C  C63  1  0.76045116  0.73282249  0.50435642  1  1.589201  0  0.237334  0.644925  0  4.116529  0
C  C64  1  0.30583301  0.50885699  0.18175429  1  0.023224  0  -0.004295  -0.080643  0  3.929252  0
C  C65  1  0.67580939  0.50917496  0.80413265  1  0.040334  0  -0.007224  -0.088367  0  3.932501  0
C  C66  1  0.36041313  0.55337867  0.15444184  1  0.172361  0  0.089836  0.075639  0  3.931849  0
C  C67  1  0.42795516  0.55907654  0.07704698  1  0.021916  0  -0.077067  -0.181544  0  3.936351  0
C  C68  1  0.64121958  0.44198427  0.85080673  1  0.14675  0  0.089181  0.076396  0  3.936656  0
C  C69  1  0.56544807  0.44545688  0.92029112  1  0.008606  0  -0.0794  -0.187148  0  3.943151  0
C  C70  1  0.62939158  0.58251075  0.82865994  1  0.003488  0  -0.065032  -0.050723  0  3.940971  0
C  C71  1  0.55313345  0.58730143  0.89772105  1  -0.073019  0  -0.07988  -0.128166  0  3.950459  0
C  C72  1  0.32128100  0.46978246  0.12760565  1  0.029936  0  -0.063976  -0.049911  0  3.928972  0
C  C73  1  0.38910397  0.47437148  0.05011073  1  -0.031521  0  -0.078708  -0.125595  0  3.949462  0
C  C74  1  0.44414135  0.51825228  0.02401422  1  -0.029544  0  0.005144  0.089861  0  3.992056  0
C  C75  1  0.52065368  0.51816813  0.94565630  1  0.025487  0  0.006607  0.093229  0  3.993469  0
C  C76  1  0.01083590  0.80372176  0.50970427  1  0.047917  0  -0.007327  -0.087929  0  3.932532  0
C  C77  1  0.00352071  0.18131401  0.50935176  1  0.0785  0  -0.00412  -0.079614  0  3.927206  0
C  C78  1  0.06583611  0.85049307  0.44245744  1  0.161184  0  0.088581  0.075377  0  3.93812  0
C  C79  1  0.06860160  0.92001931  0.44590218  1  0.113465  0  -0.079612  -0.18706  0  3.943668  0
C  C80  1  0.93180216  0.15385122  0.55416448  1  0.153736  0  0.089909  0.074928  0  3.931995  0
C  C81  1  0.93596779  0.07645884  0.55985807  1  0.010471  0  -0.076808  -0.179768  0  3.937808  0
C  C82  1  0.08122059  0.12730958  0.47001796  1  -0.033318  0  -0.064428  -0.050442  0  3.929052  0
C  C83  1  0.08631638  0.04980832  0.47460290  1  0.027439  0  -0.078457  -0.125046  0  3.948407  0
C  C84  1  0.95945073  0.82817328  0.58309557  1  -0.004479  0  -0.065179  -0.051303  0  3.941575  0
C  C85  1  0.96185620  0.89723154  0.58790165  1  -0.001961  0  -0.079624  -0.128493  0  3.950896  0
C  C86  1  0.01543367  0.94525631  0.51869990  1  -0.067258  0  0.006603  0.093542  0  3.993252  0
C  C87  1  0.01354864  0.02358375  0.51878375  1  -0.044099  0  0.005122  0.089021  0  3.994048  0
C  C88  1  0.30184996  0.17703649  0.51054707  1  -0.017654  0  -0.00584  -0.083176  0  3.924135  0
C  C89  1  0.67806370  0.80637419  0.50982211  1  -0.019149  0  -0.00542  -0.08084  0  3.93344  0
C  C90  1  0.34894223  0.14504844  0.44221373  1  0.173831  0  0.089989  0.076234  0  3.93649  0
C  C91  1  0.41786738  0.06886228  0.44582102  1  -0.000653  0  -0.079437  -0.186951  0  3.941203  0
C  C92  1  0.65086569  0.85916975  0.55566874  1  0.170686  0  0.087702  0.072472  0  3.937181  0
C  C93  1  0.57376779  0.92673763  0.56145784  1  0.053387  0  -0.077377  -0.181986  0  3.93676  0
C  C94  1  0.62338420  0.82311411  0.47036927  1  0.004169  0  -0.068859  -0.062425  0  3.943415  0
C  C95  1  0.54604920  0.89081920  0.47519947  1  -0.031305  0  -0.08004  -0.126146  0  3.954974  0
C  C96  1  0.32581925  0.12783166  0.58476534  1  -0.034992  0  -0.065697  -0.051723  0  3.945598  0
C  C97  1  0.39455787  0.05135106  0.58958819  1  -0.043808  0  -0.080851  -0.130125  0  3.955971  0
C  C98  1  0.44260566  0.02128420  0.51954236  1  0.042643  0  0.005999  0.092991  0  3.990657  0
C  C99  1  0.52056801  0.94452019  0.51976788  1  -0.004092  0  0.00553  0.090934  0  3.992031  0
C  C100  1  0.00568184  0.50954285  0.80668787  1  -0.010814  0  -0.005599  -0.08167  0  3.933876  0
C  C101  1  0.01041751  0.51023681  0.17741957  1  0.060438  0  -0.005641  -0.08284  0  3.92297  0
C  C102  1  0.93424596  0.55536694  0.85950388  1  0.175809  0  0.088221  0.073403  0  3.936855  0
C  C103  1  0.93802524  0.56117165  0.92704639  1  -0.023319  0  -0.077414  -0.181837  0  3.936143  0
C  C104  1  0.06345975  0.44180145  0.14556472  1  0.188382  0  0.089326  0.074834  0  3.936598  0
C  C105  1  0.06717260  0.44539972  0.06935404  1  0.03074  0  -0.078973  -0.185957  0  3.941418  0
C  C106  1  0.96167627  0.58456117  0.12804665  1  -0.045815  0  -0.06581  -0.052193  0  3.945165  0
C  C107  1  0.96464666  0.58936632  0.05154444  1  -0.069485  0  -0.080818  -0.129793  0  3.9557  0
C  C108  1  0.08311193  0.47015423  0.82336603  1  0.035304  0  -0.068263  -0.061106  0  3.942483  0
C  C109  1  0.08792100  0.47492393  0.89110574  1  -0.003493  0  -0.080102  -0.126607  0  3.954907  0
C  C110  1  0.01512554  0.51945025  0.94484659  1  0.001738  0  0.005591  0.090447  0  3.991697  0
C  C111  1  0.01651026  0.51921072  0.02163610  1  0.039493  0  0.005763  0.092534  0  3.992063  0
C  C112  1  0.07235262  0.84422831  0.14131753  1  -0.045543  0  -0.075375  -0.128368  0  3.904651  0
C  C113  1  0.07406185  0.91653362  0.06567878  1  -0.013718  0  -0.007039  0.084489  0  4.053873  0
C  C114  1  0.13835982  0.95592732  0.02590556  1  -0.063533  0  -0.091835  -0.203802  0  3.965754  0
C  C115  1  0.94588869  0.84163820  0.14138551  1  -0.017517  0  -0.085604  -0.14464  0  3.946839  0
C  C116  1  0.94468997  0.91428734  0.06621610  1  -0.037215  0  -0.007841  0.018895  0  4.000106  0
C  C117  1  0.87933355  0.95234873  0.02767435  1  -0.019693  0  -0.008491  0.124426  0  3.98785  0
C  C118  1  0.94242205  0.14081153  0.84442861  1  0.018827  0  -0.075515  -0.12852  0  3.904738  0
C  C119  1  0.94406159  0.06519566  0.91674675  1  0.018566  0  -0.007241  0.084222  0  4.053734  0
C  C120  1  0.88023073  0.02531573  0.95607635  1  -0.054439  0  -0.091449  -0.203511  0  3.964723  0
C  C121  1  0.07139852  0.14092087  0.84184575  1  -0.068511  0  -0.085686  -0.141081  0  3.946889  0
C  C122  1  0.07506892  0.06584387  0.91459521  1  0.050706  0  -0.00836  0.017111  0  4.000037  0
C  C123  1  0.14076536  0.02741365  0.95283167  1  -0.038029  0  -0.008066  0.125623  0  3.987265  0
C  C124  1  0.00838458  0.80762063  0.17884719  1  0.003562  0  -0.023901  -0.049834  0  4.029938  0
C  C125  1  0.00963327  0.95257995  0.02788984  1  0.047607  0  0.003863  0.002465  0  3.932394  0
C  C126  1  0.00545763  0.17836268  0.80782240  1  -0.084918  0  -0.024092  -0.051  0  4.030347  0
C  C127  1  0.01014641  0.02751347  0.95288089  1  -0.051184  0  0.004016  0.001882  0  3.93365  0
C  C128  1  0.30397514  0.50572760  0.51202436  1  0.094505  0  -0.006136  -0.08408  0  3.927958  0
C  C129  1  0.67813967  0.51178553  0.50609409  1  0.067262  0  -0.005637  -0.083103  0  3.927755  0
C  C130  1  0.35313403  0.43612546  0.56352863  1  0.116401  0  0.087734  0.072887  0  3.935614  0
C  C131  1  0.42289741  0.43939364  0.56601841  1  -0.028258  0  -0.079251  -0.184735  0  3.938655  0
C  C132  1  0.64700269  0.56340967  0.43653530  1  0.142878  0  0.087613  0.072369  0  3.936006  0
C  C133  1  0.57149272  0.56590256  0.43977306  1  0.036584  0  -0.079436  -0.185005  0  3.939013  0
C  C134  1  0.62871925  0.46341062  0.58135441  1  -0.010285  0  -0.064221  -0.049852  0  3.931175  0
C  C135  1  0.55253704  0.46583485  0.58598348  1  -0.071144  0  -0.079143  -0.125179  0  3.948257  0
C  C136  1  0.32639250  0.58105846  0.46375278  1  0.045191  0  -0.064449  -0.050207  0  3.930978  0
C  C137  1  0.39548827  0.58573821  0.46619220  1  -0.065548  0  -0.07908  -0.125341  0  3.947316  0
C  C138  1  0.44582051  0.51455662  0.51627155  1  0.055944  0  0.006166  0.091243  0  3.99035  0
C  C139  1  0.52325063  0.51600696  0.51484410  1  0.000445  0  0.006156  0.091526  0  3.990534  0
C  C140  1  0.21039903  0.06556619  0.91270491  1  -0.03744  0  -0.234325  -0.405573  0  3.991372  0
C  C141  1  0.81158472  0.91223693  0.06609699  1  -0.086082  0  -0.234224  -0.405495  0  3.991948  0
N  N142  1  0.35398374  0.59140530  0.20939193  1  0.441387  0  0.061971  0.52514  0  4.223343  0
N  N143  1  0.68477560  0.36062106  0.83214470  1  0.42629  0  0.062414  0.523903  0  4.23318  0
N  N144  1  0.12223155  0.83191076  0.36104350  1  0.446394  0  0.062837  0.523741  0  4.23273  0
N  N145  1  0.84525893  0.20862727  0.59246601  1  0.424033  0  0.061439  0.524477  0  4.226058  0
N  N146  1  0.33154016  0.19211568  0.35949053  1  0.439971  0  0.061825  0.52268  0  4.23695  0
N  N147  1  0.70555702  0.85031280  0.59576445  1  0.3999  0  0.061102  0.523565  0  4.23049  0
N  N148  1  0.84828664  0.59543824  0.85073372  1  0.404803  0  0.060612  0.522965  0  4.231261  0
N  N149  1  0.11624809  0.35895217  0.19278345  1  0.400431  0  0.061821  0.522914  0  4.236128  0
N  N150  1  0.33650358  0.35269694  0.61583643  1  0.450385  0  0.061997  0.52752  0  4.226413  0
N  N151  1  0.69464119  0.61585929  0.35314142  1  0.407293  0  0.061388  0.526496  0  4.227041  0
O  O152  1  0.79060048  0.44387202  0.70266384  1  -1.175917  0  -0.351231  -0.614578  0  2.322162  0
O  O153  1  0.06280232  0.70228136  0.44437422  1  -1.172358  0  -0.351261  -0.614844  0  2.3228  0
O  O154  1  0.20221653  0.56313766  0.29455334  1  -1.171676  0  -0.351026  -0.612659  0  2.311763  0
O  O155  1  0.94005521  0.29419248  0.56350789  1  -1.184855  0  -0.351582  -0.613595  0  2.311845  0
O  O156  1  0.05947196  0.29340017  0.70392947  1  -1.179669  0  -0.36691  -0.628415  0  2.295778  0
O  O157  1  0.79257643  0.56539270  0.44135089  1  -1.169548  0  -0.353231  -0.618141  0  2.317409  0
O  O158  1  0.94330369  0.70362589  0.29373705  1  -1.184331  0  -0.367035  -0.629223  0  2.296727  0
O  O159  1  0.20067572  0.44099610  0.56567059  1  -1.181342  0  -0.353345  -0.61889  0  2.317619  0
O  O160  1  0.94154811  0.56224955  0.70365987  1  -1.179989  0  -0.35149  -0.613977  0  2.320276  0
O  O161  1  0.19944555  0.29254518  0.44565695  1  -1.166965  0  -0.350989  -0.613655  0  2.320507  0
O  O162  1  0.06229912  0.44539785  0.29282879  1  -1.180983  0  -0.351317  -0.614224  0  2.321001  0
O  O163  1  0.79248136  0.70327645  0.56257089  1  -1.164779  0  -0.351537  -0.61453  0  2.320094  0
O  O164  1  0.20048113  0.29025132  0.56539470  1  -1.170511  0  -0.34338  -0.601093  0  2.280077  0
O  O165  1  0.94380526  0.56514168  0.29056994  1  -1.177836  0  -0.343259  -0.601073  0  2.279444  0
O  O166  1  0.79140952  0.70548188  0.44277693  1  -1.173094  0  -0.344286  -0.601659  0  2.262597  0
O  O167  1  0.06033850  0.44257735  0.70570582  1  -1.178111  0  -0.344386  -0.601553  0  2.263403  0
O  O168  1  0.94072791  0.29333373  0.70346471  1  -1.174153  0  -0.355691  -0.612179  0  2.286247  0
O  O169  1  0.20116999  0.56192075  0.44641438  1  -1.170696  0  -0.343928  -0.597234  0  2.292137  0
O  O170  1  0.06253356  0.70317351  0.29374965  1  -1.173467  0  -0.355337  -0.611938  0  2.287252  0
O  O171  1  0.79042230  0.44609925  0.56223820  1  -1.172475  0  -0.343311  -0.596445  0  2.292337  0
O  O172  1  0.05972216  0.29395023  0.44448223  1  -1.177298  0  -0.346554  -0.601181  0  2.28402  0
O  O173  1  0.79047211  0.56320182  0.70263559  1  -1.169494  0  -0.346983  -0.602907  0  2.289805  0
O  O174  1  0.94361472  0.70224377  0.56367527  1  -1.1701  0  -0.346522  -0.602218  0  2.289026  0
O  O175  1  0.20179983  0.44409512  0.29433809  1  -1.169253  0  -0.34652  -0.600967  0  2.284977  0
O  O176  1  0.94646093  0.44964627  0.44785176  1  -1.241115  0  -0.692095  -1.071087  0  2.344393  0
O  O177  1  0.15598349  0.44755370  0.44995983  1  -1.245618  0  -0.691847  -1.070536  0  2.345263  0
O  O178  1  0.94742601  0.65843055  0.44860283  1  -1.232598  0  -0.693857  -1.071783  0  2.352147  0
O  O179  1  0.94556619  0.44824279  0.65873858  1  -1.251794  0  -0.693703  -1.071383  0  2.353727  0
O  O180  1  0.03746418  0.53845622  0.54023472  1  -1.204264  0  -0.791472  -1.152186  0  2.128535  0
O  O181  1  0.88383241  0.53988378  0.53877495  1  -1.202062  0  -0.791642  -1.152968  0  2.129537  0
O  O182  1  0.03805448  0.53972579  0.38565421  1  -1.199157  0  -0.793473  -1.151686  0  2.137797  0
O  O183  1  0.03654959  0.38533593  0.54003021  1  -1.200207  0  -0.793638  -1.152401  0  2.138949  0
O  O184  1  0.37097123  0.54065755  0.27656725  1  -0.444754  0  -0.12909  -0.322751  0  1.887129  0
O  O185  1  0.33696365  0.67040419  0.18140018  1  -0.455809  0  -0.12933  -0.323128  0  1.855699  0
O  O186  1  0.74155140  0.30471191  0.86378347  1  -0.43774  0  -0.116658  -0.310742  0  1.892025  0
O  O187  1  0.65687262  0.35322148  0.79090644  1  -0.44668  0  -0.124585  -0.323844  0  1.889322  0
O  O188  1  0.08966332  0.86356651  0.30518126  1  -0.438642  0  -0.115945  -0.309543  0  1.891763  0
O  O189  1  0.19880058  0.79071872  0.35355393  1  -0.446675  0  -0.125333  -0.324323  0  1.888634  0
O  O190  1  0.81149756  0.27564940  0.54186726  1  -0.436428  0  -0.12867  -0.322763  0  1.887426  0
O  O191  1  0.81160351  0.18061830  0.67151293  1  -0.443955  0  -0.1292  -0.322586  0  1.857813  0
O  O192  1  0.36131775  0.25137459  0.30702960  1  -0.435626  0  -0.121866  -0.311119  0  1.876531  0
O  O193  1  0.29319484  0.16453576  0.34771945  1  -0.43816  0  -0.123985  -0.322162  0  1.885811  0
O  O194  1  0.76980528  0.87272000  0.54642608  1  -0.450191  0  -0.125768  -0.31885  0  1.884191  0
O  O195  1  0.68000730  0.82579515  0.67534608  1  -0.406977  0  -0.127348  -0.321071  0  1.860717  0
O  O196  1  0.81096380  0.54610607  0.87314457  1  -0.447743  0  -0.125342  -0.31856  0  1.885518  0
O  O197  1  0.81874955  0.67502548  0.82629639  1  -0.405201  0  -0.127457  -0.321028  0  1.86019  0
O  O198  1  0.07939352  0.30673558  0.25209590  1  -0.421566  0  -0.121039  -0.310301  0  1.878174  0
O  O199  1  0.19401752  0.34682847  0.16526592  1  -0.423761  0  -0.125079  -0.323137  0  1.882466  0
O  O200  1  0.36464636  0.30245755  0.57805973  1  -0.444118  0  -0.124099  -0.317235  0  1.881892  0
O  O201  1  0.29990437  0.33790659  0.69437984  1  -0.459461  0  -0.133708  -0.334704  0  1.866636  0
O  O202  1  0.75441134  0.57820896  0.30274977  1  -0.418138  0  -0.123503  -0.31633  0  1.881258  0
O  O203  1  0.66748263  0.69438050  0.33851229  1  -0.450845  0  -0.13383  -0.33473  0  1.866919  0
