# generated using pymatgen
data_HgH26C32N4(ClO2)2
_symmetry_space_group_name_H-M   'P 1'
_cell_length_a   5.13570786
_cell_length_b   21.61927638
_cell_length_c   29.31546842
_cell_angle_alpha   90.00001874
_cell_angle_beta   90.00000129
_cell_angle_gamma   89.99988993
_symmetry_Int_Tables_number   1
_chemical_formula_structural   HgH26C32N4(ClO2)2
_chemical_formula_sum   'Hg4 H104 C128 N16 Cl8 O16'
_cell_volume   3254.90489309
_cell_formula_units_Z   4
loop_
 _symmetry_equiv_pos_site_id
 _symmetry_equiv_pos_as_xyz
  1  'x, y, z'
loop_
 _atom_site_type_symbol
 _atom_site_label
 _atom_site_symmetry_multiplicity
 _atom_site_fract_x
 _atom_site_fract_y
 _atom_site_fract_z
 _atom_site_occupancy
 _atom_site_pbe_bader_charge
 _atom_site_pbe_bader_spin_density
 _atom_site_pbe_cm5_charge
 _atom_site_pbe_ddec_charge
 _atom_site_pbe_ddec_spin_density
 _atom_site_pbe_ddec_sum_bond_order
 _atom_site_pbe_magmom
Hg  Hg0  1  0.53336274  0.24235509  0.87822308  1  0.809478  0  0.51246  0.536136  0  2.652081  0
Hg  Hg1  1  0.53336061  0.75764552  0.12177710  1  0.809476  0  0.512465  0.536137  0  2.652103  0
Hg  Hg2  1  0.46663962  0.25764505  0.37822220  1  0.80948  0  0.512442  0.536129  0  2.652044  0
Hg  Hg3  1  0.46663377  0.74235467  0.62177729  1  0.809471  0  0.512461  0.536132  0  2.652079  0
H  H4  1  0.20494999  0.33684539  0.94383521  1  0.158437  0  0.109539  0.087332  0  1.004785  0
H  H5  1  0.20495251  0.66315445  0.05616497  1  0.158416  0  0.109522  0.087309  0  1.004793  0
H  H6  1  0.79504848  0.16315524  0.44383567  1  0.158452  0  0.109501  0.087272  0  1.004795  0
H  H7  1  0.79504187  0.83684618  0.55616519  1  0.158372  0  0.109508  0.087288  0  1.004749  0
H  H8  1  0.84458716  0.34117450  0.00213407  1  0.111943  0  0.119749  0.138215  0  0.96359  0
H  H9  1  0.84458788  0.65882643  0.99786611  1  0.111954  0  0.119745  0.138185  0  0.963641  0
H  H10  1  0.15541321  0.15882686  0.50213390  1  0.111964  0  0.119735  0.138177  0  0.963598  0
H  H11  1  0.15541045  0.84117532  0.49786729  1  0.111954  0  0.119754  0.13826  0  0.963613  0
H  H12  1  0.82432597  0.14108247  0.99801784  1  0.110267  0  0.11688  0.134149  0  0.979191  0
H  H13  1  0.82432300  0.85891801  0.00198302  1  0.110346  0  0.116847  0.134108  0  0.979244  0
H  H14  1  0.17567446  0.35891773  0.49801699  1  0.110256  0  0.116859  0.134113  0  0.979246  0
H  H15  1  0.17567331  0.64108305  0.50198250  1  0.110291  0  0.116865  0.134107  0  0.979267  0
H  H16  1  0.18821889  0.14549301  0.94061982  1  0.125532  0  0.111533  0.087585  0  1.007637  0
H  H17  1  0.18821987  0.85450729  0.05938070  1  0.125522  0  0.11152  0.087546  0  1.007678  0
H  H18  1  0.81177958  0.35450762  0.44061930  1  0.125507  0  0.111553  0.087625  0  1.00761  0
H  H19  1  0.81177646  0.64549333  0.55937985  1  0.125609  0  0.111527  0.087574  0  1.007653  0
H  H20  1  0.33295707  0.47148428  0.13302471  1  0.106126  0  0.115123  0.065135  0  0.971281  0
H  H21  1  0.33295883  0.52851596  0.86697546  1  0.106119  0  0.115118  0.065129  0  0.971267  0
H  H22  1  0.66704137  0.02851575  0.63302451  1  0.106112  0  0.115113  0.065118  0  0.971289  0
H  H23  1  0.66703948  0.97148296  0.36697566  1  0.106121  0  0.115115  0.065138  0  0.97126  0
H  H24  1  0.05876708  0.45845294  0.22516480  1  0.027123  0  0.089016  0.085842  0  1.020935  0
H  H25  1  0.05876677  0.54154696  0.77483537  1  0.027129  0  0.088996  0.08583  0  1.020932  0
H  H26  1  0.94123137  0.04154759  0.72516461  1  0.027139  0  0.089017  0.085848  0  1.020939  0
H  H27  1  0.94123347  0.95845237  0.27483523  1  0.027122  0  0.089029  0.085863  0  1.020948  0
H  H28  1  0.39198702  0.44416052  0.21287606  1  0.062623  0  0.089958  0.094184  0  1.021304  0
H  H29  1  0.39198855  0.55583923  0.78712377  1  0.062614  0  0.089986  0.094238  0  1.021323  0
H  H30  1  0.60801142  0.05583954  0.71287588  1  0.062697  0  0.089965  0.094225  0  1.021319  0
H  H31  1  0.60801170  0.94416057  0.28712396  1  0.062611  0  0.08997  0.094207  0  1.021325  0
H  H32  1  0.43389314  0.56010102  0.19148498  1  0.028817  0  0.077898  0.106944  0  1.038902  0
H  H33  1  0.43389366  0.43989917  0.80851519  1  0.028807  0  0.0779  0.106948  0  1.038882  0
H  H34  1  0.56610709  0.93989920  0.69148488  1  0.02882  0  0.077902  0.106933  0  1.038898  0
H  H35  1  0.56610674  0.06010047  0.30851529  1  0.028814  0  0.077901  0.10693  0  1.038891  0
H  H36  1  0.36034930  0.54617829  0.24991488  1  0.059509  0  0.087072  0.123888  0  1.015996  0
H  H37  1  0.36035165  0.45382148  0.75008529  1  0.059498  0  0.087097  0.12393  0  1.015968  0
H  H38  1  0.63964900  0.95382196  0.74991445  1  0.059511  0  0.087046  0.123849  0  1.016059  0
H  H39  1  0.63965070  0.04617861  0.25008573  1  0.059512  0  0.087063  0.123865  0  1.016016  0
H  H40  1  0.11140396  0.56980725  0.21203659  1  0.032693  0  0.082822  0.109281  0  1.027939  0
H  H41  1  0.11140651  0.43019309  0.78796324  1  0.032705  0  0.08286  0.109364  0  1.027937  0
H  H42  1  0.88859433  0.93019344  0.71203683  1  0.032708  0  0.082841  0.109297  0  1.027909  0
H  H43  1  0.88859584  0.06980655  0.28796368  1  0.032705  0  0.082841  0.109283  0  1.027921  0
H  H44  1  0.88305643  0.48852959  0.10070355  1  0.054504  0  0.091208  0.131535  0  0.990619  0
H  H45  1  0.88306028  0.51147087  0.89929663  1  0.054492  0  0.091228  0.131584  0  0.990593  0
H  H46  1  0.11694005  0.01147043  0.60070369  1  0.054511  0  0.091197  0.131521  0  0.99065  0
H  H47  1  0.11693998  0.98852899  0.39929648  1  0.054497  0  0.091197  0.131521  0  0.990664  0
H  H48  1  0.99158066  0.55103074  0.13499467  1  0.043673  0  0.085164  0.13156  0  1.02444  0
H  H49  1  0.99158306  0.44896921  0.86500585  1  0.043651  0  0.085188  0.131611  0  1.024461  0
H  H50  1  0.00841568  0.94896946  0.63499457  1  0.04365  0  0.08516  0.131569  0  1.024464  0
H  H51  1  0.00841346  0.05103047  0.36500526  1  0.043652  0  0.085156  0.131569  0  1.024501  0
H  H52  1  0.76118615  0.49750865  0.15718431  1  0.061483  0  0.08998  0.130161  0  1.023889  0
H  H53  1  0.76118812  0.50249140  0.84281586  1  0.061504  0  0.089951  0.13011  0  1.023868  0
H  H54  1  0.23881034  0.00249139  0.65718411  1  0.061503  0  0.089965  0.130115  0  1.023927  0
H  H55  1  0.23881019  0.99750843  0.34281572  1  0.061491  0  0.089974  0.130122  0  1.023915  0
H  H56  1  0.71279362  0.01173477  0.13038339  1  0.094003  0  0.113723  0.067379  0  0.974692  0
H  H57  1  0.71279360  0.98826577  0.86961679  1  0.093999  0  0.113705  0.067373  0  0.974724  0
H  H58  1  0.28720871  0.48826526  0.63038330  1  0.093996  0  0.113723  0.067374  0  0.974697  0
H  H59  1  0.28720665  0.51173315  0.36961721  1  0.093997  0  0.113718  0.067329  0  0.974739  0
H  H60  1  0.08054402  0.93541522  0.11992212  1  0.020683  0  0.080104  0.082978  0  1.030599  0
H  H61  1  0.08054370  0.06458514  0.88007805  1  0.020682  0  0.080104  0.082979  0  1.030592  0
H  H62  1  0.91945815  0.56458497  0.61992194  1  0.020454  0  0.080105  0.082958  0  1.030598  0
H  H63  1  0.91945671  0.43541408  0.38007790  1  0.020653  0  0.080098  0.082982  0  1.0306  0
H  H64  1  0.29477714  0.99790431  0.11118442  1  0.039304  0  0.08925  0.090645  0  1.009792  0
H  H65  1  0.29477732  0.00209549  0.88881541  1  0.039304  0  0.089241  0.090638  0  1.009827  0
H  H66  1  0.70522308  0.50209588  0.61118456  1  0.039316  0  0.089229  0.090601  0  1.009826  0
H  H67  1  0.70522309  0.49790327  0.38881561  1  0.038812  0  0.089248  0.090657  0  1.009793  0
H  H68  1  0.17950189  0.03823625  0.19084942  1  0.022096  0  0.081833  0.114693  0  1.019979  0
H  H69  1  0.17950208  0.96176314  0.80915041  1  0.022092  0  0.081841  0.114747  0  1.019931  0
H  H70  1  0.82049850  0.46176334  0.69084967  1  0.0221  0  0.081825  0.114732  0  1.019932  0
H  H71  1  0.82050012  0.53823621  0.30915085  1  0.022112  0  0.081835  0.114694  0  1.019952  0
H  H72  1  0.31300457  0.96291472  0.19263630  1  0.042913  0  0.082979  0.116123  0  1.012616  0
H  H73  1  0.31300251  0.03708507  0.80736319  1  0.042914  0  0.082995  0.116146  0  1.012613  0
H  H74  1  0.68699761  0.53708551  0.69263679  1  0.042905  0  0.083004  0.116184  0  1.012576  0
H  H75  1  0.68699594  0.46291457  0.30736339  1  0.042905  0  0.083017  0.116148  0  1.0126  0
H  H76  1  0.97053609  0.97324424  0.19801742  1  0.003275  0  0.082361  0.111669  0  1.019044  0
H  H77  1  0.97053411  0.02675525  0.80198276  1  0.003273  0  0.082353  0.111682  0  1.019033  0
H  H78  1  0.02946415  0.52675552  0.69801756  1  0.003277  0  0.082428  0.111782  0  1.01892  0
H  H79  1  0.02946434  0.47324393  0.30198261  1  0.003277  0  0.082364  0.111681  0  1.01903  0
H  H80  1  0.66705494  0.03442886  0.04686400  1  0.039216  0  0.08948  0.135305  0  1.016344  0
H  H81  1  0.66705706  0.96557170  0.95313583  1  0.039232  0  0.089483  0.135314  0  1.016334  0
H  H82  1  0.33294349  0.46557113  0.54686425  1  0.039231  0  0.089491  0.135335  0  1.01635  0
H  H83  1  0.33294515  0.53442818  0.45313592  1  0.039236  0  0.089488  0.135342  0  1.01632  0
H  H84  1  0.77160544  0.95735010  0.05740121  1  0.023925  0  0.084366  0.127603  0  1.025787  0
H  H85  1  0.77160725  0.04265040  0.94259897  1  0.023919  0  0.084361  0.127602  0  1.025791  0
H  H86  1  0.22839284  0.54264960  0.55740136  1  0.02397  0  0.084362  0.127612  0  1.025758  0
H  H87  1  0.22839512  0.45734931  0.44259882  1  0.023903  0  0.084375  0.127617  0  1.025738  0
H  H88  1  0.00104751  0.01370213  0.03840055  1  0.052413  0  0.088262  0.12777  0  1.022418  0
H  H89  1  0.00104752  0.98629734  0.96159928  1  0.052784  0  0.088258  0.127766  0  1.022428  0
H  H90  1  0.99895286  0.48629739  0.53840080  1  0.05278  0  0.088261  0.127774  0  1.022426  0
H  H91  1  0.99895274  0.51370162  0.46159971  1  0.052414  0  0.088273  0.127803  0  1.022362  0
H  H92  1  0.20963669  0.35003115  0.25904315  1  0.119303  0  0.115849  0.131308  0  0.98899  0
H  H93  1  0.20963940  0.64996961  0.74095702  1  0.119314  0  0.115855  0.131325  0  0.988972  0
H  H94  1  0.79036565  0.14996847  0.75904401  1  0.11891  0  0.115861  0.131272  0  0.98895  0
H  H95  1  0.79036279  0.85003110  0.24095719  1  0.119301  0  0.115833  0.131281  0  0.988964  0
H  H96  1  0.83926752  0.35131506  0.31498392  1  0.096673  0  0.112182  0.089628  0  1.012725  0
H  H97  1  0.83927412  0.64868310  0.68501489  1  0.096654  0  0.112179  0.089613  0  1.012718  0
H  H98  1  0.16073678  0.14868459  0.81498478  1  0.09665  0  0.112176  0.089611  0  1.012794  0
H  H99  1  0.16073195  0.85131620  0.18501574  1  0.09666  0  0.112168  0.089622  0  1.012733  0
H  H100  1  0.79738312  0.16030868  0.31699137  1  0.108175  0  0.107321  0.078132  0  1.043889  0
H  H101  1  0.79737455  0.83969181  0.68300675  1  0.108094  0  0.107327  0.078172  0  1.043809  0
H  H102  1  0.20261728  0.33969236  0.81699227  1  0.108216  0  0.107319  0.078134  0  1.043854  0
H  H103  1  0.20261984  0.66030794  0.18300722  1  0.10821  0  0.107323  0.078152  0  1.043803  0
H  H104  1  0.16059071  0.15019423  0.25973320  1  0.065423  0  0.116555  0.131947  0  0.981143  0
H  H105  1  0.16058206  0.84980563  0.74026526  1  0.065457  0  0.116542  0.1319  0  0.981184  0
H  H106  1  0.83941164  0.34980586  0.75973377  1  0.065438  0  0.116538  0.1319  0  0.981166  0
H  H107  1  0.83940844  0.65019369  0.24026504  1  0.065435  0  0.116558  0.131916  0  0.981175  0
C  C108  1  0.11537536  0.29482088  0.95729738  1  0.491608  0  0.044974  0.090564  0  3.983175  0
C  C109  1  0.11538143  0.70517900  0.04270280  1  0.491689  0  0.044976  0.090565  0  3.983147  0
C  C110  1  0.88462311  0.20517976  0.45729751  1  0.491709  0  0.044999  0.090641  0  3.983201  0
C  C111  1  0.88461683  0.79482116  0.54270300  1  0.491891  0  0.044984  0.090655  0  3.983094  0
C  C112  1  0.91702531  0.29711773  0.98939409  1  -0.030999  0  -0.07149  -0.159651  0  3.899984  0
C  C113  1  0.91702556  0.70288225  0.01060609  1  -0.031052  0  -0.071462  -0.159587  0  3.899937  0
C  C114  1  0.08297706  0.20288292  0.48939422  1  -0.031069  0  -0.071483  -0.159618  0  3.89996  0
C  C115  1  0.08297076  0.79711882  0.51060630  1  -0.03105  0  -0.071494  -0.1598  0  3.900014  0
C  C116  1  0.80766957  0.24112260  0.00480466  1  0.077535  0  0.014442  0.155888  0  4.110254  0
C  C117  1  0.80766754  0.75887743  0.99519551  1  0.077725  0  0.014441  0.155883  0  4.110262  0
C  C118  1  0.19233469  0.25887784  0.50480452  1  0.077693  0  0.014418  0.155886  0  4.110342  0
C  C119  1  0.19233273  0.74112339  0.49519600  1  0.077736  0  0.014529  0.156078  0  4.110178  0
C  C120  1  0.90545579  0.18518244  0.98710961  1  -0.023844  0  -0.073204  -0.161256  0  3.901465  0
C  C121  1  0.90545124  0.81481754  0.01289056  1  -0.024081  0  -0.073173  -0.161222  0  3.901507  0
C  C122  1  0.09454852  0.31481775  0.48710943  1  -0.024031  0  -0.07315  -0.161211  0  3.901618  0
C  C123  1  0.09454313  0.68518306  0.51289040  1  -0.023993  0  -0.073229  -0.161258  0  3.901591  0
C  C124  1  0.10557384  0.18753191  0.95534890  1  0.495059  0  0.045901  0.090868  0  3.981089  0
C  C125  1  0.10557515  0.81246844  0.04465127  1  0.495062  0  0.045918  0.090913  0  3.981093  0
C  C126  1  0.89442658  0.31246873  0.45534872  1  0.495077  0  0.045939  0.09094  0  3.980947  0
C  C127  1  0.89442117  0.68753218  0.54465043  1  0.494952  0  0.045933  0.090899  0  3.981079  0
C  C128  1  0.60473163  0.24108750  0.03714458  1  0.000104  0  -0.017413  -0.054458  0  4.030493  0
C  C129  1  0.60472764  0.75891262  0.96285491  1  0.00015  0  -0.017366  -0.054379  0  4.030487  0
C  C130  1  0.39527458  0.25891342  0.53714376  1  0.000616  0  -0.017365  -0.054402  0  4.030492  0
C  C131  1  0.39527068  0.74108819  0.46285505  1  0.000142  0  -0.017387  -0.054449  0  4.030445  0
C  C132  1  0.42990276  0.24092889  0.06519121  1  -0.253943  0  -0.028186  -0.07871  0  4.084357  0
C  C133  1  0.42990072  0.75907039  0.93480794  1  -0.253976  0  -0.028222  -0.078778  0  4.084464  0
C  C134  1  0.57010150  0.25907204  0.56519073  1  -0.254461  0  -0.028219  -0.078741  0  4.084428  0
C  C135  1  0.57009955  0.74092856  0.43480876  1  -0.253985  0  -0.028217  -0.078762  0  4.084364  0
C  C136  1  0.22625800  0.24161583  0.09714226  1  0.080309  0  0.027479  0.12971  0  4.06433  0
C  C137  1  0.22625596  0.75838446  0.90285757  1  0.080163  0  0.027467  0.129666  0  4.06435  0
C  C138  1  0.77374432  0.25838465  0.59714144  1  0.080238  0  0.02755  0.12977  0  4.064275  0
C  C139  1  0.77374430  0.74161493  0.40285806  1  0.080214  0  0.027465  0.129719  0  4.064277  0
C  C140  1  0.14245434  0.29615514  0.11908768  1  -0.015754  0  0.00947  -0.080509  0  3.935255  0
C  C141  1  0.14245663  0.70384519  0.88091181  1  -0.015743  0  0.009482  -0.080415  0  3.935248  0
C  C142  1  0.85754799  0.20384534  0.61908752  1  -0.015713  0  0.009412  -0.080642  0  3.935336  0
C  C143  1  0.85754947  0.79615420  0.38091299  1  -0.015788  0  0.009476  -0.080464  0  3.935265  0
C  C144  1  0.93696020  0.29728174  0.15000242  1  0.062769  0  0.008925  -0.085447  0  3.939692  0
C  C145  1  0.93695860  0.70271776  0.84999708  1  0.062423  0  0.00888  -0.085498  0  3.939582  0
C  C146  1  0.06304213  0.20271783  0.65000260  1  0.062627  0  0.008886  -0.085484  0  3.939765  0
C  C147  1  0.06304165  0.79728114  0.34999791  1  0.062763  0  0.008905  -0.085488  0  3.939734  0
C  C148  1  0.79651629  0.24380635  0.16262783  1  0.137702  0  0.027981  0.130518  0  4.057538  0
C  C149  1  0.79651231  0.75619368  0.83737303  1  0.137974  0  0.027979  0.13051  0  4.057601  0
C  C150  1  0.20348604  0.25619323  0.66262768  1  0.137979  0  0.028028  0.130633  0  4.057466  0
C  C151  1  0.20348210  0.74380522  0.33737113  1  0.137721  0  0.027968  0.130513  0  4.057501  0
C  C152  1  0.88204124  0.18916990  0.14095087  1  -0.010542  0  0.009142  -0.083334  0  3.937446  0
C  C153  1  0.88204460  0.81082963  0.85904965  1  -0.010753  0  0.009147  -0.083363  0  3.937412  0
C  C154  1  0.11795915  0.31083013  0.64095074  1  -0.010759  0  0.0091  -0.083457  0  3.937459  0
C  C155  1  0.11795760  0.68916882  0.35904909  1  -0.010869  0  0.009106  -0.083417  0  3.937421  0
C  C156  1  0.08713037  0.18812610  0.10992561  1  -0.000737  0  0.009251  -0.084774  0  3.940312  0
C  C157  1  0.08712984  0.81187472  0.89007388  1  -0.000636  0  0.009247  -0.084744  0  3.940481  0
C  C158  1  0.91287585  0.31187438  0.60992616  1  -0.000568  0  0.00927  -0.084722  0  3.940425  0
C  C159  1  0.91287042  0.68812513  0.39007367  1  -0.000305  0  0.00928  -0.0847  0  3.940352  0
C  C160  1  0.25401027  0.35993708  0.11630110  1  1.37882  0  0.252944  0.451769  0  4.087901  0
C  C161  1  0.25400918  0.64006366  0.88369873  1  1.378808  0  0.252853  0.451591  0  4.08815  0
C  C162  1  0.74599011  0.14006340  0.61630059  1  1.378819  0  0.252915  0.451707  0  4.088025  0
C  C163  1  0.74599497  0.85993619  0.38369958  1  1.378803  0  0.252857  0.451562  0  4.088125  0
C  C164  1  0.90780135  0.36211325  0.16708590  1  1.389188  0  0.255833  0.453812  0  4.08141  0
C  C165  1  0.90780222  0.63788720  0.83291292  1  1.389436  0  0.25589  0.453896  0  4.081257  0
C  C166  1  0.09219904  0.13788726  0.66708607  1  1.389311  0  0.255866  0.453883  0  4.081315  0
C  C167  1  0.09220193  0.86211263  0.33291411  1  1.389188  0  0.25586  0.453824  0  4.081382  0
C  C168  1  0.15827232  0.46257792  0.15375984  1  0.293947  0  0.018093  0.181095  0  3.813761  0
C  C169  1  0.15827206  0.53742286  0.84624034  1  0.293953  0  0.018111  0.181203  0  3.813733  0
C  C170  1  0.84172611  0.03742258  0.65375964  1  0.293953  0  0.01812  0.181154  0  3.813745  0
C  C171  1  0.84172819  0.96257651  0.34624019  1  0.293886  0  0.018103  0.181133  0  3.813724  0
C  C172  1  0.22458836  0.47359448  0.20426355  1  -0.026962  0  -0.171196  -0.178279  0  3.937795  0
C  C173  1  0.22459013  0.52640581  0.79573662  1  -0.02695  0  -0.171258  -0.178431  0  3.937816  0
C  C174  1  0.77540814  0.02640605  0.70426335  1  -0.027038  0  -0.171242  -0.178435  0  3.937873  0
C  C175  1  0.77541012  0.97359399  0.29573648  1  -0.02685  0  -0.171245  -0.178398  0  3.937865  0
C  C176  1  0.28686772  0.54107637  0.21492994  1  -0.104975  0  -0.248493  -0.348735  0  3.944861  0
C  C177  1  0.28686809  0.45892343  0.78507023  1  -0.104967  0  -0.248535  -0.34882  0  3.944816  0
C  C178  1  0.71313252  0.95892386  0.71492985  1  -0.104996  0  -0.248476  -0.348646  0  3.944867  0
C  C179  1  0.71313231  0.04107621  0.28507033  1  -0.104984  0  -0.248485  -0.34865  0  3.944835  0
C  C180  1  0.93464810  0.50216001  0.13563699  1  -0.090462  0  -0.245923  -0.422354  0  3.90197  0
C  C181  1  0.93465011  0.49784042  0.86436353  1  -0.090431  0  -0.245916  -0.422397  0  3.901947  0
C  C182  1  0.06535018  0.99784019  0.63563690  1  -0.090444  0  -0.245875  -0.422296  0  3.902008  0
C  C183  1  0.06535030  0.00215971  0.36436327  1  -0.090431  0  -0.24588  -0.422302  0  3.902087  0
C  C184  1  0.12191259  0.12300966  0.09376246  1  1.381162  0  0.25587  0.453791  0  4.075365  0
C  C185  1  0.12191154  0.87698975  0.90623669  1  1.381196  0  0.255848  0.453821  0  4.075612  0
C  C186  1  0.87808778  0.37698989  0.59376337  1  1.38104  0  0.255861  0.453731  0  4.075625  0
C  C187  1  0.87808872  0.62300918  0.40623680  1  1.381135  0  0.255846  0.45371  0  4.075614  0
C  C188  1  0.77744248  0.12486805  0.14490543  1  1.376981  0  0.254176  0.448265  0  4.088392  0
C  C189  1  0.77743948  0.87513153  0.85509441  1  1.37699  0  0.25425  0.448427  0  4.088396  0
C  C190  1  0.22255985  0.37513198  0.64490599  1  1.376968  0  0.25424  0.448429  0  4.088243  0
C  C191  1  0.22255883  0.62486738  0.35509418  1  1.376914  0  0.25423  0.448367  0  4.088341  0
C  C192  1  0.88675986  0.02132246  0.10964587  1  0.304267  0  0.015908  0.178219  0  3.813931  0
C  C193  1  0.88675992  0.97867753  0.89035396  1  0.304269  0  0.015901  0.178242  0  3.813994  0
C  C194  1  0.11324052  0.47867710  0.60964646  1  0.304259  0  0.015894  0.178167  0  3.814101  0
C  C195  1  0.11324033  0.52132186  0.39035405  1  0.304254  0  0.015894  0.178255  0  3.813938  0
C  C196  1  0.11556918  0.98405607  0.12891192  1  -0.001935  0  -0.172544  -0.169725  0  3.941937  0
C  C197  1  0.11556925  0.01594381  0.87108791  1  -0.001925  0  -0.172528  -0.169678  0  3.941971  0
C  C198  1  0.88443299  0.51594413  0.62891207  1  -0.001711  0  -0.172528  -0.169611  0  3.942031  0
C  C199  1  0.88443116  0.48405540  0.37108811  1  -0.001431  0  -0.172531  -0.169743  0  3.941918  0
C  C200  1  0.14598172  0.99005905  0.18045877  1  -0.050496  0  -0.251305  -0.355735  0  3.967408  0
C  C201  1  0.14598183  0.00994128  0.81954106  1  -0.050497  0  -0.251326  -0.355838  0  3.967435  0
C  C202  1  0.85401851  0.50994163  0.68045891  1  -0.050509  0  -0.251409  -0.355996  0  3.967386  0
C  C203  1  0.85401857  0.49005837  0.31954126  1  -0.050502  0  -0.251355  -0.355762  0  3.967407  0
C  C204  1  0.82870366  0.00618736  0.05976981  1  -0.050417  0  -0.24887  -0.433391  0  3.914632  0
C  C205  1  0.82870555  0.99381266  0.94023002  1  -0.050419  0  -0.248862  -0.433394  0  3.914648  0
C  C206  1  0.17129477  0.49381218  0.55977007  1  -0.050447  0  -0.248856  -0.433397  0  3.914629  0
C  C207  1  0.17129666  0.50618675  0.44023011  1  -0.050422  0  -0.248902  -0.433492  0  3.914553  0
C  C208  1  0.59193495  0.24500163  0.19444959  1  -0.099934  0  -0.0283  -0.079111  0  4.075789  0
C  C209  1  0.59193292  0.75499895  0.80555161  1  -0.100032  0  -0.028322  -0.079132  0  4.075718  0
C  C210  1  0.40806544  0.25499796  0.69444979  1  -0.099914  0  -0.028295  -0.079087  0  4.07577  0
C  C211  1  0.40806344  0.74500086  0.30555004  1  -0.099956  0  -0.028322  -0.079065  0  4.075714  0
C  C212  1  0.41633500  0.24675845  0.22235602  1  -0.201101  0  -0.016664  -0.051253  0  4.018812  0
C  C213  1  0.41633103  0.75324222  0.77764518  1  -0.200977  0  -0.016657  -0.051255  0  4.018569  0
C  C214  1  0.58366734  0.25324116  0.72235622  1  -0.201077  0  -0.016678  -0.051304  0  4.018756  0
C  C215  1  0.58366337  0.74675758  0.27764327  1  -0.200963  0  -0.016658  -0.051319  0  4.018752  0
C  C216  1  0.21194836  0.24969107  0.25443533  1  0.153119  0  0.012654  0.154368  0  4.105651  0
C  C217  1  0.21194442  0.75030969  0.74556450  1  0.153115  0  0.012725  0.15446  0  4.105493  0
C  C218  1  0.78805593  0.25030948  0.75443587  1  0.152982  0  0.012686  0.154357  0  4.10562  0
C  C219  1  0.78804998  0.74969056  0.24556396  1  0.152989  0  0.012697  0.154405  0  4.105624  0
C  C220  1  0.12068515  0.30710652  0.27057187  1  -0.029765  0  -0.074026  -0.159497  0  3.901001  0
C  C221  1  0.12068557  0.69289382  0.72942796  1  -0.029744  0  -0.074056  -0.159552  0  3.900972  0
C  C222  1  0.87931719  0.19289357  0.77057240  1  -0.029223  0  -0.074008  -0.159299  0  3.900941  0
C  C223  1  0.87931467  0.80710642  0.22942812  1  -0.029751  0  -0.07399  -0.159409  0  3.900971  0
C  C224  1  0.91699408  0.30792043  0.30173051  1  0.524768  0  0.04553  0.091103  0  3.974406  0
C  C225  1  0.91699644  0.69207908  0.69826899  1  0.525238  0  0.0455  0.091116  0  3.974314  0
C  C226  1  0.08300633  0.19207967  0.80173137  1  0.525238  0  0.045487  0.090965  0  3.97452  0
C  C227  1  0.08300574  0.80792022  0.19826948  1  0.524785  0  0.045509  0.091034  0  3.974425  0
C  C228  1  0.89347682  0.20086875  0.30264639  1  0.507892  0  0.040999  0.084034  0  3.990568  0
C  C229  1  0.89347247  0.79913123  0.69735208  1  0.507952  0  0.041007  0.083968  0  3.990531  0
C  C230  1  0.10652359  0.29913135  0.80264728  1  0.50784  0  0.041018  0.084021  0  3.990559  0
C  C231  1  0.10652387  0.70086853  0.19735255  1  0.507827  0  0.040991  0.083983  0  3.990424  0
C  C232  1  0.09369614  0.19541731  0.27111969  1  -0.014069  0  -0.073741  -0.161697  0  3.905361  0
C  C233  1  0.09368981  0.80458304  0.72887912  1  -0.014085  0  -0.073775  -0.161692  0  3.905362  0
C  C234  1  0.90630620  0.30458278  0.77112058  1  -0.014109  0  -0.073779  -0.1617  0  3.905387  0
C  C235  1  0.90630459  0.69541720  0.22887925  1  -0.014028  0  -0.073776  -0.1617  0  3.905359  0
N  N236  1  0.20762576  0.24118076  0.94070511  1  -1.205385  0  -0.314521  -0.223857  0  3.516332  0
N  N237  1  0.20762556  0.75881907  0.05929507  1  -1.205401  0  -0.314523  -0.223865  0  3.516371  0
N  N238  1  0.79237466  0.25881941  0.44070491  1  -1.205385  0  -0.314612  -0.22404  0  3.516264  0
N  N239  1  0.79236881  0.74118155  0.55929492  1  -1.205581  0  -0.314568  -0.223942  0  3.516325  0
N  N240  1  0.10529255  0.39645546  0.14607617  1  -1.163394  0  -0.243794  -0.218416  0  3.549602  0
N  N241  1  0.10529176  0.60354535  0.85392366  1  -1.163377  0  -0.243768  -0.218477  0  3.549561  0
N  N242  1  0.89470588  0.10354504  0.64607599  1  -1.163371  0  -0.243761  -0.218347  0  3.549533  0
N  N243  1  0.89470850  0.89645449  0.35392384  1  -1.163388  0  -0.243784  -0.218385  0  3.549576  0
N  N244  1  0.92944115  0.08817807  0.11579247  1  -1.16409  0  -0.242793  -0.211133  0  3.539165  0
N  N245  1  0.92943785  0.91182144  0.88420737  1  -1.164081  0  -0.242818  -0.211303  0  3.539318  0
N  N246  1  0.07055924  0.41182196  0.61579304  1  -1.164097  0  -0.242834  -0.211165  0  3.539202  0
N  N247  1  0.07055851  0.58817702  0.38420713  1  -1.16405  0  -0.242762  -0.211123  0  3.53914  0
N  N248  1  0.80623059  0.25588311  0.31751022  1  -1.213657  0  -0.31385  -0.222822  0  3.508752  0
N  N249  1  0.80623058  0.74411600  0.68248893  1  -1.214129  0  -0.313856  -0.222842  0  3.508761  0
N  N250  1  0.19376982  0.24411654  0.81751076  1  -1.214127  0  -0.313839  -0.222757  0  3.508743  0
N  N251  1  0.19376965  0.75588376  0.18248907  1  -1.213679  0  -0.313832  -0.222759  0  3.508696  0
Cl  Cl252  1  0.62282417  0.35064778  0.88069960  1  -0.504132  0  -0.268171  -0.393317  0  1.220007  0
Cl  Cl253  1  0.62282681  0.64935279  0.11930058  1  -0.504124  0  -0.268197  -0.393339  0  1.220007  0
Cl  Cl254  1  0.37717625  0.14935283  0.38069904  1  -0.504121  0  -0.268172  -0.393305  0  1.219993  0
Cl  Cl255  1  0.37717147  0.85064740  0.61930114  1  -0.504133  0  -0.268175  -0.393299  0  1.219989  0
Cl  Cl256  1  0.61233769  0.13354338  0.87596862  1  -0.50503  0  -0.247199  -0.381683  0  1.277458  0
Cl  Cl257  1  0.61233857  0.86645673  0.12403155  1  -0.50504  0  -0.247179  -0.381644  0  1.277471  0
Cl  Cl258  1  0.38766272  0.36645676  0.37596845  1  -0.505033  0  -0.247192  -0.381674  0  1.277457  0
Cl  Cl259  1  0.38766165  0.63354346  0.62403104  1  -0.505032  0  -0.247198  -0.381675  0  1.277462  0
O  O260  1  0.43902461  0.37804310  0.09358068  1  -1.097016  0  -0.263699  -0.418976  0  2.091184  0
O  O261  1  0.43901783  0.62195709  0.90642018  1  -1.096995  0  -0.263645  -0.418879  0  2.091336  0
O  O262  1  0.56097576  0.12195737  0.59358016  1  -1.097027  0  -0.263687  -0.418944  0  2.091239  0
O  O263  1  0.56098632  0.87804323  0.40642070  1  -1.09698  0  -0.26363  -0.418857  0  2.091296  0
O  O264  1  0.74752346  0.38184568  0.19440560  1  -1.107568  0  -0.250113  -0.413848  0  2.153551  0
O  O265  1  0.74752254  0.61815437  0.80559355  1  -1.107616  0  -0.250142  -0.413856  0  2.153506  0
O  O266  1  0.25247304  0.11815392  0.69440611  1  -1.107687  0  -0.250124  -0.413884  0  2.153556  0
O  O267  1  0.25247771  0.88184498  0.30559406  1  -1.107566  0  -0.25013  -0.413844  0  2.153565  0
O  O268  1  0.28323805  0.10337066  0.06658636  1  -1.104747  0  -0.254091  -0.415014  0  2.126443  0
O  O269  1  0.28323489  0.89662960  0.93341245  1  -1.104771  0  -0.254092  -0.415038  0  2.126622  0
O  O270  1  0.71676233  0.39662980  0.56658796  1  -1.104698  0  -0.254099  -0.415004  0  2.126639  0
O  O271  1  0.71676538  0.60337073  0.43341290  1  -1.104719  0  -0.254095  -0.415008  0  2.126591  0
O  O272  1  0.59521061  0.10657285  0.16823577  1  -1.104082  0  -0.252635  -0.414144  0  2.131415  0
O  O273  1  0.59520941  0.89342774  0.83176440  1  -1.104109  0  -0.252618  -0.414135  0  2.131527  0
O  O274  1  0.40479172  0.39342720  0.66823600  1  -1.104106  0  -0.252647  -0.41419  0  2.131459  0
O  O275  1  0.40478889  0.60657163  0.33176383  1  -1.104077  0  -0.252641  -0.414133  0  2.131511  0
