# generated using pymatgen
data_KBH14(C5N2)3
_symmetry_space_group_name_H-M   'P 1'
_cell_length_a   9.04302241
_cell_length_b   10.09081198
_cell_length_c   17.21100000
_cell_angle_alpha   90.01204875
_cell_angle_beta   90.00000000
_cell_angle_gamma   90.00000000
_symmetry_Int_Tables_number   1
_chemical_formula_structural   KBH14(C5N2)3
_chemical_formula_sum   'K4 B4 H56 C60 N24'
_cell_volume   1570.52848087
_cell_formula_units_Z   4
loop_
 _symmetry_equiv_pos_site_id
 _symmetry_equiv_pos_as_xyz
  1  'x, y, z'
loop_
 _atom_site_type_symbol
 _atom_site_label
 _atom_site_symmetry_multiplicity
 _atom_site_fract_x
 _atom_site_fract_y
 _atom_site_fract_z
 _atom_site_occupancy
 _atom_site_pbe_bader_charge
 _atom_site_pbe_bader_spin_density
 _atom_site_pbe_cm5_charge
 _atom_site_pbe_ddec_charge
 _atom_site_pbe_ddec_spin_density
 _atom_site_pbe_ddec_sum_bond_order
 _atom_site_pbe_magmom
K  K0  1  0.38310311  0.78313224  0.75540072  1  0.859395  0  0.865371  0.798633  0  0.728171  0
K  K1  1  0.88309966  0.71686502  0.74459887  1  0.859366  0  0.865376  0.798632  0  0.728177  0
K  K2  1  0.61690326  0.21686759  0.24459823  1  0.859368  0  0.865369  0.798633  0  0.728175  0
K  K3  1  0.11689786  0.28314075  0.25540880  1  0.859353  0  0.865366  0.798639  0  0.728165  0
B  B4  1  0.07746746  0.99880468  0.82995232  1  2.074868  0  -0.005431  0.35141  0  3.389489  0
B  B5  1  0.57746843  0.50119456  0.67004727  1  2.074709  0  -0.005397  0.351447  0  3.389434  0
B  B6  1  0.92253227  0.00119416  0.17004779  1  2.074868  0  -0.005449  0.351371  0  3.389497  0
B  B7  1  0.42253130  0.49880526  0.32995227  1  2.074863  0  -0.005431  0.351426  0  3.389441  0
H  H8  1  0.14333150  0.85687655  0.57863275  1  0.079104  0  0.113249  0.093906  0  1.033692  0
H  H9  1  0.64333137  0.64312368  0.92136684  1  0.07911  0  0.113249  0.093909  0  1.033667  0
H  H10  1  0.85666823  0.14312327  0.42136678  1  0.079129  0  0.113242  0.093902  0  1.033709  0
H  H11  1  0.35666836  0.35687714  0.07863327  1  0.079129  0  0.113247  0.093902  0  1.033705  0
H  H12  1  0.32788263  0.07556776  0.58825346  1  0.075814  0  0.102011  0.124947  0  1.046351  0
H  H13  1  0.82788250  0.42443364  0.91174601  1  0.075838  0  0.102015  0.124933  0  1.04639  0
H  H14  1  0.67211710  0.92443306  0.41174665  1  0.07584  0  0.102008  0.124939  0  1.046357  0
H  H15  1  0.17211834  0.57556816  0.08825352  1  0.075839  0  0.10201  0.124932  0  1.046384  0
H  H16  1  0.28845997  0.16127741  0.73875964  1  0.146796  0  0.121938  0.109987  0  1.055164  0
H  H17  1  0.78845984  0.33872201  0.76124041  1  0.146793  0  0.12195  0.109993  0  1.05512  0
H  H18  1  0.71154087  0.83872241  0.26124047  1  0.146802  0  0.121941  0.109961  0  1.05515  0
H  H19  1  0.21154211  0.66127881  0.23875912  1  0.14679  0  0.121955  0.109976  0  1.05515  0
H  H20  1  0.17045960  0.56303003  0.89483323  1  0.05767  0  0.11346  0.095667  0  1.036361  0
H  H21  1  0.67045947  0.93696823  0.60516752  1  0.057685  0  0.113463  0.095687  0  1.036365  0
H  H22  1  0.82954013  0.43696782  0.10516747  1  0.05769  0  0.113454  0.095655  0  1.036396  0
H  H23  1  0.32954026  0.06303160  0.39483201  1  0.057681  0  0.113464  0.095658  0  1.036403  0
H  H24  1  0.35104856  0.70493437  0.99496519  1  0.081641  0  0.104199  0.127628  0  1.024421  0
H  H25  1  0.85105396  0.79506785  0.50503615  1  0.081588  0  0.104201  0.127647  0  1.02444  0
H  H26  1  0.64894786  0.29506744  0.00503667  1  0.081604  0  0.104158  0.127615  0  1.024461  0
H  H27  1  0.14894688  0.20493198  0.49496339  1  0.081606  0  0.104146  0.127582  0  1.024426  0
H  H28  1  0.29260682  0.96479453  0.95607909  1  0.107882  0  0.122632  0.110118  0  1.045258  0
H  H29  1  0.79261111  0.53520570  0.54392108  1  0.107848  0  0.122594  0.110078  0  1.045269  0
H  H30  1  0.70739070  0.03520430  0.04392160  1  0.107864  0  0.122619  0.11009  0  1.045294  0
H  H31  1  0.20738973  0.46479412  0.45607904  1  0.107865  0  0.122605  0.110094  0  1.045265  0
H  H32  1  0.38110378  0.32193446  0.93113318  1  0.048247  0  0.112526  0.097653  0  1.001711  0
H  H33  1  0.88110364  0.17806397  0.56886688  1  0.04824  0  0.112525  0.09763  0  1.001745  0
H  H34  1  0.61889706  0.67806537  0.06886519  1  0.04819  0  0.112528  0.097659  0  1.001728  0
H  H35  1  0.11889609  0.82193586  0.43113324  1  0.048238  0  0.112525  0.097636  0  1.001736  0
H  H36  1  0.10109673  0.38506317  0.98657528  1  0.092901  0  0.103236  0.123863  0  1.02964  0
H  H37  1  0.60109660  0.11493525  0.51342478  1  0.092885  0  0.103253  0.123906  0  1.029608  0
H  H38  1  0.89890521  0.61493566  0.01342426  1  0.092872  0  0.103265  0.12392  0  1.029596  0
H  H39  1  0.39890314  0.88506457  0.48657534  1  0.092885  0  0.103262  0.123907  0  1.029594  0
H  H40  1  0.92378738  0.19459188  0.92108552  1  0.15184  0  0.118121  0.112176  0  1.030108  0
H  H41  1  0.42378752  0.30540853  0.57891395  1  0.151831  0  0.118102  0.112161  0  1.030137  0
H  H42  1  0.07621346  0.80540696  0.07891459  1  0.151823  0  0.118094  0.112131  0  1.030146  0
H  H43  1  0.57621222  0.69459328  0.42108558  1  0.151843  0  0.118115  0.112169  0  1.030114  0
H  H44  1  0.88087142  0.10603012  0.72162948  1  0.064394  0  0.100511  0.092989  0  1.024001  0
H  H45  1  0.38087266  0.39396930  0.77837000  1  0.064387  0  0.100499  0.092983  0  1.024022  0
H  H46  1  0.11912721  0.89396970  0.27837064  1  0.064373  0  0.100496  0.092971  0  1.024019  0
H  H47  1  0.61912707  0.60602954  0.22162954  1  0.064389  0  0.1005  0.09299  0  1.024014  0
H  H48  1  0.60851558  0.12490571  0.72570885  1  0.039269  0  0.098779  0.093887  0  1.022913  0
H  H49  1  0.10851682  0.37509470  0.77429063  1  0.039297  0  0.098805  0.093902  0  1.022919  0
H  H50  1  0.39148416  0.87509412  0.27429126  1  0.039268  0  0.098776  0.093879  0  1.022912  0
H  H51  1  0.89148292  0.62490612  0.22570891  1  0.039288  0  0.098791  0.093912  0  1.022897  0
H  H52  1  0.46781925  0.03186959  0.83762870  1  0.078629  0  0.089821  0.064981  0  1.124067  0
H  H53  1  0.96782133  0.46813181  0.66237019  1  0.078671  0  0.089809  0.064963  0  1.124054  0
H  H54  1  0.53217827  0.96813222  0.16237083  1  0.078671  0  0.089821  0.064968  0  1.12407  0
H  H55  1  0.03217840  0.53186900  0.33762934  1  0.07867  0  0.089812  0.064958  0  1.12407  0
H  H56  1  0.60107890  0.90128428  0.93908503  1  0.025624  0  0.096668  0.087067  0  1.021367  0
H  H57  1  0.10108235  0.59871893  0.56091514  1  0.025626  0  0.096657  0.087065  0  1.021355  0
H  H58  1  0.39891862  0.09871753  0.06091508  1  0.025615  0  0.096661  0.087073  0  1.021355  0
H  H59  1  0.89891738  0.40128189  0.43908556  1  0.02562  0  0.096656  0.087084  0  1.021332  0
H  H60  1  0.87383727  0.88338086  0.93554555  1  0.070544  0  0.096963  0.090232  0  1.045592  0
H  H61  1  0.37383961  0.61661937  0.56445462  1  0.070519  0  0.096978  0.09026  0  1.045546  0
H  H62  1  0.12616136  0.11661995  0.06445514  1  0.070522  0  0.096986  0.090293  0  1.045557  0
H  H63  1  0.62616012  0.38338145  0.43554608  1  0.070512  0  0.09697  0.090256  0  1.045542  0
C  C64  1  0.16247223  0.92301097  0.62740042  1  0.407259  0  -0.011642  -0.023275  0  4.108495  0
C  C65  1  0.66247209  0.57699025  0.87259859  1  0.406935  0  -0.011616  -0.023227  0  4.108419  0
C  C66  1  0.83752861  0.07698984  0.37259912  1  0.406875  0  -0.011663  -0.023303  0  4.108556  0
C  C67  1  0.33752874  0.42301057  0.12740094  1  0.407298  0  -0.011642  -0.023298  0  4.108544  0
C  C68  1  0.25637336  0.03388825  0.63244680  1  -0.084326  0  -0.135432  -0.244567  0  4.070383  0
C  C69  1  0.75637433  0.46611314  0.86755442  1  -0.084401  0  -0.135436  -0.244543  0  4.070307  0
C  C70  1  0.74362748  0.96611256  0.36755331  1  -0.084347  0  -0.135435  -0.244549  0  4.070446  0
C  C71  1  0.24362651  0.53388767  0.13244570  1  -0.084365  0  -0.135425  -0.244529  0  4.070385  0
C  C72  1  0.23834177  0.07892923  0.70824691  1  0.355379  0  0.006117  -0.035411  0  3.965451  0
C  C73  1  0.73834164  0.42107019  0.79175315  1  0.355384  0  0.006102  -0.03545  0  3.965373  0
C  C74  1  0.76165907  0.92106960  0.29175379  1  0.355352  0  0.006124  -0.0354  0  3.965442  0
C  C75  1  0.26165920  0.57893162  0.20824638  1  0.355354  0  0.006176  -0.035319  0  3.965208  0
C  C76  1  0.18319760  0.66966961  0.90077921  1  0.434594  0  -0.008116  -0.01863  0  4.088188  0
C  C77  1  0.68319857  0.83033062  0.59921980  1  0.434607  0  -0.008126  -0.018713  0  4.08819  0
C  C78  1  0.81680324  0.33033021  0.09921974  1  0.434596  0  -0.008119  -0.018668  0  4.088205  0
C  C79  1  0.31680227  0.16966920  0.40077974  1  0.43458  0  -0.008125  -0.018673  0  4.088232  0
C  C80  1  0.27557932  0.74215932  0.95114374  1  -0.046105  0  -0.13085  -0.237095  0  4.060599  0
C  C81  1  0.77558030  0.75784091  0.54885411  1  -0.04625  0  -0.130856  -0.237118  0  4.060573  0
C  C82  1  0.72442041  0.25783951  0.04885405  1  -0.046216  0  -0.130832  -0.237087  0  4.060536  0
C  C83  1  0.22442054  0.24215891  0.45114542  1  -0.046247  0  -0.130825  -0.237032  0  4.060553  0
C  C84  1  0.24714193  0.87395447  0.93268692  1  0.348027  0  0.009228  -0.037875  0  3.969932  0
C  C85  1  0.74714401  0.62604478  0.56731151  1  0.348136  0  0.009221  -0.037856  0  3.969875  0
C  C86  1  0.75285780  0.12604437  0.06731262  1  0.348137  0  0.009244  -0.037843  0  3.969906  0
C  C87  1  0.25285683  0.37395406  0.43268802  1  0.348148  0  0.009241  -0.037865  0  3.969906  0
C  C88  1  0.27608469  0.27233191  0.92075753  1  0.449977  0  0.004287  -0.016042  0  4.064173  0
C  C89  1  0.77608455  0.22766652  0.57924194  1  0.449958  0  0.00427  -0.016039  0  4.064237  0
C  C90  1  0.72391726  0.72766693  0.07924142  1  0.450034  0  0.004241  -0.016134  0  4.064306  0
C  C91  1  0.22391629  0.77233231  0.42075817  1  0.44998  0  0.004253  -0.01609  0  4.064268  0
C  C92  1  0.13352726  0.30553142  0.94777865  1  -0.094791  0  -0.126837  -0.238002  0  4.074367  0
C  C93  1  0.63352713  0.19446701  0.55222083  1  -0.094822  0  -0.126847  -0.238061  0  4.074351  0
C  C94  1  0.86647358  0.69446742  0.05222147  1  -0.094809  0  -0.12685  -0.238062  0  4.074453  0
C  C95  1  0.36647261  0.80553281  0.44777871  1  -0.094815  0  -0.126806  -0.237992  0  4.074328  0
C  C96  1  0.04187649  0.20995734  0.91542592  1  0.329072  0  0.017284  -0.023374  0  3.945623  0
C  C97  1  0.54187525  0.29004208  0.58457356  1  0.329066  0  0.017307  -0.023375  0  3.945544  0
C  C98  1  0.95812546  0.79004149  0.08457361  1  0.329039  0  0.017351  -0.023268  0  3.945538  0
C  C99  1  0.45812338  0.70995775  0.41542656  1  0.32907  0  0.017272  -0.023394  0  3.945545  0
C  C100  1  0.89914628  0.99463257  0.82869912  1  -0.517464  0  -0.031791  -0.184454  0  3.999216  0
C  C101  1  0.39914863  0.50536767  0.67130105  1  -0.51749  0  -0.031762  -0.184381  0  3.999126  0
C  C102  1  0.10085234  0.00536726  0.17130157  1  -0.504528  0  -0.031756  -0.18437  0  3.999242  0
C  C103  1  0.60085110  0.49463216  0.32869907  1  -0.504538  0  -0.031787  -0.184421  0  3.999129  0
C  C104  1  0.82049780  0.06097725  0.76978789  1  -0.045733  0  -0.089514  -0.089553  0  3.999803  0
C  C105  1  0.32049904  0.43902216  0.73021217  1  -0.045732  0  -0.089489  -0.089538  0  3.999758  0
C  C106  1  0.17950083  0.93902257  0.23021281  1  -0.058693  0  -0.089488  -0.089559  0  3.999819  0
C  C107  1  0.67950069  0.56097667  0.26978795  1  -0.058691  0  -0.089491  -0.089525  0  3.999764  0
C  C108  1  0.66657249  0.07178412  0.77178504  1  -0.107457  0  -0.092952  -0.082861  0  4.005611  0
C  C109  1  0.16657373  0.42821530  0.72821386  1  -0.107453  0  -0.093013  -0.082899  0  4.00567  0
C  C110  1  0.33342724  0.92821571  0.22821508  1  -0.107464  0  -0.092934  -0.082818  0  4.00567  0
C  C111  1  0.83342600  0.57178353  0.27178510  1  -0.107452  0  -0.092965  -0.08289  0  4.00564  0
C  C112  1  0.58707252  0.01598087  0.83334053  1  -0.049052  0  -0.114292  -0.120938  0  4.055255  0
C  C113  1  0.08707487  0.48401953  0.66665894  1  -0.04896  0  -0.114251  -0.120928  0  4.055224  0
C  C114  1  0.41292500  0.98401994  0.16666016  1  -0.048959  0  -0.114346  -0.12099  0  4.055314  0
C  C115  1  0.91292486  0.51597930  0.33334059  1  -0.04895  0  -0.114271  -0.120926  0  4.055222  0
C  C116  1  0.66262138  0.94681778  0.89142636  1  -0.054851  0  -0.096469  -0.092093  0  4.026548  0
C  C117  1  0.16262483  0.55318245  0.60857323  1  -0.054906  0  -0.096474  -0.092039  0  4.026532  0
C  C118  1  0.33737725  0.05318304  0.10857317  1  -0.054879  0  -0.09644  -0.092012  0  4.026461  0
C  C119  1  0.83737601  0.44681638  0.39142631  1  -0.054906  0  -0.096447  -0.092041  0  4.026517  0
C  C120  1  0.81683752  0.93674723  0.88921316  1  -0.115752  0  -0.096665  -0.098246  0  4.009322  0
C  C121  1  0.31683986  0.56325201  0.61078643  1  -0.115766  0  -0.096692  -0.098359  0  4.009421  0
C  C122  1  0.18315890  0.06325259  0.11078695  1  -0.115738  0  -0.096706  -0.098422  0  4.00935  0
C  C123  1  0.68315987  0.43674782  0.38921369  1  -0.115755  0  -0.096715  -0.0984  0  4.009448  0
N  N124  1  0.14004057  0.99773836  0.74468347  1  -1.004989  0  -0.177174  -0.064859  0  3.737618  0
N  N125  1  0.64004043  0.50226187  0.75531670  1  -1.004981  0  -0.177215  -0.064919  0  3.737691  0
N  N126  1  0.85996027  0.00226146  0.25531723  1  -1.004969  0  -0.177192  -0.06482  0  3.737577  0
N  N127  1  0.35996040  0.49773895  0.24468341  1  -1.00496  0  -0.177256  -0.064996  0  3.737522  0
N  N128  1  0.09221585  0.90113166  0.69496614  1  -0.761255  0  -0.372859  -0.318795  0  3.341517  0
N  N129  1  0.59221572  0.59886956  0.80503287  1  -0.760897  0  -0.372895  -0.318808  0  3.341556  0
N  N130  1  0.90778499  0.09886915  0.30503340  1  -0.760898  0  -0.372839  -0.318799  0  3.341552  0
N  N131  1  0.40778402  0.40113126  0.19496666  1  -0.761292  0  -0.372857  -0.318747  0  3.341557  0
N  N132  1  0.14467287  0.87677089  0.87478011  1  -1.021507  0  -0.17353  -0.062176  0  3.736207  0
N  N133  1  0.64467495  0.62322835  0.62521890  1  -1.020542  0  -0.173473  -0.062134  0  3.736221  0
N  N134  1  0.85532686  0.12322795  0.12521942  1  -1.021369  0  -0.173529  -0.062177  0  3.736222  0
N  N135  1  0.35532589  0.37677147  0.37478064  1  -1.021357  0  -0.173491  -0.062155  0  3.73626  0
N  N136  1  0.10418309  0.75088409  0.85480003  1  -0.739877  0  -0.374561  -0.316617  0  3.328947  0
N  N137  1  0.60418517  0.74911515  0.64519840  1  -0.74058  0  -0.374578  -0.316587  0  3.328979  0
N  N138  1  0.89581664  0.24911574  0.14519892  1  -0.739939  0  -0.374521  -0.316571  0  3.32897  0
N  N139  1  0.39581567  0.25088467  0.35480056  1  -0.73994  0  -0.374564  -0.316589  0  3.329018  0
N  N140  1  0.12746844  0.12669942  0.87224733  1  -1.021806  0  -0.129258  -0.048752  0  3.705641  0
N  N141  1  0.62746831  0.37330000  0.62775214  1  -1.021793  0  -0.129282  -0.048738  0  3.705597  0
N  N142  1  0.87253239  0.87329941  0.12775220  1  -1.021791  0  -0.129296  -0.048817  0  3.705635  0
N  N143  1  0.37253142  0.62669983  0.37224797  1  -1.021798  0  -0.129287  -0.048747  0  3.705615  0
N  N144  1  0.27242993  0.16417312  0.87550569  1  -0.713965  0  -0.229013  -0.221523  0  3.222964  0
N  N145  1  0.77242980  0.33582630  0.62449321  1  -0.713927  0  -0.22899  -0.221485  0  3.22288  0
N  N146  1  0.72757090  0.83582671  0.12449269  1  -0.713904  0  -0.228966  -0.221407  0  3.22283  0
N  N147  1  0.22756993  0.66417352  0.37550691  1  -0.713944  0  -0.228993  -0.221485  0  3.222871  0
