# generated using pymatgen
data_AgH11C14N4O3
_symmetry_space_group_name_H-M   'P 1'
_cell_length_a   8.90075413
_cell_length_b   9.35099602
_cell_length_c   9.81486855
_cell_angle_alpha   102.90776579
_cell_angle_beta   116.22932182
_cell_angle_gamma   101.83866044
_symmetry_Int_Tables_number   1
_chemical_formula_structural   AgH11C14N4O3
_chemical_formula_sum   'Ag2 H22 C28 N8 O6'
_cell_volume   669.74340345
_cell_formula_units_Z   2
loop_
 _symmetry_equiv_pos_site_id
 _symmetry_equiv_pos_as_xyz
  1  'x, y, z'
loop_
 _atom_site_type_symbol
 _atom_site_label
 _atom_site_symmetry_multiplicity
 _atom_site_fract_x
 _atom_site_fract_y
 _atom_site_fract_z
 _atom_site_occupancy
 _atom_site_hle17_bader_spin_density
 _atom_site_hle17_ddec_charge
 _atom_site_hle17_ddec_spin_density
 _atom_site_hle17_ddec_sum_bond_order
 _atom_site_hle17_magmom
 _atom_site_hse06_10hf_bader_spin_density
 _atom_site_hse06_10hf_ddec_charge
 _atom_site_hse06_10hf_ddec_spin_density
 _atom_site_hse06_10hf_ddec_sum_bond_order
 _atom_site_hse06_10hf_magmom
 _atom_site_hse06_bader_spin_density
 _atom_site_hse06_ddec_charge
 _atom_site_hse06_ddec_spin_density
 _atom_site_hse06_ddec_sum_bond_order
 _atom_site_hse06_magmom
 _atom_site_pbe_bader_spin_density
 _atom_site_pbe_cm5_charge
 _atom_site_pbe_ddec_charge
 _atom_site_pbe_ddec_spin_density
 _atom_site_pbe_ddec_sum_bond_order
 _atom_site_pbe_magmom
Ag  Ag0  1  0.73635856  0.71834260  0.23790378  1  0  0.508517  0  1.481657  0  0  0.365294  0  1.920226  0  0  0.389152  0  1.882408  0  0  0.492682  0.350504  0  1.945307  0
Ag  Ag1  1  0.26363943  0.28165816  0.76209711  1  0  0.508528  0  1.481675  0  0  0.365312  0  1.920244  0  0  0.389172  0  1.882424  0  0  0.492686  0.350525  0  1.945316  0
H  H2  1  0.03540098  0.78910754  0.58292509  1  0  0.288778  0  0.939968  0  0  0.26315  0  1.01533  0  0  0.272439  0  1.007236  0  0  0.311971  0.256449  0  1.021331  0
H  H3  1  0.96459608  0.21089088  0.41707390  1  0  0.288742  0  0.939954  0  0  0.26311  0  1.01533  0  0  0.2724  0  1.007238  0  0  0.31196  0.256412  0  1.021331  0
H  H4  1  0.58937899  0.41273370  0.10256429  1  0  0.056625  0  1.024263  0  0  0.06149  0  1.105664  0  0  0.063755  0  1.103269  0  0  0.100238  0.059774  0  1.107635  0
H  H5  1  0.41062008  0.58726352  0.89743528  1  0  0.05664  0  1.024254  0  0  0.061498  0  1.10567  0  0  0.063765  0  1.103272  0  0  0.100228  0.059782  0  1.107643  0
H  H6  1  0.06808840  0.12668114  0.91116843  1  0  0.087547  0  0.944294  0  0  0.094761  0  1.010422  0  0  0.097909  0  1.007169  0  0  0.116309  0.092467  0  1.012709  0
H  H7  1  0.93191290  0.87331842  0.08883151  1  0  0.087549  0  0.944288  0  0  0.094749  0  1.01043  0  0  0.097896  0  1.007177  0  0  0.11631  0.092456  0  1.01272  0
H  H8  1  0.13307767  0.12379282  0.18863686  1  0  0.107214  0  0.957177  0  0  0.115339  0  1.021105  0  0  0.118146  0  1.020495  0  0  0.108227  0.113221  0  1.021888  0
H  H9  1  0.86692034  0.87620794  0.81136302  1  0  0.107227  0  0.957163  0  0  0.115348  0  1.021102  0  0  0.118153  0  1.020493  0  0  0.108233  0.113228  0  1.021885  0
H  H10  1  0.43044255  0.28800527  0.42937201  1  0  0.116386  0  0.929895  0  0  0.130133  0  0.983478  0  0  0.132727  0  0.981812  0  0  0.115234  0.128276  0  0.984647  0
H  H11  1  0.56955874  0.71199428  0.57062793  1  0  0.116356  0  0.929956  0  0  0.130104  0  0.983537  0  0  0.132696  0  0.981873  0  0  0.115234  0.128247  0  0.984709  0
H  H12  1  0.77794950  0.37275438  0.61803019  1  0  0.143103  0  0.963581  0  0  0.154774  0  1.0209  0  0  0.157527  0  1.020581  0  0  0.111158  0.152884  0  1.021246  0
H  H13  1  0.22205129  0.62724400  0.38197134  1  0  0.143095  0  0.96357  0  0  0.154761  0  1.0209  0  0  0.157514  0  1.02058  0  0  0.111139  0.152882  0  1.021221  0
H  H14  1  0.03601740  0.43906048  0.86499303  1  0  0.103754  0  0.963929  0  0  0.115227  0  1.024947  0  0  0.118102  0  1.023279  0  0  0.101967  0.112934  0  1.026483  0
H  H15  1  0.96398232  0.56094144  0.13500881  1  0  0.103708  0  0.96399  0  0  0.115195  0  1.025002  0  0  0.118071  0  1.023334  0  0  0.101964  0.112916  0  1.026516  0
H  H16  1  0.27078691  0.53596195  0.15482570  1  0  0.084085  0  0.969554  0  0  0.094797  0  1.030528  0  0  0.096383  0  1.032475  0  0  0.096169  0.093214  0  1.030315  0
H  H17  1  0.72921406  0.46403995  0.84517665  1  0  0.084009  0  0.96958  0  0  0.094744  0  1.030535  0  0  0.09633  0  1.032483  0  0  0.096137  0.093162  0  1.030325  0
H  H18  1  0.48039694  0.81359848  0.29272964  1  0  0.096283  0  0.987397  0  0  0.102373  0  1.054377  0  0  0.106613  0  1.050145  0  0  0.094445  0.09911  0  1.05793  0
H  H19  1  0.51960280  0.18640344  0.70727118  1  0  0.09628  0  0.987416  0  0  0.102372  0  1.054394  0  0  0.106612  0  1.050162  0  0  0.094447  0.09911  0  1.057946  0
H  H20  1  0.45686276  0.98849983  0.13323836  1  0  0.09182  0  0.94777  0  0  0.102459  0  1.00701  0  0  0.104665  0  1.007617  0  0  0.098483  0.10057  0  1.007531  0
H  H21  1  0.54313745  0.01150326  0.86676291  1  0  0.091817  0  0.947803  0  0  0.102464  0  1.007024  0  0  0.104671  0  1.00763  0  0  0.098488  0.100575  0  1.007542  0
H  H22  1  0.22072820  0.89451004  0.84440164  1  0  0.099474  0  0.966282  0  0  0.11039  0  1.029676  0  0  0.113424  0  1.027887  0  0  0.101828  0.108259  0  1.030941  0
H  H23  1  0.77926904  0.10549190  0.15559816  1  0  0.099453  0  0.966317  0  0  0.110392  0  1.029673  0  0  0.113426  0  1.027883  0  0  0.101826  0.10825  0  1.030957  0
C  C24  1  0.48984782  0.35430476  0.12696016  1  0  0.06527  0  3.71608  0  0  0.028604  0  3.960722  0  0  0.035742  0  3.978133  0  0  0.039623  0.023936  0  3.949483  0
C  C25  1  0.51015177  0.64569363  0.87303682  1  0  0.065234  0  3.716125  0  0  0.028582  0  3.96078  0  0  0.035718  0  3.978195  0  0  0.039632  0.023908  0  3.949544  0
C  C26  1  0.19985230  0.18959976  0.01982986  1  0  0.111056  0  3.680557  0  0  0.080702  0  3.92656  0  0  0.087304  0  3.94525  0  0  0.042876  0.076403  0  3.914047  0
C  C27  1  0.80014776  0.81039981  0.98016856  1  0  0.111034  0  3.680552  0  0  0.080702  0  3.926564  0  0  0.087306  0  3.945252  0  0  0.042878  0.076403  0  3.914054  0
C  C28  1  0.23549141  0.19157907  0.17334925  1  0  -0.100258  0  3.739925  0  0  -0.115272  0  3.9975  0  0  -0.121901  0  4.019574  0  0  -0.078969  -0.110758  0  3.982806  0
C  C29  1  0.76450737  0.80842051  0.82665069  1  0  -0.100294  0  3.739978  0  0  -0.115316  0  3.99757  0  0  -0.121945  0  4.019646  0  0  -0.078993  -0.110805  0  3.982881  0
C  C30  1  0.40315351  0.28329236  0.30851998  1  0  -0.031901  0  3.650096  0  0  -0.059  0  3.894173  0  0  -0.054991  0  3.910628  0  0  -0.058986  -0.061301  0  3.882867  0
C  C31  1  0.59684860  0.71670601  0.69147700  1  0  -0.031864  0  3.650108  0  0  -0.058959  0  3.894196  0  0  -0.054948  0  3.910651  0  0  -0.059026  -0.061263  0  3.882891  0
C  C32  1  0.53343099  0.37096040  0.28692290  1  0  -0.009691  0  3.787728  0  0  0.011735  0  4.018218  0  0  0.006821  0  4.040454  0  0  -0.001353  0.01494  0  4.003308  0
C  C33  1  0.46657186  0.62903680  0.71307617  1  0  -0.009667  0  3.787701  0  0  0.011741  0  4.018197  0  0  0.006826  0  4.040435  0  0  -0.001281  0.014951  0  4.003279  0
C  C34  1  0.70757532  0.47824571  0.42492672  1  0  0.155345  0  3.816003  0  0  0.144079  0  4.074264  0  0  0.151536  0  4.096298  0  0  0.092422  0.139966  0  4.058343  0
C  C35  1  0.29242625  0.52175149  0.57507387  1  0  0.155293  0  3.816031  0  0  0.144052  0  4.074278  0  0  0.15151  0  4.096311  0  0  0.092394  0.139933  0  4.058356  0
C  C36  1  0.80811532  0.46828828  0.57820966  1  0  -0.271958  0  3.672157  0  0  -0.302732  0  3.936654  0  0  -0.312506  0  3.956498  0  0  -0.10921  -0.296338  0  3.922834  0
C  C37  1  0.19188598  0.53171127  0.42179028  1  0  -0.271979  0  3.672095  0  0  -0.302748  0  3.936589  0  0  -0.312522  0  3.956431  0  0  -0.109219  -0.296356  0  3.922744  0
C  C38  1  0.96103779  0.60319230  0.66601251  1  0  0.180077  0  3.756463  0  0  0.162318  0  4.014007  0  0  0.17109  0  4.033797  0  0  0.103479  0.156298  0  4.000456  0
C  C39  1  0.03896098  0.39680727  0.33398844  1  0  0.180098  0  3.756457  0  0  0.162351  0  4.014061  0  0  0.171123  0  4.03385  0  0  0.103503  0.156319  0  4.00052  0
C  C40  1  0.10826141  0.65993416  0.83391175  1  0  0.020705  0  3.812332  0  0  0.038597  0  4.044633  0  0  0.037283  0  4.067958  0  0  -0.012388  0.039521  0  4.02855  0
C  C41  1  0.89173412  0.34006662  0.16608610  1  0  0.020759  0  3.812257  0  0  0.038539  0  4.044734  0  0  0.037224  0  4.068058  0  0  -0.012391  0.039473  0  4.028647  0
C  C42  1  0.12686869  0.55989458  0.92349247  1  0  -0.11702  0  3.736602  0  0  -0.135799  0  3.982317  0  0  -0.137379  0  4.001532  0  0  -0.092628  -0.134349  0  3.969552  0
C  C43  1  0.87312809  0.44010619  0.07650588  1  0  -0.11703  0  3.736863  0  0  -0.135798  0  3.982633  0  0  -0.137376  0  4.001847  0  0  -0.092626  -0.134355  0  3.969851  0
C  C44  1  0.26008809  0.61471840  0.08690179  1  0  -0.074806  0  3.793235  0  0  -0.084343  0  4.039027  0  0  -0.08673  0  4.060726  0  0  -0.096398  -0.083109  0  4.025493  0
C  C45  1  0.73991288  0.38528350  0.91310055  1  0  -0.074641  0  3.793335  0  0  -0.084187  0  4.039104  0  0  -0.086573  0  4.060804  0  0  -0.096324  -0.082959  0  4.025582  0
C  C46  1  0.37837504  0.76936303  0.16394368  1  0  -0.088177  0  3.770094  0  0  -0.098042  0  4.017685  0  0  -0.098773  0  4.034607  0  0  -0.100525  -0.098492  0  4.007609  0
C  C47  1  0.62162596  0.23063888  0.83605664  1  0  -0.088247  0  3.770017  0  0  -0.098119  0  4.01762  0  0  -0.09885  0  4.034542  0  0  -0.100568  -0.098571  0  4.007547  0
C  C48  1  0.36346668  0.86841726  0.07441743  1  0  -0.051354  0  3.758467  0  0  -0.06455  0  4.007033  0  0  -0.066456  0  4.02904  0  0  -0.092654  -0.063587  0  3.993475  0
C  C49  1  0.63653257  0.13158349  0.92558396  1  0  -0.051318  0  3.758515  0  0  -0.064511  0  4.007062  0  0  -0.066416  0  4.029069  0  0  -0.092636  -0.063539  0  3.993494  0
C  C50  1  0.23002121  0.81484005  0.91133127  1  0  -0.120203  0  3.724209  0  0  -0.142183  0  3.972542  0  0  -0.144672  0  3.993941  0  0  -0.094991  -0.140487  0  3.958266  0
C  C51  1  0.76997631  0.18515954  0.08866917  1  0  -0.120218  0  3.724349  0  0  -0.142179  0  3.972701  0  0  -0.144668  0  3.9941  0  0  -0.094993  -0.140483  0  3.958441  0
N  N52  1  0.32704038  0.26755199  0.99697292  1  0  -0.290555  0  3.372479  0  0  -0.198929  0  3.643392  0  0  -0.218216  0  3.662224  0  0  -0.350577  -0.186127  0  3.630367  0
N  N53  1  0.67295842  0.73244759  0.00302601  1  0  -0.290488  0  3.372387  0  0  -0.198882  0  3.643312  0  0  -0.218167  0  3.662145  0  0  -0.35057  -0.186078  0  3.630287  0
N  N54  1  0.79440835  0.61212773  0.41936298  1  0  -0.239715  0  3.221184  0  0  -0.1816  0  3.519527  0  0  -0.196323  0  3.536104  0  0  -0.264211  -0.171267  0  3.507413  0
N  N55  1  0.20559324  0.38786947  0.58063659  1  0  -0.239689  0  3.22119  0  0  -0.181594  0  3.519546  0  0  -0.196319  0  3.536121  0  0  -0.264212  -0.171259  0  3.507431  0
N  N56  1  0.94565414  0.68496079  0.56486448  1  0  -0.182943  0  3.455785  0  0  -0.125897  0  3.685416  0  0  -0.139337  0  3.705449  0  0  -0.270387  -0.116925  0  3.672011  0
N  N57  1  0.05434514  0.31503996  0.43513388  1  0  -0.182893  0  3.455756  0  0  -0.125832  0  3.685376  0  0  -0.139274  0  3.705414  0  0  -0.270391  -0.116867  0  3.671978  0
N  N58  1  0.82571100  0.04497965  0.52854249  1  0  0.693848  0  4.145377  0  0  0.726524  0  4.435199  0  0  0.754435  0  4.441214  0  0  0.095059  0.707599  0  4.430704  0
N  N59  1  0.17428904  0.95501992  0.47145695  1  0  0.693776  0  4.145438  0  0  0.726466  0  4.435246  0  0  0.754379  0  4.441257  0  0  0.095068  0.707534  0  4.430755  0
O  O60  1  0.82535627  0.03615745  0.39501229  1  0  -0.504763  0  1.781217  0  0  -0.486414  0  2.011945  0  0  -0.502929  0  2.002975  0  0  -0.21377  -0.474913  0  2.017977  0
O  O61  1  0.17464330  0.96384094  0.60498671  1  0  -0.504767  0  1.781217  0  0  -0.486419  0  2.011944  0  0  -0.502937  0  2.002973  0  0  -0.213784  -0.474917  0  2.017975  0
O  O62  1  0.73881246  0.92681378  0.53683632  1  0  -0.445692  0  1.775599  0  0  -0.439425  0  1.99186  0  0  -0.452535  0  1.985867  0  0  -0.182723  -0.429844  0  1.996099  0
O  O63  1  0.26118713  0.07318462  0.46316166  1  0  -0.445647  0  1.775577  0  0  -0.439409  0  1.991868  0  0  -0.45252  0  1.985875  0  0  -0.182741  -0.429826  0  1.996106  0
O  O64  1  0.91516068  0.17262645  0.64866575  1  0  -0.480868  0  1.808422  0  0  -0.468565  0  2.049817  0  0  -0.482311  0  2.039988  0  0  -0.202393  -0.458827  0  2.056153  0
O  O65  1  0.08483810  0.82737312  0.35133419  1  0  -0.480838  0  1.808462  0  0  -0.468524  0  2.04984  0  0  -0.482272  0  2.040021  0  0  -0.202375  -0.458787  0  2.056184  0
