# generated using pymatgen
data_MgNiH18C24N4O9
_symmetry_space_group_name_H-M   'P 1'
_cell_length_a   8.72834933
_cell_length_b   13.73327742
_cell_length_c   20.59120121
_cell_angle_alpha   93.86906863
_cell_angle_beta   89.99971285
_cell_angle_gamma   90.00071364
_symmetry_Int_Tables_number   1
_chemical_formula_structural   MgNiH18C24N4O9
_chemical_formula_sum   'Mg4 Ni4 H72 C96 N16 O36'
_cell_volume   2462.61796658
_cell_formula_units_Z   4
loop_
 _symmetry_equiv_pos_site_id
 _symmetry_equiv_pos_as_xyz
  1  'x, y, z'
loop_
 _atom_site_type_symbol
 _atom_site_label
 _atom_site_symmetry_multiplicity
 _atom_site_fract_x
 _atom_site_fract_y
 _atom_site_fract_z
 _atom_site_occupancy
 _atom_site_pbe_bader_charge
 _atom_site_pbe_bader_spin_density
 _atom_site_pbe_cm5_charge
 _atom_site_pbe_ddec_charge
 _atom_site_pbe_ddec_spin_density
 _atom_site_pbe_ddec_sum_bond_order
 _atom_site_pbe_magmom
Mg  Mg0  1  0.48193967  0.91534255  0.27341513  1  1.68659  0  0.81912  1.363297  0  1.408456  0
Mg  Mg1  1  0.98193877  0.58466067  0.22658234  1  1.686601  0  0.819128  1.363274  0  1.408519  0
Mg  Mg2  1  0.51807283  0.08465248  0.72658243  1  1.686674  0  0.819083  1.363252  0  1.408508  0
Mg  Mg3  1  0.01805540  0.41533951  0.77341784  1  1.686579  0  0.819078  1.363325  0  1.4084  0
Ni  Ni4  1  0.54574936  0.18394319  0.10814834  1  0.838445  0  0.675522  0.368435  0  3.074032  0
Ni  Ni5  1  0.04575586  0.31606329  0.39184897  1  0.837964  0  0.675505  0.368411  0  3.074163  0
Ni  Ni6  1  0.45423679  0.81605410  0.89185319  1  0.83834  0  0.675543  0.36841  0  3.074125  0
Ni  Ni7  1  0.95423258  0.68393320  0.60814913  1  0.837968  0  0.675473  0.368397  0  3.074137  0
H  H8  1  0.31489699  0.88604393  0.09365955  1  0.14761  0  0.109031  0.133919  0  1.031319  0
H  H9  1  0.81491256  0.61396282  0.40634716  1  0.146887  0  0.109105  0.133981  0  1.031195  0
H  H10  1  0.68506625  0.11396006  0.90635049  1  0.147041  0  0.109106  0.133965  0  1.031317  0
H  H11  1  0.18505297  0.38603135  0.59364260  1  0.146621  0  0.109114  0.134072  0  1.031355  0
H  H12  1  0.13657250  0.82240739  0.00892464  1  0.076926  0  0.108837  0.110493  0  0.97616  0
H  H13  1  0.63658312  0.67759546  0.49108184  1  0.076925  0  0.108819  0.110417  0  0.976217  0
H  H14  1  0.86341021  0.17759792  0.99107720  1  0.076805  0  0.108827  0.110409  0  0.976258  0
H  H15  1  0.36339730  0.32240690  0.50891794  1  0.076485  0  0.108824  0.110423  0  0.97634  0
H  H16  1  0.05350476  0.92844279  0.92095777  1  0.077767  0  0.099803  0.101125  0  1.024967  0
H  H17  1  0.55349807  0.57154849  0.57904317  1  0.077808  0  0.099818  0.101089  0  1.024892  0
H  H18  1  0.94649629  0.07155586  0.07903847  1  0.077735  0  0.099801  0.101024  0  1.025085  0
H  H19  1  0.44650412  0.42844816  0.42096369  1  0.077935  0  0.0998  0.101063  0  1.02501  0
H  H20  1  0.16291084  0.09225560  0.91641030  1  0.10353  0  0.106499  0.110181  0  1.016624  0
H  H21  1  0.66290562  0.40773959  0.58358686  1  0.103519  0  0.106486  0.110163  0  1.016666  0
H  H22  1  0.83707531  0.90774751  0.08359048  1  0.103547  0  0.10645  0.110111  0  1.016685  0
H  H23  1  0.33709314  0.59225840  0.41641324  1  0.10353  0  0.10649  0.110148  0  1.016677  0
H  H24  1  0.21365021  0.37215107  0.00162858  1  0.132181  0  0.113124  0.132329  0  1.019961  0
H  H25  1  0.71367453  0.12785644  0.49836986  1  0.132275  0  0.113164  0.132371  0  1.02005  0
H  H26  1  0.78634511  0.62785278  0.99837320  1  0.132157  0  0.113175  0.132394  0  1.019994  0
H  H27  1  0.28634027  0.87213503  0.50163291  1  0.132307  0  0.113134  0.132334  0  1.019952  0
H  H28  1  0.23948146  0.54962233  0.02149276  1  0.118051  0  0.107563  0.1144  0  1.007636  0
H  H29  1  0.73948742  0.95038812  0.47850455  1  0.118187  0  0.107594  0.114518  0  1.007671  0
H  H30  1  0.76052073  0.45038512  0.97850576  1  0.118067  0  0.107551  0.11445  0  1.007671  0
H  H31  1  0.26054456  0.04960405  0.52149631  1  0.118014  0  0.107574  0.114423  0  1.007638  0
H  H32  1  0.44828385  0.61961140  0.09484486  1  0.137913  0  0.100299  0.107348  0  1.033419  0
H  H33  1  0.94829664  0.88039424  0.40516054  1  0.137949  0  0.100332  0.107348  0  1.03342  0
H  H34  1  0.55171834  0.38039099  0.90515637  1  0.138038  0  0.100315  0.107359  0  1.033395  0
H  H35  1  0.05172847  0.11960591  0.59483770  1  0.137853  0  0.100331  0.107405  0  1.033343  0
H  H36  1  0.63316601  0.51085360  0.14353024  1  0.104109  0  0.112611  0.125055  0  1.02957  0
H  H37  1  0.13319910  0.98914859  0.35647963  1  0.104319  0  0.112597  0.125131  0  1.029387  0
H  H38  1  0.36682702  0.48914881  0.85647295  1  0.104139  0  0.112606  0.125045  0  1.029558  0
H  H39  1  0.86681913  0.01084864  0.64351851  1  0.104299  0  0.112626  0.125135  0  1.029519  0
H  H40  1  0.08577336  0.33785194  0.14228926  1  0.106761  0  0.1074  0.10898  0  1.017552  0
H  H41  1  0.58577334  0.16217767  0.35770203  1  0.107291  0  0.107517  0.108963  0  1.01748  0
H  H42  1  0.91422654  0.66214902  0.85771387  1  0.106632  0  0.107433  0.10899  0  1.017476  0
H  H43  1  0.41421052  0.83782292  0.64227971  1  0.107193  0  0.10754  0.109068  0  1.017299  0
H  H44  1  0.26704769  0.22740680  0.19171910  1  0.078807  0  0.096985  0.091348  0  1.031034  0
H  H45  1  0.76704523  0.27263419  0.30828387  1  0.078464  0  0.097035  0.091595  0  1.031033  0
H  H46  1  0.73294992  0.77259632  0.80828216  1  0.078755  0  0.097006  0.091449  0  1.031032  0
H  H47  1  0.23294207  0.72737619  0.69171572  1  0.078362  0  0.096984  0.091544  0  1.03096  0
H  H48  1  0.16904839  0.07723797  0.23994717  1  0.101841  0  0.103046  0.111218  0  1.026243  0
H  H49  1  0.66906017  0.42280471  0.26005365  1  0.101929  0  0.103158  0.111439  0  1.025872  0
H  H50  1  0.83094349  0.92276655  0.76005074  1  0.101727  0  0.10306  0.111255  0  1.026114  0
H  H51  1  0.33094202  0.57721528  0.73995359  1  0.101412  0  0.103115  0.111378  0  1.025937  0
H  H52  1  0.89365300  0.03642496  0.23374085  1  0.12268  0  0.10575  0.126658  0  1.02775  0
H  H53  1  0.39363785  0.46359284  0.26624835  1  0.122274  0  0.105724  0.126696  0  1.028165  0
H  H54  1  0.10634117  0.96357446  0.76625737  1  0.122636  0  0.105799  0.126758  0  1.027993  0
H  H55  1  0.60634945  0.53641382  0.73374722  1  0.122402  0  0.105726  0.126657  0  1.028078  0
H  H56  1  0.52700102  0.95156829  0.39269905  1  0.647163  0  0.299081  0.386431  0  0.951523  0
H  H57  1  0.02699060  0.54845075  0.10729856  1  0.647277  0  0.299035  0.386276  0  0.951747  0
H  H58  1  0.47299658  0.04843194  0.60730454  1  0.647129  0  0.299055  0.386383  0  0.951611  0
H  H59  1  0.97301045  0.45155451  0.89270035  1  0.647227  0  0.299015  0.38629  0  0.951745  0
H  H60  1  0.69349250  0.92413193  0.36877143  1  0.589132  0  0.308104  0.386265  0  0.93478  0
H  H61  1  0.19348877  0.57586914  0.13122514  1  0.589087  0  0.308065  0.386222  0  0.934823  0
H  H62  1  0.30650740  0.07586755  0.63123067  1  0.589054  0  0.308078  0.386218  0  0.934813  0
H  H63  1  0.80651113  0.42412524  0.86877677  1  0.589181  0  0.308047  0.38619  0  0.934859  0
H  H64  1  0.48527917  0.74778267  0.24331409  1  0.625539  0  0.318975  0.395956  0  0.912468  0
H  H65  1  0.98528438  0.75222281  0.25668782  1  0.625577  0  0.318952  0.395934  0  0.91251  0
H  H66  1  0.51474479  0.25221320  0.75669030  1  0.625653  0  0.318914  0.395847  0  0.912634  0
H  H67  1  0.01474759  0.24777810  0.74331239  1  0.625535  0  0.318911  0.395915  0  0.912499  0
H  H68  1  0.56147449  0.77810413  0.17520328  1  0.629643  0  0.297417  0.391093  0  0.951719  0
H  H69  1  0.06146831  0.72189668  0.32479989  1  0.629648  0  0.29746  0.391174  0  0.951588  0
H  H70  1  0.43855062  0.22189758  0.82480133  1  0.629627  0  0.297511  0.39127  0  0.951455  0
H  H71  1  0.93855106  0.27809401  0.67519994  1  0.629626  0  0.297547  0.391399  0  0.95132  0
H  H72  1  0.32878265  0.79297594  0.34775003  1  0.662718  0  0.291633  0.3933  0  0.948113  0
H  H73  1  0.82878701  0.70702994  0.15225031  1  0.662685  0  0.291625  0.393304  0  0.948111  0
H  H74  1  0.67122641  0.20702502  0.65225310  1  0.66275  0  0.291584  0.393251  0  0.948171  0
H  H75  1  0.17122435  0.29297533  0.84774909  1  0.66266  0  0.291634  0.393304  0  0.948121  0
H  H76  1  0.23422428  0.78396668  0.28130976  1  0.644206  0  0.29892  0.402531  0  0.92646  0
H  H77  1  0.73422485  0.71604015  0.21868888  1  0.644499  0  0.298897  0.402461  0  0.926572  0
H  H78  1  0.76579509  0.21602622  0.71869113  1  0.644077  0  0.298881  0.402484  0  0.926496  0
H  H79  1  0.26578879  0.28396949  0.78131020  1  0.644087  0  0.298884  0.402441  0  0.926541  0
C  C80  1  0.61161179  0.05601176  0.19517504  1  1.366997  0  0.23268  0.379916  0  4.138552  0
C  C81  1  0.11161135  0.44398723  0.30482088  1  1.366406  0  0.232739  0.380032  0  4.138417  0
C  C82  1  0.38839383  0.94398405  0.80482547  1  1.367139  0  0.232751  0.380133  0  4.138419  0
C  C83  1  0.88838168  0.55599829  0.69517536  1  1.366533  0  0.232753  0.380255  0  4.138554  0
C  C84  1  0.46848331  0.01963986  0.15943554  1  1.367092  0  0.233523  0.377756  0  4.12818  0
C  C85  1  0.96849106  0.48036039  0.34056304  1  1.36711  0  0.233459  0.377693  0  4.128023  0
C  C86  1  0.53151201  0.98035380  0.84056732  1  1.366818  0  0.233379  0.377581  0  4.128148  0
C  C87  1  0.03150426  0.51963467  0.65943647  1  1.367033  0  0.233547  0.377749  0  4.128256  0
C  C88  1  0.34038312  0.02797447  0.05606008  1  0.402636  0  0.111691  0.230477  0  3.948572  0
C  C89  1  0.84039733  0.47202988  0.44394476  1  0.401623  0  0.111685  0.230606  0  3.948203  0
C  C90  1  0.65959845  0.97202584  0.94394788  1  0.402226  0  0.11165  0.230385  0  3.948588  0
C  C91  1  0.15959340  0.52796956  0.55605491  1  0.40223  0  0.111772  0.230753  0  3.948038  0
C  C92  1  0.28095369  0.93220792  0.05556701  1  -0.039043  0  -0.091593  -0.172218  0  3.923551  0
C  C93  1  0.78096787  0.56779531  0.44444159  1  -0.037867  0  -0.091693  -0.17253  0  3.923238  0
C  C94  1  0.71901527  0.06779900  0.94444362  1  -0.037564  0  -0.0917  -0.172404  0  3.923186  0
C  C95  1  0.21900797  0.43219539  0.55555824  1  -0.037797  0  -0.091719  -0.172609  0  3.923298  0
C  C96  1  0.18174653  0.89621601  0.00701792  1  -0.034573  0  -0.076343  -0.046198  0  4.003665  0
C  C97  1  0.68175607  0.60378892  0.49298951  1  -0.034604  0  -0.07631  -0.045888  0  4.00357  0
C  C98  1  0.81823274  0.10379451  0.99299042  1  -0.034751  0  -0.076299  -0.045907  0  4.003378  0
C  C99  1  0.31822893  0.39620473  0.50701286  1  -0.034315  0  -0.076302  -0.045877  0  4.003329  0
C  C100  1  0.13718075  0.95443883  0.95720907  1  -0.052174  0  -0.095971  -0.094968  0  4.051709  0
C  C101  1  0.63719277  0.54556094  0.54279053  1  -0.052107  0  -0.095962  -0.094963  0  4.05176  0
C  C102  1  0.86280310  0.04556433  0.04279511  1  -0.052129  0  -0.095968  -0.0949  0  4.051749  0
C  C103  1  0.36281056  0.45443704  0.45720957  1  -0.052611  0  -0.095963  -0.095016  0  4.051358  0
C  C104  1  0.19889348  0.04675081  0.95492627  1  -0.011603  0  -0.083959  -0.099682  0  3.962191  0
C  C105  1  0.69889764  0.45325018  0.54507491  1  -0.011744  0  -0.083965  -0.099716  0  3.96225  0
C  C106  1  0.80109725  0.95325454  0.04507750  1  -0.011727  0  -0.083869  -0.09956  0  3.962056  0
C  C107  1  0.30109883  0.54675292  0.45492587  1  -0.011466  0  -0.084031  -0.099696  0  3.962282  0
C  C108  1  0.30004722  0.08636534  0.00365328  1  -0.031127  0  -0.011824  -0.052006  0  3.96124  0
C  C109  1  0.80005933  0.41363329  0.49635143  1  -0.030968  0  -0.011743  -0.051939  0  3.961052  0
C  C110  1  0.69994122  0.91363858  0.99635238  1  -0.031141  0  -0.011771  -0.052022  0  3.961258  0
C  C111  1  0.19994057  0.58636397  0.50364816  1  -0.031167  0  -0.01179  -0.052149  0  3.961285  0
C  C112  1  0.34475443  0.18727912  0.00043900  1  0.606018  0  0.156352  0.137306  0  3.842973  0
C  C113  1  0.84475848  0.31271715  0.49956261  1  0.606266  0  0.156368  0.137484  0  3.842743  0
C  C114  1  0.65524776  0.81271675  0.99956490  1  0.605464  0  0.156453  0.137727  0  3.842343  0
C  C115  1  0.15524485  0.68728079  0.50043458  1  0.605712  0  0.156418  0.137644  0  3.842456  0
C  C116  1  0.31676085  0.23140901  0.93478981  1  1.650516  0  0.220199  0.538712  0  4.259579  0
C  C117  1  0.81675639  0.26858805  0.56521388  1  1.650138  0  0.220228  0.538532  0  4.259379  0
C  C118  1  0.68325050  0.76858762  0.06521656  1  1.650604  0  0.220158  0.538412  0  4.259721  0
C  C119  1  0.18324580  0.73140914  0.43478230  1  1.650682  0  0.220204  0.538341  0  4.259707  0
C  C120  1  0.42081780  0.34021822  0.05418469  1  0.399956  0  0.091145  0.133722  0  3.999635  0
C  C121  1  0.92082468  0.15978660  0.44581707  1  0.396342  0  0.091076  0.133539  0  3.999663  0
C  C122  1  0.57917179  0.65978416  0.94581606  1  0.397582  0  0.091121  0.133533  0  3.99993  0
C  C123  1  0.07918438  0.84021139  0.55418254  1  0.397109  0  0.09104  0.133425  0  4.000067  0
C  C124  1  0.31023485  0.40172483  0.02985067  1  -0.007979  0  -0.08643  -0.147417  0  3.937345  0
C  C125  1  0.81024898  0.09827443  0.47014968  1  -0.007686  0  -0.086463  -0.14741  0  3.937845  0
C  C126  1  0.68976161  0.59827901  0.97015063  1  -0.008882  0  -0.086535  -0.147558  0  3.937432  0
C  C127  1  0.18976811  0.90172001  0.52985563  1  -0.00882  0  -0.086512  -0.147606  0  3.93805  0
C  C128  1  0.32300694  0.50239924  0.04308165  1  -0.085519  0  -0.088509  -0.082648  0  4.023595  0
C  C129  1  0.82301644  0.99760817  0.45692215  1  -0.085984  0  -0.088625  -0.082916  0  4.024035  0
C  C130  1  0.67699410  0.49760310  0.95691715  1  -0.085451  0  -0.08846  -0.082623  0  4.023449  0
C  C131  1  0.17700867  0.00238478  0.54308165  1  -0.085641  0  -0.088504  -0.082544  0  4.023618  0
C  C132  1  0.43913378  0.54094814  0.08383429  1  -0.086259  0  -0.094378  -0.09818  0  4.025584  0
C  C133  1  0.93914886  0.95905538  0.41617397  1  -0.086223  0  -0.094243  -0.097942  0  4.025465  0
C  C134  1  0.56086841  0.45905565  0.91616360  1  -0.08643  0  -0.094334  -0.098152  0  4.025425  0
C  C135  1  0.06086593  0.04094263  0.58382759  1  -0.086174  0  -0.094286  -0.09814  0  4.025354  0
C  C136  1  0.54715610  0.47954395  0.11020131  1  -0.020707  0  -0.08776  -0.145435  0  3.946717  0
C  C137  1  0.04717784  0.02045837  0.38980896  1  -0.020805  0  -0.087737  -0.14553  0  3.946513  0
C  C138  1  0.45284380  0.52046060  0.88979855  1  -0.020693  0  -0.087793  -0.145463  0  3.946741  0
C  C139  1  0.95283122  0.97954400  0.61019130  1  -0.020553  0  -0.087725  -0.145461  0  3.946536  0
C  C140  1  0.54116309  0.37919146  0.09381625  1  0.301085  0  0.089281  0.131976  0  3.982323  0
C  C141  1  0.04117889  0.12081811  0.40618993  1  0.304618  0  0.089111  0.131893  0  3.982469  0
C  C142  1  0.45883223  0.62081019  0.90618447  1  0.304428  0  0.089286  0.132109  0  3.98257  0
C  C143  1  0.95882559  0.87918351  0.59380934  1  0.304529  0  0.089176  0.131994  0  3.98212  0
C  C144  1  0.78438970  0.32248548  0.13202214  1  0.587128  0  0.156663  0.136812  0  3.849193  0
C  C145  1  0.28440852  0.17752250  0.36797228  1  0.587179  0  0.156525  0.136673  0  3.849125  0
C  C146  1  0.21560905  0.67751911  0.86798016  1  0.587257  0  0.156637  0.136764  0  3.849059  0
C  C147  1  0.71559482  0.82247173  0.63202088  1  0.587094  0  0.156519  0.136566  0  3.849275  0
C  C148  1  0.85733248  0.42366911  0.13172519  1  1.627692  0  0.218781  0.550078  0  4.289093  0
C  C149  1  0.35735243  0.07634314  0.36827505  1  1.628586  0  0.218833  0.550311  0  4.289256  0
C  C150  1  0.14265710  0.57633039  0.86827837  1  1.627831  0  0.218862  0.550115  0  4.288863  0
C  C151  1  0.64265549  0.92365920  0.63172376  1  1.628049  0  0.218784  0.550033  0  4.288888  0
C  C152  1  0.88465429  0.24953687  0.15704895  1  0.009575  0  -0.012802  -0.060862  0  3.966037  0
C  C153  1  0.38466753  0.25047949  0.34293972  1  0.059173  0  -0.012751  -0.060981  0  3.966417  0
C  C154  1  0.11534332  0.75046621  0.84294988  1  0.05943  0  -0.012779  -0.060737  0  3.96623  0
C  C155  1  0.61532779  0.74952125  0.65705077  1  0.059054  0  -0.012774  -0.060889  0  3.9663  0
C  C156  1  0.04300993  0.27125618  0.16176692  1  -0.06785  0  -0.080553  -0.089697  0  3.94862  0
C  C157  1  0.54301201  0.22877138  0.33822537  1  -0.076495  0  -0.080706  -0.089511  0  3.948602  0
C  C158  1  0.95699799  0.72874766  0.83823389  1  -0.067451  0  -0.080632  -0.089716  0  3.948762  0
C  C159  1  0.45698560  0.77122936  0.66176464  1  -0.076486  0  -0.080649  -0.089593  0  3.948448  0
C  C160  1  0.14537366  0.20964920  0.18984515  1  -0.020385  0  -0.098144  -0.089696  0  4.011624  0
C  C161  1  0.64538802  0.29038337  0.31015827  1  -0.0126  0  -0.098228  -0.090114  0  4.011639  0
C  C162  1  0.85462051  0.79035314  0.81015366  1  -0.021116  0  -0.098186  -0.089943  0  4.011625  0
C  C163  1  0.35461417  0.70962335  0.68984071  1  -0.012743  0  -0.098221  -0.090097  0  4.011657  0
C  C164  1  0.08999687  0.12542856  0.21658441  1  -0.060459  0  -0.081589  -0.041892  0  3.972896  0
C  C165  1  0.59000963  0.37460340  0.28341717  1  -0.059818  0  -0.081632  -0.041879  0  3.972481  0
C  C166  1  0.90999730  0.87457452  0.78341492  1  -0.059825  0  -0.081546  -0.04177  0  3.972554  0
C  C167  1  0.40998225  0.62540920  0.71658445  1  -0.059272  0  -0.081607  -0.041838  0  3.97261  0
C  C168  1  0.93516876  0.10214502  0.21311819  1  0.009703  0  -0.095895  -0.180472  0  3.928784  0
C  C169  1  0.43516872  0.39788078  0.28687656  1  -0.057033  0  -0.095875  -0.180654  0  3.928888  0
C  C170  1  0.06483572  0.89785878  0.78688068  1  0.010031  0  -0.095962  -0.180686  0  3.929116  0
C  C171  1  0.56482545  0.60212883  0.71312107  1  -0.056806  0  -0.095831  -0.180522  0  3.928832  0
C  C172  1  0.82983421  0.16078012  0.18105731  1  0.355138  0  0.1109  0.222787  0  3.982113  0
C  C173  1  0.32983343  0.33922843  0.31893508  1  0.372365  0  0.110896  0.222753  0  3.982053  0
C  C174  1  0.17016225  0.83922148  0.81894050  1  0.305139  0  0.110917  0.222833  0  3.982098  0
C  C175  1  0.67016533  0.66077165  0.68105927  1  0.37263  0  0.110926  0.222842  0  3.982153  0
N  N176  1  0.68002979  0.13101380  0.16830071  1  -1.211091  0  -0.370661  -0.356163  0  3.65947  0
N  N177  1  0.18002449  0.36899230  0.33169532  1  -1.210646  0  -0.370696  -0.35604  0  3.659683  0
N  N178  1  0.31997354  0.86898194  0.83169590  1  -1.211046  0  -0.370693  -0.356175  0  3.659445  0
N  N179  1  0.81997083  0.63100708  0.66830095  1  -1.210778  0  -0.370747  -0.35634  0  3.659766  0
N  N180  1  0.44290475  0.06319883  0.10377662  1  -1.208679  0  -0.369274  -0.351927  0  3.631353  0
N  N181  1  0.94291332  0.43680881  0.39622326  1  -1.208202  0  -0.369241  -0.351937  0  3.631127  0
N  N182  1  0.55708828  0.93680652  0.89622716  1  -1.208698  0  -0.36923  -0.351825  0  3.631167  0
N  N183  1  0.05708199  0.56318769  0.60377485  1  -1.208206  0  -0.369262  -0.35193  0  3.631195  0
N  N184  1  0.41715043  0.23727941  0.04786064  1  -1.224478  0  -0.350112  -0.238483  0  3.680119  0
N  N185  1  0.91715848  0.26272685  0.45214021  1  -1.224638  0  -0.350077  -0.238409  0  3.67995  0
N  N186  1  0.58283572  0.76272305  0.95214545  1  -1.224049  0  -0.350168  -0.238593  0  3.680093  0
N  N187  1  0.08283913  0.73727400  0.54785660  1  -1.224325  0  -0.350095  -0.23839  0  3.680042  0
N  N188  1  0.64160986  0.30620079  0.11470062  1  -1.174981  0  -0.339395  -0.22594  0  3.654433  0
N  N189  1  0.14162921  0.19381124  0.38529523  1  -1.174858  0  -0.339189  -0.225878  0  3.654348  0
N  N190  1  0.35838660  0.69380307  0.88530164  1  -1.175301  0  -0.339335  -0.225899  0  3.65469  0
N  N191  1  0.85837298  0.80619098  0.61469677  1  -1.174712  0  -0.339267  -0.225814  0  3.654467  0
O  O192  1  0.65388422  0.00981256  0.24307058  1  -1.195039  0  -0.316792  -0.542661  0  2.246204  0
O  O193  1  0.15388412  0.49019064  0.25692248  1  -1.194625  0  -0.31681  -0.542775  0  2.245984  0
O  O194  1  0.34612485  0.99019124  0.75692779  1  -1.195042  0  -0.316827  -0.54284  0  2.24605  0
O  O195  1  0.84610547  0.50979769  0.74306706  1  -1.194689  0  -0.316792  -0.542835  0  2.246355  0
O  O196  1  0.39571393  0.95120589  0.18321232  1  -1.184882  0  -0.311463  -0.524728  0  2.258761  0
O  O197  1  0.89571724  0.54879539  0.31678576  1  -1.18485  0  -0.311514  -0.524788  0  2.258629  0
O  O198  1  0.60429972  0.04879352  0.81678590  1  -1.184788  0  -0.311444  -0.524751  0  2.258373  0
O  O199  1  0.10428266  0.45120399  0.68321003  1  -1.184896  0  -0.311514  -0.524845  0  2.258852  0
O  O200  1  0.18526364  0.25981346  0.91960966  1  -1.169736  0  -0.302435  -0.519087  0  2.19009  0
O  O201  1  0.68526459  0.24018697  0.58039930  1  -1.169843  0  -0.302385  -0.518915  0  2.190071  0
O  O202  1  0.81474886  0.74018681  0.08039587  1  -1.169979  0  -0.302437  -0.519018  0  2.190276  0
O  O203  1  0.31473989  0.75981179  0.41960326  1  -1.169967  0  -0.302445  -0.518935  0  2.190165  0
O  O204  1  0.43806913  0.22800171  0.90064483  1  -1.159074  0  -0.301811  -0.523943  0  2.178039  0
O  O205  1  0.93808048  0.27198413  0.59936109  1  -1.158733  0  -0.301856  -0.524028  0  2.1778  0
O  O206  1  0.56193306  0.77199203  0.09936240  1  -1.158743  0  -0.301733  -0.523798  0  2.177979  0
O  O207  1  0.06192973  0.72800289  0.40063715  1  -1.158861  0  -0.301752  -0.523771  0  2.178115  0
O  O208  1  0.91383320  0.45114954  0.08000490  1  -1.150059  0  -0.293121  -0.505673  0  2.123217  0
O  O209  1  0.41386391  0.04886899  0.41998767  1  -1.150437  0  -0.29308  -0.505669  0  2.123606  0
O  O210  1  0.08615753  0.54884920  0.91999668  1  -1.150249  0  -0.293159  -0.505723  0  2.123572  0
O  O211  1  0.58613942  0.95113609  0.58000055  1  -1.14994  0  -0.2931  -0.505645  0  2.122889  0
O  O212  1  0.85826692  0.46857296  0.18783899  1  -1.224956  0  -0.352882  -0.645983  0  2.312745  0
O  O213  1  0.35827859  0.03143053  0.31216092  1  -1.225324  0  -0.352969  -0.646183  0  2.312538  0
O  O214  1  0.14172381  0.53142716  0.81215779  1  -1.224925  0  -0.352921  -0.645979  0  2.312235  0
O  O215  1  0.64172933  0.96856669  0.68783672  1  -1.225329  0  -0.352933  -0.645989  0  2.312679  0
O  O216  1  0.58668037  0.90471469  0.36258514  1  -1.26708  0  -0.606865  -0.804637  0  2.02749  0
O  O217  1  0.08668089  0.59529545  0.13741298  1  -1.267183  0  -0.606809  -0.804467  0  2.027676  0
O  O218  1  0.41332067  0.09529203  0.63741334  1  -1.267015  0  -0.60684  -0.804566  0  2.027504  0
O  O219  1  0.91332130  0.40470401  0.86258815  1  -1.267242  0  -0.606771  -0.804467  0  2.027671  0
O  O220  1  0.57139830  0.78318069  0.22503629  1  -1.280523  0  -0.58042  -0.801237  0  2.066578  0
O  O221  1  0.07139819  0.71682152  0.27496497  1  -1.280603  0  -0.580451  -0.801305  0  2.066539  0
O  O222  1  0.42862336  0.21682536  0.77496655  1  -1.280595  0  -0.580419  -0.801241  0  2.066546  0
O  O223  1  0.92862462  0.28316696  0.72503332  1  -1.280497  0  -0.580465  -0.80146  0  2.066353  0
O  O224  1  0.33152725  0.81042297  0.30029456  1  -1.346892  0  -0.619984  -0.85809  0  2.037916  0
O  O225  1  0.83152455  0.68958144  0.19970620  1  -1.347188  0  -0.619939  -0.858004  0  2.037961  0
O  O226  1  0.66848983  0.18957216  0.69970884  1  -1.346752  0  -0.619904  -0.858002  0  2.03802  0
O  O227  1  0.16848337  0.31042239  0.80029460  1  -1.346734  0  -0.619933  -0.858008  0  2.038014  0
