# generated using pymatgen
data_AgH9C6BrN2
_symmetry_space_group_name_H-M   'P 1'
_cell_length_a   4.57521325
_cell_length_b   9.49436429
_cell_length_c   17.87846971
_cell_angle_alpha   93.93755912
_cell_angle_beta   90.00014500
_cell_angle_gamma   89.99978259
_symmetry_Int_Tables_number   1
_chemical_formula_structural   AgH9C6BrN2
_chemical_formula_sum   'Ag4 H36 C24 Br4 N8'
_cell_volume   774.78499639
_cell_formula_units_Z   4
loop_
 _symmetry_equiv_pos_site_id
 _symmetry_equiv_pos_as_xyz
  1  'x, y, z'
loop_
 _atom_site_type_symbol
 _atom_site_label
 _atom_site_symmetry_multiplicity
 _atom_site_fract_x
 _atom_site_fract_y
 _atom_site_fract_z
 _atom_site_occupancy
 _atom_site_hle17_bader_spin_density
 _atom_site_hle17_ddec_charge
 _atom_site_hle17_ddec_spin_density
 _atom_site_hle17_ddec_sum_bond_order
 _atom_site_hle17_magmom
 _atom_site_hse06_10hf_bader_spin_density
 _atom_site_hse06_10hf_ddec_charge
 _atom_site_hse06_10hf_ddec_spin_density
 _atom_site_hse06_10hf_ddec_sum_bond_order
 _atom_site_hse06_10hf_magmom
 _atom_site_hse06_bader_spin_density
 _atom_site_hse06_ddec_charge
 _atom_site_hse06_ddec_spin_density
 _atom_site_hse06_ddec_sum_bond_order
 _atom_site_hse06_magmom
 _atom_site_pbe_bader_spin_density
 _atom_site_pbe_cm5_charge
 _atom_site_pbe_ddec_charge
 _atom_site_pbe_ddec_spin_density
 _atom_site_pbe_ddec_sum_bond_order
 _atom_site_pbe_magmom
Ag  Ag0  1  0.91638598  0.30347406  0.30897952  1  0  0.405405  0  1.664199  0  0  0.289867  0  2.154751  0  0  0.319531  0  2.103411  0  0  0.274519  0.267541  0  2.192594  0
Ag  Ag1  1  0.41635669  0.19653138  0.19101351  1  0  0.405333  0  1.664177  0  0  0.289761  0  2.154765  0  0  0.319431  0  2.103428  0  0  0.274479  0.267438  0  2.192604  0
Ag  Ag2  1  0.08362725  0.69653501  0.69101930  1  0  0.405362  0  1.664203  0  0  0.28982  0  2.154775  0  0  0.31948  0  2.103431  0  0  0.274512  0.26749  0  2.192614  0
Ag  Ag3  1  0.58362595  0.80347148  0.80897444  1  0  0.40538  0  1.664189  0  0  0.289838  0  2.154742  0  0  0.319502  0  2.103396  0  0  0.274496  0.26751  0  2.19258  0
H  H4  1  0.39919364  0.54234972  0.25738273  1  0  0.092303  0  0.974108  0  0  0.097757  0  1.048437  0  0  0.100554  0  1.045884  0  0  0.104689  0.095765  0  1.050477  0
H  H5  1  0.89918835  0.95766109  0.24261259  1  0  0.092357  0  0.974131  0  0  0.097836  0  1.048414  0  0  0.100627  0  1.045873  0  0  0.104724  0.095839  0  1.050456  0
H  H6  1  0.60079992  0.45764992  0.74261013  1  0  0.092413  0  0.974248  0  0  0.097856  0  1.04857  0  0  0.100668  0  1.046  0  0  0.104716  0.095851  0  1.050622  0
H  H7  1  0.10079865  0.04235442  0.75737866  1  0  0.092137  0  0.974113  0  0  0.097621  0  1.048416  0  0  0.100415  0  1.045871  0  0  0.104651  0.09566  0  1.050426  0
H  H8  1  0.63854310  0.48177671  0.43498596  1  0  0.131892  0  0.949923  0  0  0.151567  0  1.013903  0  0  0.153468  0  1.012834  0  0  0.096445  0.150201  0  1.01451  0
H  H9  1  0.13852055  0.01821336  0.06500962  1  0  0.131888  0  0.949919  0  0  0.151561  0  1.013923  0  0  0.153465  0  1.012848  0  0  0.096434  0.150194  0  1.014529  0
H  H10  1  0.36146795  0.51821966  0.56501515  1  0  0.13189  0  0.949914  0  0  0.151576  0  1.013883  0  0  0.153477  0  1.012812  0  0  0.096426  0.150211  0  1.014488  0
H  H11  1  0.86144897  0.98177152  0.93498097  1  0  0.131926  0  0.949923  0  0  0.151555  0  1.013954  0  0  0.153454  0  1.012888  0  0  0.096423  0.150189  0  1.014558  0
H  H12  1  0.52345274  0.66093113  0.44499784  1  0  0.125001  0  0.958984  0  0  0.143529  0  1.02118  0  0  0.145412  0  1.021492  0  0  0.096449  0.142315  0  1.020777  0
H  H13  1  0.02344296  0.83905918  0.05500143  1  0  0.125094  0  0.959016  0  0  0.143581  0  1.021238  0  0  0.145452  0  1.021561  0  0  0.096507  0.142367  0  1.020836  0
H  H14  1  0.47656486  0.33906418  0.55500323  1  0  0.125107  0  0.958915  0  0  0.14361  0  1.021129  0  0  0.145495  0  1.021437  0  0  0.096494  0.142397  0  1.020727  0
H  H15  1  0.97654841  0.16092142  0.94499402  1  0  0.124988  0  0.959094  0  0  0.14347  0  1.021328  0  0  0.145354  0  1.021635  0  0  0.096385  0.142256  0  1.020924  0
H  H16  1  0.80901588  0.60274733  0.50235419  1  0  0.126949  0  0.940901  0  0  0.147277  0  1.003093  0  0  0.149133  0  1.002563  0  0  0.095429  0.145799  0  1.003762  0
H  H17  1  0.30899883  0.89724285  0.99764465  1  0  0.126991  0  0.940877  0  0  0.147319  0  1.003062  0  0  0.149175  0  1.00253  0  0  0.09543  0.14584  0  1.003732  0
H  H18  1  0.19099954  0.39725218  0.49764873  1  0  0.127003  0  0.940883  0  0  0.147304  0  1.003105  0  0  0.149157  0  1.002579  0  0  0.095444  0.145825  0  1.003774  0
H  H19  1  0.69097943  0.10273778  0.00234856  1  0  0.126932  0  0.940799  0  0  0.147228  0  1.003028  0  0  0.149082  0  1.002499  0  0  0.095411  0.145748  0  1.003696  0
H  H20  1  0.34805850  0.83138769  0.29804402  1  0  0.11256  0  0.978658  0  0  0.120635  0  1.044895  0  0  0.122873  0  1.044886  0  0  0.114629  0.11835  0  1.046146  0
H  H21  1  0.84805067  0.66862207  0.20195849  1  0  0.112502  0  0.978686  0  0  0.120594  0  1.044917  0  0  0.122822  0  1.044929  0  0  0.114605  0.118309  0  1.046169  0
H  H22  1  0.65194381  0.16862245  0.70195428  1  0  0.112556  0  0.978905  0  0  0.120644  0  1.045108  0  0  0.122863  0  1.045137  0  0  0.114602  0.11836  0  1.046358  0
H  H23  1  0.15193852  0.33139331  0.79804282  1  0  0.112513  0  0.978553  0  0  0.120591  0  1.044814  0  0  0.12283  0  1.0448  0  0  0.114615  0.118307  0  1.046066  0
H  H24  1  0.29555212  0.93104700  0.47935568  1  0  0.066036  0  0.95051  0  0  0.084205  0  1.014379  0  0  0.085171  0  1.01447  0  0  0.085002  0.083425  0  1.014361  0
H  H25  1  0.79552806  0.56894486  0.02064888  1  0  0.066065  0  0.9506  0  0  0.084218  0  1.014424  0  0  0.085187  0  1.014513  0  0  0.084995  0.083439  0  1.014405  0
H  H26  1  0.70447204  0.06895039  0.52064771  1  0  0.066073  0  0.950544  0  0  0.084215  0  1.014385  0  0  0.085183  0  1.014479  0  0  0.084995  0.083436  0  1.014367  0
H  H27  1  0.20444801  0.43104511  0.97935701  1  0  0.066004  0  0.950525  0  0  0.084146  0  1.014426  0  0  0.085111  0  1.014519  0  0  0.084969  0.083367  0  1.014408  0
H  H28  1  0.00575850  0.84814437  0.52477099  1  0  0.070448  0  0.95062  0  0  0.086826  0  1.018357  0  0  0.087733  0  1.018302  0  0  0.082135  0.085842  0  1.018856  0
H  H29  1  0.50573803  0.65185048  0.97523566  1  0  0.070443  0  0.950672  0  0  0.086797  0  1.018394  0  0  0.087704  0  1.018336  0  0  0.08209  0.085813  0  1.018897  0
H  H30  1  0.99427659  0.15185194  0.47523515  1  0  0.070432  0  0.950634  0  0  0.086789  0  1.018364  0  0  0.087701  0  1.018308  0  0  0.082095  0.085806  0  1.018868  0
H  H31  1  0.49424461  0.34814159  0.02477144  1  0  0.070449  0  0.950574  0  0  0.086846  0  1.018293  0  0  0.087754  0  1.018236  0  0  0.082135  0.085863  0  1.018793  0
H  H32  1  0.68229682  0.87985223  0.41303428  1  0  0.065065  0  0.949342  0  0  0.079382  0  1.017974  0  0  0.080101  0  1.017645  0  0  0.101692  0.078737  0  1.018152  0
H  H33  1  0.18227807  0.62014507  0.08697489  1  0  0.065039  0  0.949368  0  0  0.079443  0  1.017963  0  0  0.080168  0  1.017633  0  0  0.101678  0.078795  0  1.018148  0
H  H34  1  0.31772953  0.12015144  0.58697440  1  0  0.064989  0  0.949401  0  0  0.079357  0  1.018007  0  0  0.080082  0  1.017678  0  0  0.10167  0.07871  0  1.018189  0
H  H35  1  0.81770893  0.37985332  0.91303357  1  0  0.065046  0  0.949336  0  0  0.079405  0  1.017933  0  0  0.080125  0  1.017604  0  0  0.101685  0.078758  0  1.018117  0
H  H36  1  0.96741304  0.96901931  0.36977861  1  0  0.071273  0  0.955932  0  0  0.085789  0  1.025044  0  0  0.086533  0  1.02449  0  0  0.0969  0.084243  0  1.026875  0
H  H37  1  0.46740412  0.53097855  0.13022910  1  0  0.07123  0  0.955938  0  0  0.085839  0  1.025008  0  0  0.086559  0  1.024483  0  0  0.096888  0.084291  0  1.026841  0
H  H38  1  0.03260456  0.03098123  0.63022659  1  0  0.071226  0  0.955863  0  0  0.085726  0  1.025011  0  0  0.086474  0  1.024457  0  0  0.096822  0.084178  0  1.026846  0
H  H39  1  0.53259381  0.46902197  0.86977832  1  0  0.071259  0  0.955944  0  0  0.085774  0  1.025075  0  0  0.086518  0  1.024524  0  0  0.09689  0.084228  0  1.026907  0
C  C40  1  0.93058337  0.62174135  0.38729240  1  0  0.351151  0  3.708092  0  0  0.332541  0  3.967801  0  0  0.34724  0  3.984694  0  0  0.209789  0.323184  0  3.955393  0
C  C41  1  0.43056509  0.87825666  0.11270858  1  0  0.351183  0  3.708062  0  0  0.332634  0  3.967714  0  0  0.347334  0  3.984606  0  0  0.20987  0.323277  0  3.955303  0
C  C42  1  0.06943423  0.37825816  0.61271164  1  0  0.351096  0  3.708069  0  0  0.332528  0  3.967758  0  0  0.347224  0  3.984652  0  0  0.20989  0.323174  0  3.955349  0
C  C43  1  0.56941754  0.12174294  0.88728762  1  0  0.35112  0  3.708334  0  0  0.332629  0  3.967857  0  0  0.347327  0  3.984746  0  0  0.209882  0.323272  0  3.955445  0
C  C44  1  0.26016622  0.59799371  0.29864924  1  0  -0.005026  0  3.788674  0  0  -0.03809  0  4.060565  0  0  -0.036069  0  4.080994  0  0  -0.015726  -0.039773  0  4.047021  0
C  C45  1  0.76015879  0.90201627  0.20134818  1  0  -0.005427  0  3.788783  0  0  -0.038517  0  4.060736  0  0  -0.036499  0  4.08117  0  0  -0.015872  -0.040194  0  4.047193  0
C  C46  1  0.73982734  0.40202279  0.70134708  1  0  -0.005436  0  3.788694  0  0  -0.038515  0  4.060667  0  0  -0.036506  0  4.081079  0  0  -0.015816  -0.040183  0  4.047134  0
C  C47  1  0.23983477  0.09799811  0.79864861  1  0  -0.004894  0  3.788653  0  0  -0.037959  0  4.060554  0  0  -0.035939  0  4.080985  0  0  -0.015709  -0.039669  0  4.046991  0
C  C48  1  0.71416325  0.59084526  0.44565944  1  0  -0.385222  0  3.714516  0  0  -0.465022  0  3.948365  0  0  -0.469122  0  3.955624  0  0  -0.235458  -0.462061  0  3.94292  0
C  C49  1  0.21414419  0.90914683  0.05433836  1  0  -0.385385  0  3.714422  0  0  -0.465157  0  3.948253  0  0  -0.469244  0  3.955522  0  0  -0.235516  -0.462199  0  3.942805  0
C  C50  1  0.28585654  0.40915109  0.55434279  1  0  -0.385428  0  3.714387  0  0  -0.465215  0  3.948256  0  0  -0.469314  0  3.955514  0  0  -0.235533  -0.462254  0  3.94281  0
C  C51  1  0.78583844  0.09083801  0.94565502  1  0  -0.385144  0  3.71463  0  0  -0.464879  0  3.948428  0  0  -0.468979  0  3.955694  0  0  -0.235359  -0.461917  0  3.942978  0
C  C52  1  0.23951318  0.73999900  0.31836412  1  0  -0.074128  0  3.697229  0  0  -0.114852  0  3.957862  0  0  -0.113163  0  3.976853  0  0  -0.009129  -0.115828  0  3.945765  0
C  C53  1  0.73951321  0.76000783  0.18163428  1  0  -0.073952  0  3.697146  0  0  -0.114689  0  3.957786  0  0  -0.112996  0  3.976775  0  0  -0.009088  -0.115667  0  3.945691  0
C  C54  1  0.76046945  0.25999850  0.68163088  1  0  -0.074197  0  3.697046  0  0  -0.114902  0  3.957643  0  0  -0.113209  0  3.976638  0  0  -0.009104  -0.115877  0  3.945547  0
C  C55  1  0.26048691  0.23999808  0.81836386  1  0  -0.073985  0  3.697254  0  0  -0.114748  0  3.957909  0  0  -0.113058  0  3.976902  0  0  -0.009057  -0.115727  0  3.945824  0
C  C56  1  0.05605293  0.92797629  0.48480577  1  0  -0.123241  0  3.681869  0  0  -0.163436  0  3.93742  0  0  -0.165394  0  3.951997  0  0  -0.16975  -0.161989  0  3.927252  0
C  C57  1  0.55602881  0.57201914  0.01520212  1  0  -0.123269  0  3.681861  0  0  -0.163349  0  3.937384  0  0  -0.1653  0  3.951954  0  0  -0.16964  -0.1619  0  3.927214  0
C  C58  1  0.94397778  0.07201791  0.51520029  1  0  -0.123319  0  3.681815  0  0  -0.163392  0  3.937281  0  0  -0.165362  0  3.951877  0  0  -0.169689  -0.161945  0  3.927113  0
C  C59  1  0.44395164  0.42797714  0.98480570  1  0  -0.123256  0  3.681672  0  0  -0.16344  0  3.937234  0  0  -0.165397  0  3.951801  0  0  -0.16975  -0.161993  0  3.927067  0
C  C60  1  0.92117744  0.88719563  0.40860102  1  0  0.00934  0  3.646357  0  0  -0.051201  0  3.898186  0  0  -0.04708  0  3.910281  0  0  -0.05838  -0.053571  0  3.889854  0
C  C61  1  0.42116097  0.61280231  0.09140667  1  0  0.009338  0  3.646171  0  0  -0.051368  0  3.897907  0  0  -0.047255  0  3.910056  0  0  -0.058349  -0.053731  0  3.889562  0
C  C62  1  0.07884672  0.11280594  0.59140646  1  0  0.009423  0  3.64604  0  0  -0.051112  0  3.897676  0  0  -0.047014  0  3.909808  0  0  -0.058241  -0.05348  0  3.88934  0
C  C63  1  0.57882603  0.38719716  0.90860016  1  0  0.009429  0  3.646206  0  0  -0.051145  0  3.897999  0  0  -0.047025  0  3.910097  0  0  -0.058347  -0.053513  0  3.889664  0
Br  Br64  1  0.94404724  0.32901297  0.15014291  1  0  -0.506436  0  1.270619  0  0  -0.419022  0  1.671185  0  0  -0.441767  0  1.636197  0  0  -0.247783  -0.400235  0  1.697168  0
Br  Br65  1  0.44405896  0.17099769  0.34985146  1  0  -0.506412  0  1.270614  0  0  -0.418991  0  1.67117  0  0  -0.441736  0  1.636181  0  0  -0.247779  -0.400202  0  1.697152  0
Br  Br66  1  0.05594632  0.67099505  0.84985587  1  0  -0.506401  0  1.270556  0  0  -0.418977  0  1.671068  0  0  -0.44172  0  1.636079  0  0  -0.247777  -0.400187  0  1.697043  0
Br  Br67  1  0.55594771  0.82900302  0.65013976  1  0  -0.506398  0  1.270595  0  0  -0.418999  0  1.671174  0  0  -0.441737  0  1.63618  0  0  -0.247774  -0.40021  0  1.697152  0
N  N68  1  0.02921062  0.75367568  0.37404056  1  0  -0.122615  0  3.536028  0  0  -0.027531  0  3.74403  0  0  -0.043421  0  3.770205  0  0  -0.24825  -0.017032  0  3.726051  0
N  N69  1  0.52919931  0.74632620  0.12596254  1  0  -0.122652  0  3.536066  0  0  -0.027582  0  3.744143  0  0  -0.043464  0  3.770316  0  0  -0.248353  -0.017084  0  3.726162  0
N  N70  1  0.97080480  0.24633229  0.62596214  1  0  -0.122451  0  3.535883  0  0  -0.027413  0  3.743929  0  0  -0.043295  0  3.770105  0  0  -0.248388  -0.016914  0  3.72595  0
N  N71  1  0.47078333  0.25367335  0.87403814  1  0  -0.122713  0  3.536206  0  0  -0.027632  0  3.744186  0  0  -0.043524  0  3.77036  0  0  -0.24832  -0.017133  0  3.726207  0
N  N72  1  0.06668937  0.52582654  0.34132329  1  0  -0.410722  0  3.26444  0  0  -0.340224  0  3.553718  0  0  -0.361728  0  3.570314  0  0  -0.373187  -0.32492  0  3.542134  0
N  N73  1  0.56666788  0.97417746  0.15867320  1  0  -0.410402  0  3.264181  0  0  -0.33993  0  3.553447  0  0  -0.361433  0  3.570045  0  0  -0.373113  -0.324627  0  3.54186  0
N  N74  1  0.93332386  0.47417835  0.65867145  1  0  -0.41035  0  3.264307  0  0  -0.33987  0  3.553554  0  0  -0.361374  0  3.570158  0  0  -0.37311  -0.324565  0  3.541964  0
N  N75  1  0.43331475  0.02582534  0.84132089  1  0  -0.410777  0  3.264324  0  0  -0.340325  0  3.553597  0  0  -0.361827  0  3.570185  0  0  -0.373246  -0.32502  0  3.54202  0
