# generated using pymatgen
data_CdH10C12BrNO3
_symmetry_space_group_name_H-M   'P 1'
_cell_length_a   8.41903243
_cell_length_b   9.58687797
_cell_length_c   15.40468202
_cell_angle_alpha   89.99994190
_cell_angle_beta   96.72052195
_cell_angle_gamma   90.00003848
_symmetry_Int_Tables_number   1
_chemical_formula_structural   CdH10C12BrNO3
_chemical_formula_sum   'Cd4 H40 C48 Br4 N4 O12'
_cell_volume   1234.80305406
_cell_formula_units_Z   4
loop_
 _symmetry_equiv_pos_site_id
 _symmetry_equiv_pos_as_xyz
  1  'x, y, z'
loop_
 _atom_site_type_symbol
 _atom_site_label
 _atom_site_symmetry_multiplicity
 _atom_site_fract_x
 _atom_site_fract_y
 _atom_site_fract_z
 _atom_site_occupancy
 _atom_site_hle17_bader_spin_density
 _atom_site_hle17_ddec_charge
 _atom_site_hle17_ddec_spin_density
 _atom_site_hle17_ddec_sum_bond_order
 _atom_site_hle17_magmom
 _atom_site_hse06_10hf_bader_spin_density
 _atom_site_hse06_10hf_ddec_charge
 _atom_site_hse06_10hf_ddec_spin_density
 _atom_site_hse06_10hf_ddec_sum_bond_order
 _atom_site_hse06_10hf_magmom
 _atom_site_hse06_bader_spin_density
 _atom_site_hse06_ddec_charge
 _atom_site_hse06_ddec_spin_density
 _atom_site_hse06_ddec_sum_bond_order
 _atom_site_hse06_magmom
 _atom_site_pbe_bader_spin_density
 _atom_site_pbe_cm5_charge
 _atom_site_pbe_ddec_charge
 _atom_site_pbe_ddec_spin_density
 _atom_site_pbe_ddec_sum_bond_order
 _atom_site_pbe_magmom
Cd  Cd0  1  0.37540867  0.51310917  0.76255943  1  0  1.044637  0  1.784778  0  0  0.850309  0  2.2534  0  0  0.907422  0  2.203475  0  0  0.687773  0.810223  0  2.287081  0
Cd  Cd1  1  0.12460053  0.01311318  0.73743923  1  0  1.044693  0  1.784807  0  0  0.850347  0  2.253444  0  0  0.90746  0  2.203515  0  0  0.687802  0.810265  0  2.287122  0
Cd  Cd2  1  0.62458856  0.48689260  0.23744523  1  0  1.044639  0  1.784782  0  0  0.850322  0  2.253403  0  0  0.907438  0  2.203473  0  0  0.687769  0.810237  0  2.287085  0
Cd  Cd3  1  0.87540636  0.98688963  0.26255960  1  0  1.04461  0  1.784866  0  0  0.850282  0  2.253498  0  0  0.907394  0  2.203572  0  0  0.687746  0.810199  0  2.287174  0
H  H4  1  0.89980846  0.40581843  0.11479176  1  0  0.112393  0  0.941351  0  0  0.125034  0  0.997325  0  0  0.128144  0  0.996065  0  0  0.105173  0.122673  0  0.998626  0
H  H5  1  0.60019361  0.90582134  0.38521166  1  0  0.112307  0  0.941369  0  0  0.12496  0  0.997333  0  0  0.128068  0  0.996077  0  0  0.105145  0.1226  0  0.998629  0
H  H6  1  0.10019121  0.59417604  0.88520917  1  0  0.112402  0  0.941355  0  0  0.125046  0  0.997324  0  0  0.128164  0  0.996045  0  0  0.105164  0.122677  0  0.998633  0
H  H7  1  0.39980964  0.09418043  0.61479017  1  0  0.1123  0  0.941341  0  0  0.124945  0  0.997335  0  0  0.128059  0  0.996063  0  0  0.105132  0.122585  0  0.998634  0
H  H8  1  0.61176246  0.86638056  0.88478422  1  0  0.061583  0  0.928881  0  0  0.070865  0  0.991961  0  0  0.072169  0  0.990943  0  0  0.114376  0.070388  0  0.992039  0
H  H9  1  0.88825197  0.36638494  0.61521471  1  0  0.061661  0  0.928946  0  0  0.070966  0  0.991995  0  0  0.072276  0  0.990962  0  0  0.114338  0.070487  0  0.992076  0
H  H10  1  0.38825040  0.13361704  0.11521566  1  0  0.061629  0  0.928856  0  0  0.070928  0  0.991918  0  0  0.072244  0  0.990871  0  0  0.114348  0.070448  0  0.992002  0
H  H11  1  0.11175972  0.63361788  0.38478315  1  0  0.061624  0  0.928883  0  0  0.070908  0  0.991945  0  0  0.072209  0  0.990932  0  0  0.114377  0.07043  0  0.992023  0
H  H12  1  0.40644798  0.20721809  0.83678810  1  0  0.090319  0  0.96719  0  0  0.097298  0  1.034602  0  0  0.100549  0  1.030378  0  0  0.114294  0.094609  0  1.038118  0
H  H13  1  0.09357094  0.70722659  0.66320916  1  0  0.090377  0  0.967155  0  0  0.097306  0  1.034631  0  0  0.100579  0  1.030383  0  0  0.114328  0.094604  0  1.038157  0
H  H14  1  0.59355411  0.79277638  0.16321170  1  0  0.090385  0  0.967193  0  0  0.09731  0  1.034661  0  0  0.100599  0  1.030397  0  0  0.114281  0.094608  0  1.038188  0
H  H15  1  0.90643955  0.29277518  0.33678927  1  0  0.09036  0  0.967233  0  0  0.097278  0  1.034712  0  0  0.100567  0  1.030443  0  0  0.114325  0.094576  0  1.038238  0
H  H16  1  0.77365700  0.18033627  0.05667184  1  0  0.102315  0  0.973509  0  0  0.109852  0  1.041333  0  0  0.113211  0  1.03854  0  0  0.095389  0.107128  0  1.043865  0
H  H17  1  0.72634728  0.68033708  0.44333511  1  0  0.102349  0  0.973615  0  0  0.109903  0  1.0414  0  0  0.113264  0  1.038609  0  0  0.095427  0.107178  0  1.043928  0
H  H18  1  0.22633904  0.81966028  0.94333209  1  0  0.102365  0  0.973515  0  0  0.109859  0  1.041393  0  0  0.113213  0  1.038611  0  0  0.09541  0.107139  0  1.043902  0
H  H19  1  0.27365717  0.31966364  0.55666679  1  0  0.102402  0  0.973508  0  0  0.109918  0  1.041335  0  0  0.113275  0  1.038544  0  0  0.095417  0.107193  0  1.043866  0
H  H20  1  0.56785431  0.06378240  0.94984955  1  0  0.096969  0  0.964325  0  0  0.107863  0  1.025256  0  0  0.110936  0  1.024415  0  0  0.103685  0.105764  0  1.025843  0
H  H21  1  0.93216226  0.56378712  0.55015425  1  0  0.096875  0  0.964259  0  0  0.107745  0  1.02524  0  0  0.110823  0  1.024383  0  0  0.103653  0.105642  0  1.025836  0
H  H22  1  0.43214776  0.93621311  0.05015154  1  0  0.097024  0  0.964288  0  0  0.107877  0  1.025267  0  0  0.110957  0  1.024405  0  0  0.103673  0.105771  0  1.025867  0
H  H23  1  0.06784461  0.43621673  0.44984587  1  0  0.096913  0  0.964189  0  0  0.107765  0  1.025193  0  0  0.110845  0  1.024332  0  0  0.103632  0.105663  0  1.025778  0
H  H24  1  0.80289801  0.78311883  0.96651076  1  0  0.116381  0  0.965275  0  0  0.121522  0  1.036165  0  0  0.125474  0  1.033353  0  0  0.098579  0.118451  0  1.038455  0
H  H25  1  0.69710676  0.28312322  0.53349016  1  0  0.116379  0  0.965185  0  0  0.121541  0  1.036079  0  0  0.125486  0  1.033273  0  0  0.098603  0.118482  0  1.038345  0
H  H26  1  0.19710042  0.21687668  0.03349333  1  0  0.116476  0  0.965213  0  0  0.121596  0  1.036138  0  0  0.125544  0  1.033329  0  0  0.09863  0.118541  0  1.038387  0
H  H27  1  0.30289770  0.71687750  0.46651110  1  0  0.116356  0  0.965208  0  0  0.121509  0  1.036106  0  0  0.125462  0  1.033292  0  0  0.09859  0.118448  0  1.038374  0
H  H28  1  0.94042935  0.66139175  0.09250589  1  0  0.094522  0  0.957567  0  0  0.104867  0  1.018031  0  0  0.107405  0  1.017608  0  0  0.096185  0.102836  0  1.018855  0
H  H29  1  0.55957500  0.16139440  0.40749589  1  0  0.094534  0  0.957546  0  0  0.104902  0  1.017973  0  0  0.107433  0  1.017558  0  0  0.096199  0.102847  0  1.018844  0
H  H30  1  0.05957152  0.33860167  0.90749513  1  0  0.094583  0  0.957454  0  0  0.104893  0  1.017944  0  0  0.107428  0  1.017525  0  0  0.096194  0.102841  0  1.018813  0
H  H31  1  0.44042468  0.83860633  0.59250505  1  0  0.094594  0  0.957504  0  0  0.104911  0  1.017991  0  0  0.107448  0  1.017569  0  0  0.096209  0.102882  0  1.01883  0
H  H32  1  0.82090613  0.80411122  0.78916246  1  0  0.113647  0  0.957501  0  0  0.132014  0  1.02302  0  0  0.133753  0  1.022598  0  0  0.084153  0.130531  0  1.023679  0
H  H33  1  0.67908929  0.30412365  0.71082482  1  0  0.113612  0  0.957461  0  0  0.131986  0  1.022985  0  0  0.133734  0  1.022571  0  0  0.084172  0.130502  0  1.023645  0
H  H34  1  0.17908892  0.19587804  0.21082777  1  0  0.11362  0  0.957509  0  0  0.131979  0  1.023043  0  0  0.133731  0  1.022632  0  0  0.084158  0.130495  0  1.023704  0
H  H35  1  0.32090458  0.69588125  0.28916403  1  0  0.113632  0  0.957529  0  0  0.132005  0  1.023035  0  0  0.133743  0  1.022632  0  0  0.084161  0.130522  0  1.023697  0
H  H36  1  0.69825067  0.94062594  0.74159279  1  0  0.127126  0  0.935915  0  0  0.147671  0  0.994906  0  0  0.149284  0  0.994736  0  0  0.093794  0.146492  0  0.995009  0
H  H37  1  0.80174475  0.44063733  0.75839960  1  0  0.127102  0  0.93589  0  0  0.147624  0  0.994918  0  0  0.149238  0  0.994753  0  0  0.093759  0.146425  0  0.995039  0
H  H38  1  0.30174550  0.05936540  0.25840206  1  0  0.127086  0  0.935932  0  0  0.147622  0  0.994935  0  0  0.149245  0  0.994759  0  0  0.093754  0.146421  0  0.995059  0
H  H39  1  0.19824668  0.55936966  0.24159233  1  0  0.127143  0  0.935831  0  0  0.147658  0  0.994879  0  0  0.149273  0  0.994711  0  0  0.093784  0.146479  0  0.994979  0
H  H40  1  0.66853709  0.76557211  0.70109896  1  0  0.113782  0  0.964884  0  0  0.129397  0  1.036205  0  0  0.131216  0  1.035949  0  0  0.081649  0.127924  0  1.036634  0
H  H41  1  0.83144503  0.26558344  0.79889523  1  0  0.113889  0  0.964966  0  0  0.129521  0  1.036218  0  0  0.131343  0  1.035962  0  0  0.081692  0.128048  0  1.036648  0
H  H42  1  0.33144709  0.23441819  0.29889766  1  0  0.113868  0  0.964996  0  0  0.129499  0  1.03625  0  0  0.131322  0  1.035994  0  0  0.081673  0.128025  0  1.036676  0
H  H43  1  0.16853919  0.73442354  0.20109881  1  0  0.11383  0  0.964874  0  0  0.129441  0  1.036185  0  0  0.131263  0  1.035926  0  0  0.081662  0.127968  0  1.036612  0
C  C44  1  0.40997242  0.84520476  0.78763305  1  0  0.622365  0  3.874109  0  0  0.569335  0  4.171739  0  0  0.603197  0  4.166486  0  0  0.203034  0.54636  0  4.174515  0
C  C45  1  0.09003092  0.34520775  0.71237020  1  0  0.622407  0  3.874101  0  0  0.56933  0  4.171798  0  0  0.60319  0  4.166547  0  0  0.20303  0.546359  0  4.174568  0
C  C46  1  0.59002959  0.15479805  0.21237129  1  0  0.622558  0  3.873938  0  0  0.569483  0  4.171645  0  0  0.603341  0  4.166398  0  0  0.20312  0.546513  0  4.174411  0
C  C47  1  0.90996751  0.65479506  0.28763389  1  0  0.622418  0  3.874164  0  0  0.569347  0  4.171867  0  0  0.603208  0  4.166613  0  0  0.203009  0.546375  0  4.174635  0
C  C48  1  0.83328606  0.46128072  0.06046440  1  0  -0.143368  0  3.755866  0  0  -0.168371  0  4.015021  0  0  -0.171383  0  4.035923  0  0  -0.102606  -0.165916  0  4.000897  0
C  C49  1  0.66671841  0.96128254  0.43954109  1  0  -0.143241  0  3.755787  0  0  -0.168232  0  4.014932  0  0  -0.171242  0  4.035834  0  0  -0.102531  -0.165771  0  4.000799  0
C  C50  1  0.16671002  0.53871166  0.93953693  1  0  -0.143329  0  3.755718  0  0  -0.168333  0  4.014847  0  0  -0.171343  0  4.035753  0  0  -0.102547  -0.165871  0  4.000716  0
C  C51  1  0.33328724  0.03871923  0.56046025  1  0  -0.143272  0  3.755776  0  0  -0.16827  0  4.014899  0  0  -0.171281  0  4.035808  0  0  -0.102529  -0.16581  0  4.000782  0
C  C52  1  0.63383207  0.45820490  0.93026352  1  0  0.102233  0  3.753311  0  0  0.097159  0  3.986799  0  0  0.100713  0  4.010854  0  0  0.102196  0.094628  0  3.970773  0
C  C53  1  0.86617877  0.95820955  0.56973900  1  0  0.102503  0  3.753148  0  0  0.097342  0  3.986719  0  0  0.1009  0  4.010769  0  0  0.102284  0.094808  0  3.970701  0
C  C54  1  0.36616757  0.54179166  0.06974001  1  0  0.10249  0  3.753241  0  0  0.097264  0  3.986882  0  0  0.100819  0  4.010936  0  0  0.102289  0.09473  0  3.970858  0
C  C55  1  0.13383051  0.04179222  0.43025999  1  0  0.102358  0  3.753172  0  0  0.097168  0  3.986764  0  0  0.100718  0  4.010813  0  0  0.102286  0.09464  0  3.970741  0
C  C56  1  0.58073434  0.80508223  0.82486878  1  0  0.129771  0  3.60216  0  0  0.111309  0  3.847224  0  0  0.114456  0  3.855451  0  0  0.010029  0.108554  0  3.841399  0
C  C57  1  0.91926929  0.30508653  0.67512945  1  0  0.129443  0  3.602464  0  0  0.111005  0  3.847504  0  0  0.114151  0  3.85574  0  0  0.010031  0.10825  0  3.841668  0
C  C58  1  0.41926654  0.19491641  0.17513158  1  0  0.129599  0  3.602252  0  0  0.111155  0  3.847306  0  0  0.114304  0  3.855545  0  0  0.010057  0.108398  0  3.841477  0
C  C59  1  0.08073163  0.69491524  0.32486832  1  0  0.129656  0  3.602304  0  0  0.111241  0  3.84733  0  0  0.114385  0  3.855563  0  0  0.010082  0.108485  0  3.841502  0
C  C60  1  0.66471403  0.60316452  0.91812423  1  0  0.211932  0  3.777883  0  0  0.198257  0  4.037332  0  0  0.206949  0  4.054746  0  0  0.086808  0.191967  0  4.025284  0
C  C61  1  0.83529187  0.10317100  0.58187428  1  0  0.211882  0  3.778044  0  0  0.198216  0  4.03751  0  0  0.206908  0  4.054922  0  0  0.086798  0.191922  0  4.025471  0
C  C62  1  0.33528564  0.39683100  0.08187670  1  0  0.211925  0  3.777785  0  0  0.198315  0  4.037222  0  0  0.207008  0  4.054632  0  0  0.086785  0.19203  0  4.025166  0
C  C63  1  0.16471861  0.89683285  0.41812479  1  0  0.211952  0  3.777945  0  0  0.198342  0  4.03735  0  0  0.207052  0  4.05474  0  0  0.086783  0.192044  0  4.025314  0
C  C64  1  0.49780595  0.25547779  0.88304884  1  0  0.153425  0  3.689368  0  0  0.119457  0  3.940624  0  0  0.13083  0  3.955258  0  0  0.055748  0.111986  0  3.931221  0
C  C65  1  0.00220935  0.75548214  0.61695139  1  0  0.153498  0  3.689303  0  0  0.119544  0  3.940528  0  0  0.130897  0  3.955151  0  0  0.055709  0.112085  0  3.931125  0
C  C66  1  0.50219612  0.74451772  0.11695226  1  0  0.153345  0  3.689481  0  0  0.119404  0  3.940732  0  0  0.130744  0  3.955355  0  0  0.055693  0.111944  0  3.931333  0
C  C67  1  0.99779876  0.24452067  0.38304557  1  0  0.153514  0  3.689353  0  0  0.119574  0  3.940602  0  0  0.130919  0  3.955215  0  0  0.05571  0.112114  0  3.931198  0
C  C68  1  0.70027892  0.24028803  0.00674030  1  0  -0.022697  0  3.657197  0  0  -0.050024  0  3.907257  0  0  -0.045408  0  3.922732  0  0  -0.061438  -0.053026  0  3.897782  0
C  C69  1  0.79972307  0.74029297  0.49326192  1  0  -0.022775  0  3.657157  0  0  -0.050124  0  3.907237  0  0  -0.045511  0  3.922712  0  0  -0.061502  -0.053127  0  3.897753  0
C  C70  1  0.29971714  0.75970853  0.99326233  1  0  -0.022665  0  3.657149  0  0  -0.04996  0  3.907174  0  0  -0.045345  0  3.922646  0  0  -0.061436  -0.052957  0  3.897698  0
C  C71  1  0.20028143  0.25970880  0.50673675  1  0  -0.022833  0  3.657254  0  0  -0.050143  0  3.907311  0  0  -0.045526  0  3.922785  0  0  -0.061462  -0.053144  0  3.897833  0
C  C72  1  0.58798941  0.17576985  0.94785222  1  0  -0.122104  0  3.734548  0  0  -0.136694  0  3.994098  0  0  -0.144257  0  4.013157  0  0  -0.088847  -0.132281  0  3.981954  0
C  C73  1  0.91202121  0.67577352  0.55215371  1  0  -0.122005  0  3.734275  0  0  -0.136568  0  3.993837  0  0  -0.144129  0  4.012903  0  0  -0.088808  -0.132158  0  3.98168  0
C  C74  1  0.41201023  0.82422983  0.05215066  1  0  -0.122183  0  3.734573  0  0  -0.136735  0  3.994108  0  0  -0.144297  0  4.013177  0  0  -0.088837  -0.132323  0  3.981957  0
C  C75  1  0.08798563  0.32422825  0.44784836  1  0  -0.12205  0  3.734344  0  0  -0.136602  0  3.993894  0  0  -0.144164  0  4.012961  0  0  -0.088775  -0.132186  0  3.981734  0
C  C76  1  0.72391722  0.38611028  0.00085747  1  0  0.035754  0  3.786996  0  0  0.052444  0  4.01986  0  0  0.049882  0  4.043977  0  0  -0.004625  0.053917  0  4.003902  0
C  C77  1  0.77608129  0.88611520  0.49914377  1  0  0.035748  0  3.787049  0  0  0.052441  0  4.019958  0  0  0.049878  0  4.044075  0  0  -0.004625  0.053914  0  4.003997  0
C  C78  1  0.27608005  0.61388419  0.99914460  1  0  0.035622  0  3.787003  0  0  0.052367  0  4.019863  0  0  0.049802  0  4.04398  0  0  -0.00466  0.053833  0  4.00391  0
C  C79  1  0.22392080  0.11388761  0.50085603  1  0  0.035772  0  3.787111  0  0  0.052496  0  4.019976  0  0  0.049931  0  4.044094  0  0  -0.004659  0.053959  0  4.004032  0
C  C80  1  0.77531521  0.67336984  0.97560558  1  0  -0.182542  0  3.736812  0  0  -0.207824  0  3.998583  0  0  -0.212483  0  4.018436  0  0  -0.102946  -0.20398  0  3.98496  0
C  C81  1  0.72469308  0.17337009  0.52439630  1  0  -0.182475  0  3.737006  0  0  -0.207761  0  3.998726  0  0  -0.212414  0  4.018584  0  0  -0.102946  -0.203908  0  3.985099  0
C  C82  1  0.22468446  0.32662359  0.02439600  1  0  -0.182677  0  3.736897  0  0  -0.207945  0  3.998628  0  0  -0.212604  0  4.018484  0  0  -0.102993  -0.204103  0  3.985028  0
C  C83  1  0.27531258  0.82662959  0.47560504  1  0  -0.182496  0  3.736961  0  0  -0.207797  0  3.998684  0  0  -0.212461  0  4.01853  0  0  -0.102963  -0.203951  0  3.985078  0
C  C84  1  0.85654563  0.60174982  0.04775819  1  0  -0.02558  0  3.775937  0  0  -0.040509  0  4.03286  0  0  -0.04183  0  4.055505  0  0  -0.086755  -0.039816  0  4.017644  0
C  C85  1  0.64346349  0.10175557  0.45224265  1  0  -0.025694  0  3.775882  0  0  -0.040652  0  4.032834  0  0  -0.041969  0  4.055477  0  0  -0.086812  -0.039957  0  4.017628  0
C  C86  1  0.14345761  0.39824256  0.95224493  1  0  -0.025671  0  3.775942  0  0  -0.040565  0  4.032862  0  0  -0.041886  0  4.055508  0  0  -0.086817  -0.039874  0  4.017658  0
C  C87  1  0.35654338  0.89824515  0.54775813  1  0  -0.025684  0  3.775981  0  0  -0.040601  0  4.032919  0  0  -0.041923  0  4.055564  0  0  -0.086798  -0.039922  0  4.017708  0
C  C88  1  0.69972681  0.83002475  0.75956481  1  0  -0.345478  0  3.68122  0  0  -0.431223  0  3.924759  0  0  -0.433857  0  3.932911  0  0  -0.255825  -0.428963  0  3.919338  0
C  C89  1  0.80026733  0.33003303  0.74042887  1  0  -0.345457  0  3.681402  0  0  -0.431241  0  3.925015  0  0  -0.433894  0  3.933142  0  0  -0.255854  -0.428966  0  3.919624  0
C  C90  1  0.30026695  0.16996868  0.24043118  1  0  -0.345469  0  3.68141  0  0  -0.43122  0  3.924972  0  0  -0.433891  0  3.93309  0  0  -0.255817  -0.428943  0  3.919574  0
C  C91  1  0.19972528  0.66997082  0.25956444  1  0  -0.345495  0  3.681223  0  0  -0.431239  0  3.924813  0  0  -0.433884  0  3.93295  0  0  -0.25585  -0.428983  0  3.919398  0
Br  Br92  1  0.48457641  0.52811839  0.61355021  1  0  -0.560328  0  0.909216  0  0  -0.492507  0  1.195641  0  0  -0.513474  0  1.173501  0  0  -0.286362  -0.476498  0  1.210987  0
Br  Br93  1  0.01540058  0.02809600  0.88644170  1  0  -0.560347  0  0.909125  0  0  -0.492529  0  1.195548  0  0  -0.513495  0  1.1734  0  0  -0.286359  -0.476503  0  1.210885  0
Br  Br94  1  0.51541367  0.47190529  0.38645202  1  0  -0.56033  0  0.909206  0  0  -0.492523  0  1.195643  0  0  -0.513487  0  1.173493  0  0  -0.286347  -0.476517  0  1.211003  0
Br  Br95  1  0.98456576  0.97189951  0.11354721  1  0  -0.560356  0  0.909214  0  0  -0.492528  0  1.19562  0  0  -0.513491  0  1.173474  0  0  -0.286357  -0.476528  0  1.210982  0
N  N96  1  0.52067469  0.39171924  0.87384548  1  0  -0.366208  0  3.287095  0  0  -0.286696  0  3.550869  0  0  -0.309072  0  3.570987  0  0  -0.331015  -0.27153  0  3.537019  0
N  N97  1  0.97933853  0.89172282  0.62615530  1  0  -0.366478  0  3.287281  0  0  -0.28687  0  3.550994  0  0  -0.30925  0  3.571116  0  0  -0.33105  -0.271706  0  3.537146  0
N  N98  1  0.47932378  0.60827732  0.12615602  1  0  -0.366256  0  3.287139  0  0  -0.286684  0  3.550934  0  0  -0.309064  0  3.571067  0  0  -0.330978  -0.271519  0  3.537082  0
N  N99  1  0.02067077  0.10827999  0.37384240  1  0  -0.36632  0  3.28711  0  0  -0.286742  0  3.550877  0  0  -0.309123  0  3.571009  0  0  -0.331021  -0.271579  0  3.537027  0
O  O100  1  0.38924094  0.97503223  0.77304276  1  0  -0.607887  0  2.016013  0  0  -0.534499  0  2.261737  0  0  -0.565574  0  2.253396  0  0  -0.318495  -0.512439  0  2.266456  0
O  O101  1  0.11076127  0.47503520  0.72696164  1  0  -0.607865  0  2.016044  0  0  -0.534447  0  2.261767  0  0  -0.565528  0  2.253438  0  0  -0.318482  -0.512384  0  2.266475  0
O  O102  1  0.61076228  0.02497059  0.22696167  1  0  -0.607943  0  2.015967  0  0  -0.534532  0  2.261702  0  0  -0.565614  0  2.25338  0  0  -0.31852  -0.512469  0  2.26641  0
O  O103  1  0.88923356  0.52497074  0.27304351  1  0  -0.607821  0  2.016157  0  0  -0.534398  0  2.261865  0  0  -0.565488  0  2.253558  0  0  -0.31844  -0.512337  0  2.266573  0
O  O104  1  0.57658367  0.65930796  0.84695641  1  0  -0.327428  0  2.516997  0  0  -0.237462  0  2.747427  0  0  -0.260286  0  2.753907  0  0  -0.177146  -0.221553  0  2.742405  0
O  O105  1  0.92342103  0.15931542  0.65304458  1  0  -0.327438  0  2.517005  0  0  -0.237477  0  2.747432  0  0  -0.260301  0  2.753911  0  0  -0.177165  -0.221561  0  2.742402  0
O  O106  1  0.42341480  0.34068860  0.15304509  1  0  -0.327515  0  2.517022  0  0  -0.237564  0  2.747444  0  0  -0.260386  0  2.753915  0  0  -0.177182  -0.221649  0  2.742409  0
O  O107  1  0.07658703  0.84068844  0.34695563  1  0  -0.327514  0  2.517047  0  0  -0.23757  0  2.747466  0  0  -0.260393  0  2.753927  0  0  -0.177202  -0.22165  0  2.742435  0
O  O108  1  0.30156308  0.75362331  0.77353194  1  0  -0.625553  0  2.030118  0  0  -0.558842  0  2.285357  0  0  -0.587965  0  2.274715  0  0  -0.316834  -0.538421  0  2.292014  0
O  O109  1  0.19843785  0.25362843  0.72646925  1  0  -0.625504  0  2.030151  0  0  -0.55879  0  2.285412  0  0  -0.58791  0  2.274767  0  0  -0.316813  -0.538373  0  2.292072  0
O  O110  1  0.69843415  0.24637950  0.22647272  1  0  -0.625537  0  2.030063  0  0  -0.558841  0  2.285354  0  0  -0.58796  0  2.274714  0  0  -0.31686  -0.538421  0  2.292008  0
O  O111  1  0.80155939  0.74637960  0.27353476  1  0  -0.625598  0  2.030073  0  0  -0.558907  0  2.285369  0  0  -0.588029  0  2.274726  0  0  -0.316843  -0.538487  0  2.292026  0
