# generated using pymatgen
data_SnH4C4O5
_symmetry_space_group_name_H-M   'P 1'
_cell_length_a   5.19617720
_cell_length_b   7.40935248
_cell_length_c   16.94868130
_cell_angle_alpha   89.99919926
_cell_angle_beta   90.00089767
_cell_angle_gamma   89.99933316
_symmetry_Int_Tables_number   1
_chemical_formula_structural   SnH4C4O5
_chemical_formula_sum   'Sn4 H16 C16 O20'
_cell_volume   652.52945650
_cell_formula_units_Z   4
loop_
 _symmetry_equiv_pos_site_id
 _symmetry_equiv_pos_as_xyz
  1  'x, y, z'
loop_
 _atom_site_type_symbol
 _atom_site_label
 _atom_site_symmetry_multiplicity
 _atom_site_fract_x
 _atom_site_fract_y
 _atom_site_fract_z
 _atom_site_occupancy
 _atom_site_hle17_bader_spin_density
 _atom_site_hle17_ddec_charge
 _atom_site_hle17_ddec_spin_density
 _atom_site_hle17_ddec_sum_bond_order
 _atom_site_hle17_magmom
 _atom_site_hse06_10hf_bader_spin_density
 _atom_site_hse06_10hf_ddec_charge
 _atom_site_hse06_10hf_ddec_spin_density
 _atom_site_hse06_10hf_ddec_sum_bond_order
 _atom_site_hse06_10hf_magmom
 _atom_site_hse06_bader_spin_density
 _atom_site_hse06_ddec_charge
 _atom_site_hse06_ddec_spin_density
 _atom_site_hse06_ddec_sum_bond_order
 _atom_site_hse06_magmom
 _atom_site_pbe_bader_spin_density
 _atom_site_pbe_cm5_charge
 _atom_site_pbe_ddec_charge
 _atom_site_pbe_ddec_spin_density
 _atom_site_pbe_ddec_sum_bond_order
 _atom_site_pbe_magmom
Sn  Sn0  1  0.63990110  0.24368376  0.59537336  1  0  1.149574  0  1.763302  0  0  0.959622  0  2.205854  0  0  1.004721  0  2.174582  0  0  0.543032  0.927265  0  2.227907  0
Sn  Sn1  1  0.63988379  0.74367519  0.90463073  1  0  1.149725  0  1.763275  0  0  0.959693  0  2.205811  0  0  1.004846  0  2.174532  0  0  0.543057  0.927315  0  2.227905  0
Sn  Sn2  1  0.36012096  0.24365390  0.09538453  1  0  1.149744  0  1.763232  0  0  0.959687  0  2.205731  0  0  1.00487  0  2.174462  0  0  0.543069  0.927266  0  2.227899  0
Sn  Sn3  1  0.36011712  0.74366152  0.40462184  1  0  1.149588  0  1.76332  0  0  0.959685  0  2.205883  0  0  1.004797  0  2.174582  0  0  0.543042  0.92729  0  2.228  0
H  H4  1  0.91850381  0.95939310  0.66835513  1  0  0.41406  0  0.901189  0  0  0.381116  0  0.968572  0  0  0.392571  0  0.952323  0  0  0.28531  0.373084  0  0.979925  0
H  H5  1  0.91851794  0.45939129  0.83164544  1  0  0.413978  0  0.901303  0  0  0.381116  0  0.968566  0  0  0.392573  0  0.952312  0  0  0.285317  0.373084  0  0.979919  0
H  H6  1  0.08148516  0.95939386  0.16835613  1  0  0.414019  0  0.90124  0  0  0.381164  0  0.968496  0  0  0.392622  0  0.952242  0  0  0.285335  0.373133  0  0.979847  0
H  H7  1  0.08148968  0.45938665  0.33164586  1  0  0.414037  0  0.901222  0  0  0.381096  0  0.96859  0  0  0.39255  0  0.952341  0  0  0.285325  0.373065  0  0.979942  0
H  H8  1  0.02642092  0.92790558  0.57832782  1  0  0.442281  0  0.846989  0  0  0.408788  0  0.91142  0  0  0.420593  0  0.89434  0  0  0.301427  0.40042  0  0.923512  0
H  H9  1  0.02642624  0.42790219  0.92167166  1  0  0.442257  0  0.847016  0  0  0.408709  0  0.911525  0  0  0.420548  0  0.894398  0  0  0.301398  0.400341  0  0.923616  0
H  H10  1  0.97357931  0.92790849  0.07832715  1  0  0.442305  0  0.846944  0  0  0.408772  0  0.911429  0  0  0.420602  0  0.894313  0  0  0.301434  0.400407  0  0.923515  0
H  H11  1  0.97357501  0.42790510  0.42167336  1  0  0.442186  0  0.847114  0  0  0.408684  0  0.911558  0  0  0.420489  0  0.894478  0  0  0.301402  0.400316  0  0.923648  0
H  H12  1  0.47177423  0.25222809  0.32253873  1  0  0.137955  0  0.931288  0  0  0.149677  0  0.9879  0  0  0.153615  0  0.985157  0  0  0.119452  0.146852  0  0.990056  0
H  H13  1  0.47176826  0.75222421  0.17745809  1  0  0.137963  0  0.931283  0  0  0.149668  0  0.98793  0  0  0.153608  0  0.985186  0  0  0.119429  0.146843  0  0.990086  0
H  H14  1  0.52822673  0.25223053  0.82255063  1  0  0.137984  0  0.931194  0  0  0.149693  0  0.987791  0  0  0.153633  0  0.985053  0  0  0.11942  0.146872  0  0.989943  0
H  H15  1  0.52822461  0.75221855  0.67745111  1  0  0.137995  0  0.93122  0  0  0.149645  0  0.987927  0  0  0.153587  0  0.98519  0  0  0.11939  0.146822  0  0.990084  0
H  H16  1  0.74172725  0.09936363  0.22709052  1  0  0.096819  0  1.000193  0  0  0.10066  0  1.076456  0  0  0.10331  0  1.077281  0  0  0.101524  0.098712  0  1.076192  0
H  H17  1  0.74171853  0.59934855  0.27291087  1  0  0.096819  0  1.00013  0  0  0.100652  0  1.076394  0  0  0.103305  0  1.077218  0  0  0.101524  0.098697  0  1.076136  0
H  H18  1  0.25827515  0.09938312  0.72709228  1  0  0.096836  0  1.000112  0  0  0.100697  0  1.076349  0  0  0.10336  0  1.077137  0  0  0.101583  0.098729  0  1.076105  0
H  H19  1  0.25828951  0.59937614  0.77290968  1  0  0.096827  0  1.000184  0  0  0.100699  0  1.076411  0  0  0.103368  0  1.077184  0  0  0.101563  0.098731  0  1.076166  0
C  C20  1  0.64872141  0.14932189  0.43047470  1  0  0.704887  0  3.846227  0  0  0.649648  0  4.138678  0  0  0.686421  0  4.126732  0  0  0.234354  0.624547  0  4.146057  0
C  C21  1  0.64871371  0.64931476  0.06952240  1  0  0.705054  0  3.846178  0  0  0.649638  0  4.138847  0  0  0.686459  0  4.126874  0  0  0.234457  0.624547  0  4.146206  0
C  C22  1  0.35127528  0.14931902  0.93048340  1  0  0.705003  0  3.845882  0  0  0.649634  0  4.138461  0  0  0.686465  0  4.126493  0  0  0.234482  0.624542  0  4.145815  0
C  C23  1  0.35125988  0.64932810  0.56951753  1  0  0.705058  0  3.845852  0  0  0.649867  0  4.138237  0  0  0.686619  0  4.126329  0  0  0.234499  0.624777  0  4.145599  0
C  C24  1  0.62978394  0.16632352  0.34295334  1  0  -0.143556  0  3.625947  0  0  -0.165779  0  3.884742  0  0  -0.167037  0  3.894676  0  0  -0.067867  -0.165063  0  3.878201  0
C  C25  1  0.62977499  0.66632030  0.15704593  1  0  -0.143635  0  3.626086  0  0  -0.165883  0  3.885016  0  0  -0.167132  0  3.894932  0  0  -0.067886  -0.165167  0  3.878466  0
C  C26  1  0.37022142  0.16632725  0.84296213  1  0  -0.143586  0  3.626017  0  0  -0.165862  0  3.884987  0  0  -0.16711  0  3.894904  0  0  -0.067878  -0.165152  0  3.878446  0
C  C27  1  0.37021632  0.66631863  0.65703879  1  0  -0.143518  0  3.625838  0  0  -0.165742  0  3.884744  0  0  -0.16702  0  3.894719  0  0  -0.067784  -0.165032  0  3.878203  0
C  C28  1  0.77675094  0.08050387  0.28996988  1  0  -0.20136  0  3.717446  0  0  -0.217636  0  3.974456  0  0  -0.225499  0  3.990563  0  0  -0.093829  -0.212555  0  3.963736  0
C  C29  1  0.77674665  0.58050432  0.21002824  1  0  -0.201326  0  3.717474  0  0  -0.217565  0  3.974474  0  0  -0.225432  0  3.990588  0  0  -0.093814  -0.21248  0  3.963756  0
C  C30  1  0.22324925  0.08051960  0.78997384  1  0  -0.201387  0  3.7176  0  0  -0.217673  0  3.974567  0  0  -0.225528  0  3.990677  0  0  -0.09385  -0.212582  0  3.963875  0
C  C31  1  0.22324112  0.58051735  0.71003102  1  0  -0.201397  0  3.717465  0  0  -0.217694  0  3.974437  0  0  -0.225548  0  3.990562  0  0  -0.093855  -0.212599  0  3.963745  0
C  C32  1  0.99328417  0.95953087  0.31117118  1  0  0.672516  0  3.892401  0  0  0.626239  0  4.174562  0  0  0.661182  0  4.166568  0  0  0.215721  0.602655  0  4.179076  0
C  C33  1  0.99327937  0.45953505  0.18882511  1  0  0.67275  0  3.892178  0  0  0.626378  0  4.174377  0  0  0.661322  0  4.166384  0  0  0.215783  0.602796  0  4.178888  0
C  C34  1  0.00671989  0.95954702  0.81117588  1  0  0.672688  0  3.89245  0  0  0.626358  0  4.174587  0  0  0.661302  0  4.166598  0  0  0.215725  0.602771  0  4.17911  0
C  C35  1  0.00672086  0.45954580  0.68882686  1  0  0.67255  0  3.892728  0  0  0.626289  0  4.17483  0  0  0.66123  0  4.16684  0  0  0.215684  0.6027  0  4.179357  0
O  O36  1  0.79094143  0.26096471  0.46928716  1  0  -0.57945  0  2.012537  0  0  -0.490318  0  2.227238  0  0  -0.519522  0  2.217882  0  0  -0.25511  -0.469979  0  2.23326  0
O  O37  1  0.79094327  0.76095480  0.03071172  1  0  -0.579647  0  2.012652  0  0  -0.490293  0  2.227273  0  0  -0.519676  0  2.218077  0  0  -0.255185  -0.469956  0  2.233294  0
O  O38  1  0.20906312  0.26096436  0.96929577  1  0  -0.57968  0  2.012453  0  0  -0.490289  0  2.227003  0  0  -0.519743  0  2.217878  0  0  -0.255193  -0.469933  0  2.233005  0
O  O39  1  0.20903609  0.76097469  0.53070794  1  0  -0.579503  0  2.012235  0  0  -0.490456  0  2.226988  0  0  -0.519636  0  2.217619  0  0  -0.255175  -0.470113  0  2.232996  0
O  O40  1  0.50464424  0.03772376  0.46534820  1  0  -0.616328  0  2.036838  0  0  -0.542554  0  2.271871  0  0  -0.572414  0  2.265283  0  0  -0.262432  -0.521426  0  2.275673  0
O  O41  1  0.50465398  0.53771373  0.03464771  1  0  -0.616311  0  2.036787  0  0  -0.542544  0  2.271968  0  0  -0.572373  0  2.265324  0  0  -0.26244  -0.521414  0  2.275764  0
O  O42  1  0.49533301  0.03770487  0.96535817  1  0  -0.616322  0  2.036834  0  0  -0.54256  0  2.271967  0  0  -0.572387  0  2.265327  0  0  -0.26245  -0.521429  0  2.27576  0
O  O43  1  0.49534275  0.53773803  0.53463821  1  0  -0.616446  0  2.036757  0  0  -0.542669  0  2.271816  0  0  -0.572524  0  2.265243  0  0  -0.262456  -0.521542  0  2.275606  0
O  O44  1  0.01963023  0.91955850  0.38481188  1  0  -0.594252  0  2.044797  0  0  -0.51466  0  2.278649  0  0  -0.543047  0  2.272245  0  0  -0.270093  -0.495031  0  2.28261  0
O  O45  1  0.01962162  0.41956777  0.11518474  1  0  -0.594547  0  2.044781  0  0  -0.514752  0  2.278511  0  0  -0.543127  0  2.272078  0  0  -0.270178  -0.495122  0  2.282474  0
O  O46  1  0.98037637  0.91958018  0.88481590  1  0  -0.5945  0  2.044856  0  0  -0.514741  0  2.278587  0  0  -0.543117  0  2.272157  0  0  -0.270163  -0.495108  0  2.282551  0
O  O47  1  0.98039663  0.41958271  0.61518462  1  0  -0.594371  0  2.044929  0  0  -0.514726  0  2.278704  0  0  -0.54311  0  2.272299  0  0  -0.270133  -0.495092  0  2.282661  0
O  O48  1  0.14111642  0.89952998  0.25768730  1  0  -0.638806  0  1.985828  0  0  -0.574896  0  2.204794  0  0  -0.602406  0  2.198622  0  0  -0.300217  -0.555659  0  2.208502  0
O  O49  1  0.14111054  0.39953647  0.24231061  1  0  -0.638872  0  1.985788  0  0  -0.574918  0  2.204762  0  0  -0.602427  0  2.198591  0  0  -0.300193  -0.55568  0  2.20847  0
O  O50  1  0.85888971  0.89954726  0.75768896  1  0  -0.638819  0  1.985719  0  0  -0.574857  0  2.204654  0  0  -0.602369  0  2.198487  0  0  -0.300157  -0.555623  0  2.20837  0
O  O51  1  0.85888960  0.39953485  0.74230638  1  0  -0.638749  0  1.985824  0  0  -0.574847  0  2.204775  0  0  -0.602359  0  2.198607  0  0  -0.300172  -0.555618  0  2.208491  0
O  O52  1  0.94115187  0.01555298  0.61428361  1  0  -0.844328  0  1.921068  0  0  -0.76993  0  2.124222  0  0  -0.792529  0  2.092431  0  0  -0.551314  -0.753824  0  2.146362  0
O  O53  1  0.94116629  0.51555042  0.88571561  1  0  -0.844242  0  1.921176  0  0  -0.769912  0  2.124339  0  0  -0.792501  0  2.092484  0  0  -0.551288  -0.753804  0  2.146481  0
O  O54  1  0.05884224  0.01555257  0.11428391  1  0  -0.84429  0  1.921113  0  0  -0.769974  0  2.124266  0  0  -0.792561  0  2.092421  0  0  -0.551323  -0.753866  0  2.146416  0
O  O55  1  0.05884897  0.51554461  0.38571710  1  0  -0.844229  0  1.921245  0  0  -0.769839  0  2.124445  0  0  -0.792435  0  2.092656  0  0  -0.551302  -0.753731  0  2.146582  0
