# generated using pymatgen
data_NiH4C16S2N3O5F12
_symmetry_space_group_name_H-M   'P 1'
_cell_length_a   8.20146213
_cell_length_b   12.33297124
_cell_length_c   12.35707363
_cell_angle_alpha   70.93360741
_cell_angle_beta   88.93500065
_cell_angle_gamma   70.97536503
_symmetry_Int_Tables_number   1
_chemical_formula_structural   NiH4C16S2N3O5F12
_chemical_formula_sum   'Ni2 H8 C32 S4 N6 O10 F24'
_cell_volume   1111.38675866
_cell_formula_units_Z   2
loop_
 _symmetry_equiv_pos_site_id
 _symmetry_equiv_pos_as_xyz
  1  'x, y, z'
loop_
 _atom_site_type_symbol
 _atom_site_label
 _atom_site_symmetry_multiplicity
 _atom_site_fract_x
 _atom_site_fract_y
 _atom_site_fract_z
 _atom_site_occupancy
 _atom_site_hle17_ddec_charge
 _atom_site_hle17_ddec_spin_density
 _atom_site_hle17_ddec_sum_bond_order
 _atom_site_hle17_magmom
 _atom_site_hse06_10hf_ddec_charge
 _atom_site_hse06_10hf_ddec_spin_density
 _atom_site_hse06_10hf_ddec_sum_bond_order
 _atom_site_hse06_10hf_magmom
 _atom_site_hse06_ddec_charge
 _atom_site_hse06_ddec_spin_density
 _atom_site_hse06_ddec_sum_bond_order
 _atom_site_hse06_magmom
 _atom_site_pbe_cm5_charge
 _atom_site_pbe_ddec_charge
 _atom_site_pbe_ddec_spin_density
 _atom_site_pbe_ddec_sum_bond_order
 _atom_site_pbe_magmom
Ni  Ni0  1  0.00000109  0.00000128  0.99999990  1  0.890333  -1.847152  1.959657  -1.47  0.929186  -1.881668  2.343409  -1.628  1.01754  -1.944379  2.272953  -1.725  0.639603  0.854058  -1.811474  2.406229  -1.528
Ni  Ni1  1  0.00000063  0.49999975  0.50000074  1  0.949027  1.891888  2.14177  1.523  0.967003  1.876554  2.545109  1.619  1.038644  1.935689  2.479299  1.71  0.711628  0.914286  1.816906  2.594935  1.534
H  H2  1  0.47007747  0.71580842  0.50457797  1  0.152452  0.000223  0.932204  0.0  0.158201  3.4e-05  0.994008  0.0  0.162575  1.9e-05  0.990096  0.0  0.117725  0.15481  5.9e-05  0.997194  0.0
H  H3  1  0.52992067  0.28418877  0.49542027  1  0.152449  0.000231  0.932264  0.0  0.158197  3.4e-05  0.994058  0.0  0.162577  1.9e-05  0.990141  0.0  0.117743  0.154802  5.7e-05  0.997243  0.0
H  H4  1  0.56972192  0.89844259  0.36054682  1  0.151079  -0.000117  0.944473  0.0  0.156265  2.7e-05  1.007094  0.0  0.160347  1.9e-05  1.004128  0.0  0.113249  0.153179  3.6e-05  1.009535  0.0
H  H5  1  0.43027698  0.10155551  0.63945516  1  0.151072  -0.000113  0.944483  0.0  0.156274  2.7e-05  1.007084  0.0  0.160356  1.8e-05  1.004119  0.0  0.113253  0.153191  3.6e-05  1.009529  0.0
H  H6  1  0.24941865  0.72034893  0.84361486  1  0.144315  0.000193  0.984851  0.0  0.146641  8.3e-05  1.057445  0.0  0.151599  7.2e-05  1.056741  0.0  0.096884  0.14286  8.1e-05  1.058546  0.0
H  H7  1  0.75058380  0.27965192  0.15638457  1  0.144338  0.000192  0.984791  0.0  0.146664  8.3e-05  1.057381  0.0  0.151622  7.2e-05  1.056676  0.0  0.096894  0.142886  8e-05  1.058482  0.0
H  H8  1  0.90178631  0.35680194  0.23773374  1  0.132725  -0.000264  0.99612  0.0  0.130607  -9.9e-05  1.077707  0.0  0.134876  -8.3e-05  1.07813  0.0  0.091366  0.127826  -0.00011  1.077285  0.0
H  H9  1  0.09821369  0.64319891  0.76226815  1  0.132713  -0.00026  0.996145  0.0  0.13059  -9.9e-05  1.077737  0.0  0.13486  -8.3e-05  1.07816  0.0  0.091353  0.127806  -0.000109  1.077318  0.0
C  C10  1  0.35587041  0.00883520  0.13324698  1  0.314971  0.006086  3.900827  0.009  0.290435  -0.000325  4.18971  0.0  0.307956  -6.4e-05  4.203513  0.0  0.217945  0.277998  -0.000393  4.179687  0.0
C  C11  1  0.64413215  0.99116291  0.86675253  1  0.315058  0.006091  3.900546  0.009  0.290475  -0.000328  4.189529  0.0  0.30798  -6.8e-05  4.203346  0.0  0.217963  0.278056  -0.000396  4.179491  0.0
C  C12  1  0.36152115  0.91304559  0.24070220  1  0.163039  -0.009102  3.683186  -0.01  0.145437  -0.002032  3.961456  -0.002  0.151752  -0.002224  3.975491  -0.003  0.086668  0.140799  -0.002146  3.952535  -0.002
C  C13  1  0.63848352  0.08695071  0.75929545  1  0.163158  -0.009097  3.682867  -0.01  0.145513  -0.002033  3.961242  -0.002  0.15184  -0.002225  3.975271  -0.003  0.08668  0.140865  -0.002139  3.952324  -0.002
C  C14  1  0.27962068  0.76808360  0.35665516  1  0.160113  0.009886  3.800979  0.013  0.14302  0.002292  4.078673  0.004  0.14681  0.002567  4.08908  0.004  0.085918  0.140371  0.002277  4.07258  0.004
C  C15  1  0.72037946  0.23191451  0.64334275  1  0.160169  0.009885  3.801001  0.013  0.143088  0.002292  4.078656  0.004  0.146874  0.002566  4.08907  0.004  0.085948  0.140439  0.002283  4.072563  0.004
C  C16  1  0.41457944  0.77366823  0.41768891  1  -0.105866  -0.009121  3.659569  -0.01  -0.14301  -0.002186  3.929919  -0.002  -0.140198  -0.002422  3.94185  -0.003  -0.078442  -0.145065  -0.002241  3.922426  -0.002
C  C17  1  0.58541659  0.22633078  0.58231038  1  -0.105913  -0.009144  3.659611  -0.01  -0.143059  -0.002187  3.929987  -0.002  -0.140248  -0.002423  3.941909  -0.003  -0.078446  -0.145102  -0.00224  3.922493  -0.002
C  C18  1  0.46695609  0.86773391  0.34267682  1  -0.123535  0.006883  3.649058  0.008  -0.159988  0.000976  3.920234  0.001  -0.162534  0.001228  3.935028  0.002  -0.089381  -0.15835  0.000985  3.910762  0.001
C  C19  1  0.53304359  0.13226511  0.65732323  1  -0.123542  0.006882  3.649021  0.008  -0.160013  0.000975  3.920258  0.001  -0.162554  0.001228  3.935034  0.002  -0.089401  -0.158388  0.000969  3.9108  0.001
C  C20  1  0.17500342  0.69509184  0.38605711  1  0.321887  -0.020874  3.686114  -0.02  0.302395  -0.004446  3.961231  -0.001  0.322245  -0.005145  3.96984  -0.003  0.224348  0.28764  -0.004058  3.956977  0.0
C  C21  1  0.82499484  0.30490262  0.61393959  1  0.321847  -0.020886  3.685977  -0.02  0.302345  -0.004446  3.9611  -0.001  0.322199  -0.005147  3.96971  -0.003  0.224234  0.287583  -0.004062  3.956842  0.0
C  C22  1  0.14655976  0.91263499  0.81490172  1  0.281433  0.009064  3.805502  0.013  0.266976  0.00151  4.080589  0.004  0.293599  0.001223  4.085079  0.003  0.11118  0.247158  0.001883  4.07837  0.005
C  C23  1  0.85344556  0.08736496  0.18509878  1  0.281483  0.009067  3.80547  0.013  0.267012  0.001509  4.080596  0.004  0.293635  0.001223  4.085084  0.003  0.111208  0.247205  0.001846  4.078385  0.005
C  C24  1  0.19299011  0.78924832  0.88291391  1  -0.352892  -0.00372  3.755533  -0.006  -0.402517  -0.000769  4.034067  -0.002  -0.426941  9.2e-05  4.053568  -0.001  -0.158081  -0.386153  -0.002054  4.022595  -0.004
C  C25  1  0.80701278  0.21075163  0.11708662  1  -0.35292  -0.003726  3.755445  -0.006  -0.402537  -0.000769  4.033978  -0.002  -0.426949  9.2e-05  4.053492  -0.001  -0.158083  -0.386174  -0.00205  4.022509  -0.004
C  C26  1  0.15791035  0.75262660  0.99831673  1  0.272221  0.0093  3.817805  0.013  0.260953  0.001532  4.089417  0.004  0.287751  0.001242  4.093557  0.003  0.108884  0.240878  0.001878  4.087477  0.005
C  C27  1  0.84209253  0.24737334  0.00168380  1  0.272214  0.009304  3.817863  0.013  0.260973  0.001532  4.089492  0.004  0.287735  0.001242  4.093688  0.003  0.108882  0.240892  0.001894  4.087541  0.005
C  C28  1  0.15573924  0.94380687  0.68369787  1  0.72218  -0.006153  3.627496  -0.008  0.645289  -0.004045  3.97104  -0.006  0.67385  -0.002793  3.942329  -0.004  0.299506  0.624998  -0.005299  3.992169  -0.007
C  C29  1  0.84426320  0.05619399  0.31630155  1  0.722271  -0.006145  3.627429  -0.008  0.645289  -0.004045  3.971125  -0.006  0.673858  -0.002793  3.942403  -0.004  0.299533  0.625002  -0.005296  3.992255  -0.007
C  C30  1  0.17602696  0.61734636  0.05763052  1  0.720824  -0.006067  3.636349  -0.008  0.643421  -0.003963  3.979364  -0.006  0.671122  -0.002748  3.951992  -0.004  0.294991  0.623631  -0.00515  3.999876  -0.007
C  C31  1  0.82397427  0.38265449  0.94236973  1  0.720789  -0.006079  3.636572  -0.008  0.643235  -0.003965  3.979827  -0.006  0.670948  -0.002749  3.952454  -0.004  0.294958  0.623464  -0.005158  4.000301  -0.007
C  C32  1  0.10074101  0.35652155  0.34758113  1  0.284792  -0.008948  3.816342  -0.014  0.267054  -0.001927  4.097216  -0.005  0.292528  -0.001696  4.103208  -0.004  0.115373  0.249264  -0.002034  4.092513  -0.006
C  C33  1  0.89925866  0.64347747  0.65242135  1  0.284843  -0.008954  3.816425  -0.014  0.267118  -0.001928  4.09725  -0.005  0.292598  -0.001698  4.103236  -0.004  0.115366  0.249329  -0.002035  4.092553  -0.006
C  C34  1  0.92974459  0.39781583  0.29723371  1  -0.348439  0.00393  3.768614  0.007  -0.402902  0.00103  4.056917  0.003  -0.427776  0.000206  4.079145  0.001  -0.158228  -0.385879  0.002092  4.041481  0.004
C  C35  1  0.07025463  0.60218411  0.70276848  1  -0.348406  0.003924  3.768687  0.007  -0.4029  0.001031  4.056956  0.003  -0.427754  0.000207  4.079203  0.001  -0.158198  -0.385872  0.002085  4.041525  0.004
C  C36  1  0.79503965  0.49026109  0.31884963  1  0.265168  -0.009355  3.848475  -0.013  0.250882  -0.001764  4.126886  -0.004  0.275174  -0.001545  4.134893  -0.003  0.106088  0.233771  -0.00181  4.121012  -0.005
C  C37  1  0.20495913  0.50973976  0.68115146  1  0.265199  -0.009362  3.848581  -0.013  0.250996  -0.001765  4.126864  -0.004  0.275223  -0.001546  4.134972  -0.003  0.106116  0.233873  -0.001813  4.120989  -0.005
C  C38  1  0.23953660  0.26038035  0.30912090  1  0.719963  0.007131  3.628089  0.009  0.645073  0.004455  3.969457  0.006  0.672123  0.002977  3.943231  0.004  0.298767  0.625701  0.006015  3.988741  0.008
C  C39  1  0.76046352  0.73961776  0.69088107  1  0.719848  0.00713  3.6283  0.009  0.644965  0.004455  3.969641  0.006  0.672009  0.002977  3.94343  0.004  0.298752  0.625596  0.006019  3.988922  0.008
C  C40  1  0.61006759  0.51882211  0.26756051  1  0.719766  0.006784  3.626238  0.009  0.638112  0.004326  3.975525  0.006  0.666288  0.002916  3.948191  0.004  0.298708  0.617915  0.005778  3.995744  0.008
C  C41  1  0.38993120  0.48117873  0.73243896  1  0.719742  0.00679  3.626256  0.009  0.638066  0.004326  3.975557  0.006  0.66626  0.002916  3.948231  0.004  0.298707  0.617888  0.005768  3.995723  0.008
S  S42  1  0.27418065  0.13882493  0.92268005  1  0.294888  -0.010359  2.507414  -0.01  0.270051  -0.00113  2.882305  -0.001  0.280177  -0.000225  2.88582  0.0  0.233828  0.263435  -0.003676  2.879521  -0.003
S  S43  1  0.72581936  0.86117592  0.07732021  1  0.294884  -0.010364  2.50747  -0.01  0.270047  -0.001116  2.882362  -0.001  0.280173  -0.0002  2.885876  0.0  0.233812  0.263419  -0.00369  2.879578  -0.003
S  S44  1  0.46220174  0.17296658  0.00936425  1  0.274754  -0.013241  2.582477  -0.014  0.243474  -0.004211  2.968051  -0.005  0.252352  -0.00244  2.969881  -0.003  0.225456  0.237398  -0.007478  2.967195  -0.008
S  S45  1  0.53779993  0.82703336  0.99063630  1  0.274761  -0.013252  2.582504  -0.014  0.243481  -0.004197  2.968081  -0.005  0.252361  -0.002415  2.969909  -0.003  0.225465  0.237417  -0.007494  2.967221  -0.008
N  N46  1  0.24963395  0.03318553  0.03917476  1  -0.421355  -0.04374  3.039948  -0.061  -0.403045  -0.027383  3.35983  -0.04  -0.429784  -0.021243  3.376456  -0.032  -0.310331  -0.380944  -0.033396  3.346098  -0.047
N  N47  1  0.75036651  0.96681440  0.96082580  1  -0.421382  -0.043741  3.039875  -0.061  -0.403052  -0.027372  3.359771  -0.04  -0.429789  -0.021224  3.376415  -0.032  -0.310314  -0.380953  -0.033368  3.346038  -0.047
N  N48  1  0.47063157  0.06576542  0.12991696  1  -0.386562  -0.014702  3.005043  -0.019  -0.360781  -0.00236  3.311102  -0.003  -0.377611  -0.00144  3.325657  -0.002  -0.308338  -0.348065  -0.004521  3.300388  -0.006
N  N49  1  0.52937055  0.93423361  0.87008388  1  -0.386606  -0.0147  3.005066  -0.019  -0.36081  -0.002351  3.311165  -0.003  -0.377636  -0.001424  3.325727  -0.002  -0.308341  -0.3481  -0.004514  3.300449  -0.006
N  N50  1  0.09056649  0.63267518  0.41491476  1  -0.369818  0.05646  2.924425  0.077  -0.35072  0.034469  3.201214  0.047  -0.369314  0.030351  3.203355  0.042  -0.306142  -0.338849  0.038333  3.201542  0.051
N  N51  1  0.90943386  0.36732750  0.58508329  1  -0.369807  0.056476  2.924147  0.077  -0.350698  0.034472  3.20093  0.047  -0.369294  0.030355  3.203074  0.042  -0.306076  -0.338834  0.038333  3.201258  0.051
O  O52  1  0.24763527  0.85242168  0.24786165  1  -0.173667  -0.000347  2.438064  -0.001  -0.105557  -0.000107  2.66197  -0.001  -0.121941  1e-06  2.670498  0.0  -0.092912  -0.09436  -0.000253  2.656086  -0.001
O  O53  1  0.75236531  0.14757552  0.75213494  1  -0.173764  -0.000351  2.438053  -0.001  -0.105604  -0.000107  2.661924  -0.001  -0.121993  0.0  2.670459  0.0  -0.092932  -0.094409  -0.000252  2.656042  -0.001
O  O54  1  0.08345668  0.00520103  0.84550856  1  -0.449917  -0.049874  2.203787  -0.074  -0.437614  -0.034337  2.482461  -0.055  -0.471084  -0.02599  2.476333  -0.042  -0.276313  -0.411883  -0.041888  2.486133  -0.065
O  O55  1  0.91654698  0.99479983  0.15449086  1  -0.449989  -0.049875  2.203892  -0.074  -0.437636  -0.034339  2.482525  -0.055  -0.471103  -0.025991  2.476391  -0.042  -0.276336  -0.411902  -0.04189  2.486202  -0.065
O  O56  1  0.10032195  0.81837086  0.05999676  1  -0.453856  -0.049924  2.229867  -0.074  -0.44534  -0.033797  2.512334  -0.054  -0.47938  -0.025754  2.507137  -0.042  -0.275471  -0.418921  -0.041006  2.51513  -0.063
O  O57  1  0.89967762  0.18163090  0.94000160  1  -0.453823  -0.049925  2.229838  -0.074  -0.44531  -0.033797  2.512318  -0.054  -0.479335  -0.025754  2.507136  -0.042  -0.275466  -0.418898  -0.041  2.515111  -0.063
O  O58  1  0.16029946  0.38663162  0.42259994  1  -0.428395  0.060455  2.098564  0.093  -0.420121  0.039416  2.355667  0.064  -0.452562  0.029533  2.351278  0.049  -0.26237  -0.395326  0.048966  2.357187  0.077
O  O59  1  0.83969900  0.61336739  0.57740256  1  -0.428399  0.060454  2.098526  0.093  -0.420128  0.039416  2.355608  0.064  -0.45257  0.029533  2.351216  0.049  -0.262377  -0.39535  0.048951  2.357139  0.077
O  O60  1  0.79951810  0.55470726  0.37952276  1  -0.444197  0.057107  2.1211  0.088  -0.433666  0.037353  2.377547  0.06  -0.466974  0.027822  2.373635  0.046  -0.274783  -0.408329  0.046316  2.378879  0.073
O  O61  1  0.20048113  0.44529267  0.62047862  1  -0.444265  0.057108  2.121216  0.088  -0.433758  0.037354  2.377622  0.06  -0.467047  0.027823  2.373739  0.046  -0.274814  -0.408419  0.046312  2.378956  0.073
F  F62  1  0.27702110  0.85463330  0.65535335  1  -0.246349  -0.00068  1.166696  -0.001  -0.207406  -0.000537  1.330985  -0.001  -0.216704  -0.000345  1.314638  0.0  -0.099801  -0.20061  -0.000746  1.342414  -0.001
F  F63  1  0.72297969  0.14536846  0.34464419  1  -0.246373  -0.000684  1.166703  -0.001  -0.207411  -0.000537  1.331027  -0.001  -0.216708  -0.000345  1.314676  0.0  -0.099826  -0.200613  -0.00075  1.342454  -0.001
F  F64  1  0.99845436  0.95964118  0.63325577  1  -0.254169  -0.000368  1.138977  -0.001  -0.215876  -0.000507  1.298227  -0.001  -0.22648  -0.000331  1.283766  -0.001  -0.109083  -0.209663  -0.000706  1.309618  -0.001
F  F65  1  0.00154719  0.04036149  0.36674551  1  -0.254237  -0.000365  1.139007  -0.001  -0.215911  -0.000506  1.298274  -0.001  -0.226533  -0.000331  1.283825  -0.001  -0.109098  -0.209698  -0.000707  1.309666  -0.001
F  F66  1  0.18897985  0.04925920  0.63518751  1  -0.237158  0.000158  1.176542  0.001  -0.197669  0.000117  1.339485  0.0  -0.207816  0.000102  1.324028  0.0  -0.090492  -0.18958  0.000118  1.349603  0.0
F  F67  1  0.81102548  0.95074075  0.36481218  1  -0.237147  0.000154  1.176532  0.001  -0.197617  0.000117  1.339481  0.0  -0.207761  0.000101  1.32402  0.0  -0.090467  -0.189549  0.000119  1.349615  0.0
F  F68  1  0.02631813  0.60058223  0.03117507  1  -0.261306  -0.000556  1.135382  -0.001  -0.224689  -0.00066  1.298267  -0.001  -0.234084  -0.000435  1.282658  -0.001  -0.115258  -0.218165  -0.000923  1.309478  -0.001
F  F69  1  0.97368508  0.39941954  0.96882567  1  -0.261312  -0.000551  1.135382  -0.001  -0.224634  -0.000661  1.298301  -0.001  -0.234036  -0.000435  1.282693  -0.001  -0.115223  -0.218115  -0.000919  1.309506  -0.001
F  F70  1  0.30828586  0.54039931  0.02261436  1  -0.242566  -0.000494  1.17982  -0.001  -0.206644  -0.000353  1.348355  -0.001  -0.215747  -0.000219  1.331421  0.0  -0.103557  -0.200035  -0.000494  1.360282  -0.001
F  F71  1  0.69171780  0.45960154  0.97738668  1  -0.242573  -0.000489  1.17988  -0.001  -0.206607  -0.000352  1.348465  -0.001  -0.215709  -0.000217  1.331527  0.0  -0.103575  -0.2  -0.000493  1.360382  -0.001
F  F72  1  0.19998569  0.58346353  0.17349294  1  -0.235528  0.000118  1.202011  0.0  -0.196112  8.4e-05  1.37133  0.0  -0.20545  7.3e-05  1.355984  0.0  -0.096657  -0.189572  9.1e-05  1.382257  0.0
F  F73  1  0.80001676  0.41653732  0.82650811  1  -0.235504  0.000118  1.202153  0.0  -0.19607  8.4e-05  1.371541  0.0  -0.205409  7.1e-05  1.356193  0.0  -0.096652  -0.189534  9.2e-05  1.382462  0.0
F  F74  1  0.31932383  0.15842820  0.40098205  1  -0.243992  0.000166  1.140493  0.0  -0.203787  0.000214  1.292831  0.0  -0.213003  0.00011  1.277213  0.0  -0.102041  -0.196943  0.00036  1.303758  0.0
F  F75  1  0.68067706  0.84157082  0.59901880  1  -0.24397  0.000163  1.140453  0.0  -0.203793  0.000214  1.292808  0.0  -0.213008  0.00011  1.277194  0.0  -0.102047  -0.196949  0.000357  1.303731  0.0
F  F76  1  0.17288297  0.22494333  0.23149184  1  -0.251176  0.00113  1.187724  0.002  -0.209204  0.00093  1.353378  0.001  -0.219944  0.000613  1.339777  0.001  -0.102742  -0.201091  0.001301  1.362746  0.002
F  F77  1  0.82711426  0.77505569  0.76851148  1  -0.251176  0.001134  1.187791  0.002  -0.209165  0.00093  1.353407  0.001  -0.219905  0.000613  1.339811  0.001  -0.10274  -0.201058  0.001306  1.362775  0.002
F  F78  1  0.36381128  0.30561120  0.25930026  1  -0.244826  -0.000308  1.167503  -0.001  -0.214046  -0.000254  1.335169  0.0  -0.222492  -0.000223  1.318146  0.0  -0.107141  -0.207732  -0.000239  1.347123  0.0
F  F79  1  0.63618673  0.69438872  0.74070114  1  -0.244801  -0.000305  1.167582  -0.001  -0.214029  -0.000254  1.335247  0.0  -0.222473  -0.000222  1.318227  0.0  -0.107139  -0.207714  -0.000242  1.347201  0.0
F  F80  1  0.60156946  0.45850601  0.19490171  1  -0.238655  0.001019  1.222437  0.001  -0.195675  0.000827  1.395457  0.001  -0.205589  0.000539  1.378819  0.001  -0.089246  -0.18827  0.001162  1.407086  0.002
F  F81  1  0.39843011  0.54149574  0.80509826  1  -0.23863  0.001019  1.222425  0.001  -0.195656  0.000826  1.395456  0.001  -0.205569  0.000538  1.378814  0.001  -0.089243  -0.188251  0.001163  1.407071  0.002
F  F82  1  0.50974692  0.48894252  0.35392152  1  -0.242978  7.8e-05  1.163616  0.0  -0.202298  0.000234  1.327298  0.0  -0.213824  0.00012  1.313993  0.0  -0.091865  -0.193799  0.000389  1.336681  0.001
F  F83  1  0.49025066  0.51105832  0.64607796  1  -0.242959  7.9e-05  1.163622  0.0  -0.202278  0.000234  1.327313  0.0  -0.213799  0.00012  1.313997  0.0  -0.09184  -0.193789  0.000399  1.336691  0.001
F  F84  1  0.53428311  0.64087655  0.20795601  1  -0.259038  -0.000213  1.198363  -0.001  -0.213732  -0.000177  1.370859  0.0  -0.224003  -0.000153  1.356409  0.0  -0.103835  -0.206223  -0.000167  1.381068  -0.001
F  F85  1  0.46571690  0.35912430  0.79204345  1  -0.259029  -0.000211  1.198316  -0.001  -0.213726  -0.000177  1.370823  0.0  -0.223997  -0.000152  1.356368  0.0  -0.10384  -0.20621  -0.000168  1.381017  -0.001
