# generated using pymatgen
data_Cu2H26C28(NO2)5
_symmetry_space_group_name_H-M   'P 1'
_cell_length_a   11.48424546
_cell_length_b   12.37236337
_cell_length_c   14.33500000
_cell_angle_alpha   101.61273097
_cell_angle_beta   103.03901407
_cell_angle_gamma   96.49364872
_symmetry_Int_Tables_number   1
_chemical_formula_structural   Cu2H26C28(NO2)5
_chemical_formula_sum   'Cu4 H52 C56 N10 O20'
_cell_volume   1916.68614836
_cell_formula_units_Z   2
loop_
 _symmetry_equiv_pos_site_id
 _symmetry_equiv_pos_as_xyz
  1  'x, y, z'
loop_
 _atom_site_type_symbol
 _atom_site_label
 _atom_site_symmetry_multiplicity
 _atom_site_fract_x
 _atom_site_fract_y
 _atom_site_fract_z
 _atom_site_occupancy
 _atom_site_hle17_ddec_charge
 _atom_site_hle17_ddec_spin_density
 _atom_site_hle17_ddec_sum_bond_order
 _atom_site_hle17_magmom
 _atom_site_hse06_10hf_ddec_charge
 _atom_site_hse06_10hf_ddec_spin_density
 _atom_site_hse06_10hf_ddec_sum_bond_order
 _atom_site_hse06_10hf_magmom
 _atom_site_hse06_ddec_charge
 _atom_site_hse06_ddec_spin_density
 _atom_site_hse06_ddec_sum_bond_order
 _atom_site_hse06_magmom
 _atom_site_pbe_bader_charge
 _atom_site_pbe_bader_spin_density
 _atom_site_pbe_cm5_charge
 _atom_site_pbe_ddec_charge
 _atom_site_pbe_ddec_spin_density
 _atom_site_pbe_ddec_sum_bond_order
 _atom_site_pbe_magmom
Cu  Cu0  1  0.10447613  0.06172498  0.70621452  1  0.967889  -0.388996  1.877032  -0.249  0.95704  -0.599118  2.288404  -0.443  1.032701  -0.828552  2.219328  -0.654  1.13062  -0.229363  0.751385  0.917529  -0.327816  2.332549  -0.227
Cu  Cu1  1  0.89551559  0.93828310  0.29378916  1  0.967742  0.388819  1.877217  0.249  0.956928  0.598843  2.288521  0.443  1.041621  0.827139  2.203954  0.654  1.130696  0.229295  0.751365  0.917476  0.327731  2.332649  0.227
Cu  Cu2  1  0.90008079  0.05571364  0.51526160  1  0.976007  -0.009424  2.004052  -0.006  0.993017  -0.024461  2.3994  -0.018  1.074871  -0.07625  2.331834  -0.061  1.129568  -0.002624  0.765353  0.94363  -0.003973  2.452498  -0.003
Cu  Cu3  1  0.09991646  0.94430532  0.48474845  1  0.975964  0.00954  2.004414  0.006  0.992989  0.024728  2.399789  0.018  1.0747  0.079065  2.332431  0.063  1.129407  0.002668  0.765357  0.943605  0.004034  2.452909  0.003
H  H4  1  0.43129956  0.30934117  0.54390632  1  0.106549  -7e-06  0.96533  0.0  0.112148  1.8e-05  1.03742  0.0  0.116747  1.3e-05  1.033562  0.0  0.105556  6e-06  0.111214  0.108898  1.4e-05  1.0402  0.0
H  H5  1  0.56870432  0.69064014  0.45609629  1  0.106501  4e-06  0.965431  0.0  0.112098  -1.8e-05  1.03752  0.0  0.116696  -1.3e-05  1.033662  0.0  0.105907  -7e-06  0.111234  0.10885  -1.4e-05  1.040301  0.0
H  H6  1  0.41351663  0.39585872  0.26516174  1  0.113039  -0.0  0.935933  0.0  0.120088  1e-06  0.999349  0.0  0.125375  2e-06  0.994726  0.0  0.119076  1.4e-05  0.111722  0.116314  1e-05  1.002599  0.0
H  H7  1  0.58647060  0.60413429  0.73484409  1  0.112985  -2e-06  0.935905  0.0  0.120051  -0.0  0.999293  0.0  0.125357  -2e-06  0.994646  0.0  0.11941  -1.4e-05  0.111708  0.116272  -1e-05  1.002542  0.0
H  H8  1  0.75670527  0.44713666  0.47759729  1  0.103671  -3.2e-05  0.945126  0.0  0.111529  -3e-06  1.01059  0.0  0.115998  -0.0  1.006905  0.0  0.056118  -1e-05  0.109493  0.108292  -9e-06  1.013344  0.0
H  H9  1  0.24329370  0.55284715  0.52239232  1  0.103579  3e-05  0.945049  0.0  0.11144  3e-06  1.010533  0.0  0.115903  1e-06  1.006847  0.0  0.055705  9e-06  0.109435  0.108195  9e-06  1.013292  0.0
H  H10  1  0.80362346  0.32346078  0.77157152  1  0.113023  4.3e-05  0.912171  0.0  0.126848  3.3e-05  0.969134  0.0  0.131764  6e-06  0.964498  0.0  0.099047  6.2e-05  0.123218  0.123487  3.3e-05  0.972344  0.0
H  H11  1  0.19637421  0.67654563  0.22842527  1  0.112966  -4.4e-05  0.912164  0.0  0.126772  -3.2e-05  0.969146  0.0  0.131691  -6e-06  0.964487  0.0  0.098687  -5.9e-05  0.123183  0.123395  -3e-05  0.972376  0.0
H  H12  1  0.93943703  0.39921332  0.76065952  1  0.106554  -1.8e-05  0.889446  0.0  0.126791  -1e-05  0.936016  0.0  0.130458  -4e-06  0.933152  0.0  0.109234  -1.6e-05  0.123407  0.124258  -9e-06  0.938181  0.0
H  H13  1  0.06056914  0.60079559  0.23934133  1  0.106548  1.6e-05  0.889484  0.0  0.12672  1.1e-05  0.936115  0.0  0.130377  1e-06  0.933245  0.0  0.109361  1.7e-05  0.123419  0.124196  1e-05  0.938276  0.0
H  H14  1  0.03631091  0.30268468  0.34673797  1  0.108798  -0.000296  0.902586  0.0  0.122003  -7.6e-05  0.958981  0.0  0.124659  -6.5e-05  0.956564  0.0  0.100421  -9.7e-05  0.118294  0.120179  -4.6e-05  0.960609  0.0
H  H15  1  0.96369201  0.69733595  0.65327967  1  0.108809  0.000295  0.902386  0.0  0.122008  7.6e-05  0.958817  0.0  0.124661  6.6e-05  0.956428  0.0  0.101592  9.7e-05  0.118297  0.120182  4.6e-05  0.960445  0.0
H  H16  1  0.04725123  0.29068376  0.47064088  1  0.111985  -0.000213  0.898669  0.0  0.126834  -0.00015  0.953797  0.0  0.12713  -0.000148  0.953721  0.0  0.116487  -6.3e-05  0.122428  0.12634  -7.7e-05  0.954137  0.0
H  H17  1  0.95274347  0.70932599  0.52936642  1  0.111838  0.000212  0.898611  0.0  0.126755  0.00015  0.953702  0.0  0.127015  0.000148  0.953681  0.0  0.116568  6.6e-05  0.122392  0.126261  7.8e-05  0.954042  0.0
H  H18  1  0.58766510  0.65912832  0.16243305  1  0.102289  -0.000137  0.896931  0.0  0.118365  -9.6e-05  0.948507  0.0  0.119304  -9.6e-05  0.948231  0.0  0.047022  -0.000106  0.118435  0.117641  -6.4e-05  0.948732  0.0
H  H19  1  0.41234983  0.34086470  0.83756314  1  0.102167  0.000141  0.896965  0.0  0.118273  9.6e-05  0.948539  0.0  0.119198  9.6e-05  0.948303  0.0  0.046981  0.000106  0.118358  0.117552  6.4e-05  0.948766  0.0
H  H20  1  0.71188496  0.58414141  0.17082092  1  0.1064  -0.000188  0.905911  0.0  0.11807  -0.000158  0.964453  0.0  0.11962  -0.000128  0.963019  0.0  0.094614  -0.000162  0.117997  0.116779  -0.000109  0.965668  0.0
H  H21  1  0.28813473  0.41584826  0.82919299  1  0.106444  0.000192  0.90592  0.0  0.118089  0.000157  0.964498  0.0  0.119639  0.000129  0.96309  0.0  0.094632  0.000163  0.118028  0.1168  0.00011  0.965714  0.0
H  H22  1  0.68879383  0.88658343  0.47802587  1  0.09965  8.9e-05  0.959658  0.0  0.107006  5.7e-05  1.026306  0.0  0.112162  2e-05  1.0219  0.0  0.162831  6e-05  0.122761  0.10317  6.2e-05  1.029666  0.0
H  H23  1  0.31119176  0.11341544  0.52198347  1  0.099708  -8.9e-05  0.959513  0.0  0.107062  -5.7e-05  1.026188  0.0  0.112215  -1.8e-05  1.021796  0.0  0.163864  -5.7e-05  0.122773  0.103175  -6e-05  1.029606  0.0
H  H24  1  0.46881736  0.85981859  0.38918391  1  0.11433  -4.1e-05  0.953453  0.0  0.124734  -8.2e-05  1.012411  0.0  0.128929  -6.6e-05  1.011137  0.0  0.083327  -0.000102  0.106948  0.121775  -5.9e-05  1.013466  0.0
H  H25  1  0.53116900  0.14018949  0.61083275  1  0.114351  4.2e-05  0.953679  0.0  0.124815  8.2e-05  1.012566  0.0  0.128999  6.6e-05  1.011297  0.0  0.083062  0.000103  0.107039  0.121859  5.9e-05  1.013615  0.0
H  H26  1  0.54630269  0.17580649  0.31218927  1  0.106416  2.5e-05  0.964  0.0  0.11962  7e-06  1.019553  0.0  0.123879  2e-06  1.018442  0.0  0.101968  2.5e-05  0.106539  0.116689  1.5e-05  1.020391  0.0
H  H27  1  0.45371476  0.82418067  0.68778961  1  0.106493  -2.5e-05  0.963849  0.0  0.119654  -7e-06  1.019435  0.0  0.12391  -1e-06  1.018333  0.0  0.101845  -2.6e-05  0.106478  0.116723  -1.5e-05  1.020274  0.0
H  H28  1  0.76167873  0.18599915  0.39939309  1  0.08915  8.2e-05  0.927671  0.0  0.100248  0.000112  0.988323  0.0  0.10549  6.2e-05  0.983187  0.0  0.088551  9.1e-05  0.121067  0.096445  0.00011  0.992009  0.0
H  H29  1  0.23833393  0.81397629  0.60058637  1  0.089151  -8.2e-05  0.927667  0.0  0.100314  -0.000112  0.98824  0.0  0.105534  -6e-05  0.983144  0.0  0.088665  -8.9e-05  0.121113  0.096519  -0.000109  0.991918  0.0
H  H30  1  0.31543952  0.06692047  0.34107800  1  0.109303  9e-06  0.942148  0.0  0.129369  1e-05  0.999505  0.0  0.131144  1.7e-05  0.999849  0.0  0.094621  -1.2e-05  0.103639  0.12799  9e-06  0.999458  0.0
H  H31  1  0.68456248  0.93309012  0.65891402  1  0.109366  -8e-06  0.942095  0.0  0.129378  -1e-05  0.999535  0.0  0.131164  -1.7e-05  0.999866  0.0  0.094627  1.3e-05  0.103648  0.128009  -8e-06  0.999477  0.0
H  H32  1  0.30765559  0.92382627  0.29309944  1  0.087219  3e-06  0.920217  0.0  0.107414  -1e-06  0.972829  0.0  0.107748  -1e-06  0.973911  0.0  0.042722  -1e-06  0.098113  0.106986  2e-06  0.972295  0.0
H  H33  1  0.69233673  0.07618515  0.70689864  1  0.087213  -2e-06  0.920179  0.0  0.107445  1e-06  0.972761  0.0  0.107772  1e-06  0.973858  0.0  0.042524  2e-06  0.098114  0.10702  -1e-06  0.97223  0.0
H  H34  1  0.37637104  0.11012444  0.19177307  1  0.059657  -8e-06  0.937442  0.0  0.08037  -3e-06  0.99551  0.0  0.081368  -5e-06  0.995678  0.0  0.026901  -3e-06  0.08928  0.079588  -0.0  0.995494  0.0
H  H35  1  0.62363795  0.88988030  0.80822128  1  0.059673  7e-06  0.93752  0.0  0.080362  3e-06  0.995623  0.0  0.081359  4e-06  0.995786  0.0  0.027188  3e-06  0.089279  0.079582  0.0  0.995606  0.0
H  H36  1  0.36438517  0.96513162  0.14282655  1  0.055773  -1.2e-05  0.928067  0.0  0.076329  -9e-06  0.983093  0.0  0.077835  -1.1e-05  0.982984  0.0  0.020928  -1.1e-05  0.086437  0.075265  -6e-06  0.983214  0.0
H  H37  1  0.63561875  0.03486977  0.85717049  1  0.055744  1.1e-05  0.928103  0.0  0.076277  8e-06  0.983168  0.0  0.077782  1.1e-05  0.983058  0.0  0.020957  1e-05  0.086417  0.075214  6e-06  0.983286  0.0
H  H38  1  0.16138498  0.08987885  0.19216211  1  0.101224  1.4e-05  0.937991  0.0  0.116911  -1.3e-05  0.99789  0.0  0.118446  -4e-06  0.997511  0.0  0.105816  -1.5e-05  0.097651  0.115694  -1e-05  0.998183  0.0
H  H39  1  0.83861731  0.91012839  0.80783914  1  0.101241  -1.2e-05  0.937945  0.0  0.116925  1.3e-05  0.997806  0.0  0.118465  5e-06  0.997434  0.0  0.105903  1.4e-05  0.097653  0.115705  9e-06  0.9981  0.0
H  H40  1  0.14312182  0.94200421  0.15280737  1  0.097555  5.3e-05  0.930972  0.0  0.112744  1.9e-05  0.991318  0.0  0.113554  3.2e-05  0.991181  0.0  0.065886  7e-06  0.096349  0.111975  3e-06  0.991563  0.0
H  H41  1  0.85688076  0.05799969  0.84718428  1  0.097609  -5.1e-05  0.930871  0.0  0.112705  -1.9e-05  0.991293  0.0  0.11351  -3.2e-05  0.991178  0.0  0.065781  -8e-06  0.096336  0.111937  -4e-06  0.991542  0.0
H  H42  1  0.16673597  0.85472184  0.98210334  1  0.10989  -0.000325  0.930462  0.0  0.12395  -0.000418  0.980576  0.0  0.125296  -0.000369  0.98254  0.0  0.085845  -0.000564  0.113495  0.122604  -0.000318  0.979775  0.0
H  H43  1  0.83326827  0.14529126  0.01790347  1  0.109804  0.000325  0.930488  0.0  0.123859  0.000417  0.980597  0.0  0.125214  0.000368  0.982534  0.0  0.086293  0.000564  0.113427  0.122511  0.000318  0.979797  0.0
H  H44  1  0.13724850  0.87693718  0.80951282  1  0.094961  -0.000358  0.947635  -0.001  0.107027  -0.000466  1.001519  -0.001  0.108715  -0.000385  1.0  -0.001  0.120631  -0.000719  0.122217  0.105449  -0.000375  1.002809  -0.001
H  H45  1  0.86274870  0.12305668  0.19048519  1  0.094994  0.000357  0.947735  0.001  0.107068  0.000465  1.001599  0.001  0.108745  0.000383  1.000122  0.001  0.120637  0.000715  0.122243  0.10549  0.000372  1.002891  0.001
H  H46  1  0.13478599  0.21602571  0.89506136  1  0.093773  -0.000615  0.936488  -0.001  0.102842  -0.000716  0.994508  -0.001  0.104509  -0.000631  0.99187  -0.001  0.140135  -0.001039  0.122088  0.101066  -0.000554  0.996823  -0.001
H  H47  1  0.86520987  0.78397065  0.10492638  1  0.093712  0.000614  0.936348  0.001  0.102819  0.000715  0.994349  0.001  0.104464  0.00063  0.991764  0.001  0.14007  0.001035  0.122072  0.10104  0.000551  0.996665  0.001
H  H48  1  0.16440347  0.20846719  0.07315935  1  0.12391  -0.000321  0.93457  0.0  0.136051  -0.000372  0.987892  0.0  0.138056  -0.000321  0.988656  0.0  0.103291  -0.000507  0.114614  0.134217  -0.000281  0.987956  0.0
H  H49  1  0.83559689  0.79153922  0.92682955  1  0.123914  0.000322  0.93448  0.0  0.136083  0.000372  0.987785  0.0  0.138099  0.000321  0.988522  0.0  0.103388  0.000506  0.114645  0.134245  0.00028  0.987851  0.0
H  H50  1  0.82217247  0.36383731  0.57936423  1  0.284836  -7e-06  0.893564  0.0  0.277598  4e-06  0.94222  0.0  0.283784  -3e-06  0.937821  0.0  0.454866  1e-06  0.318893  0.273046  1.4e-05  0.945701  0.0
H  H51  1  0.17783178  0.63618081  0.42062950  1  0.284966  7e-06  0.89343  0.0  0.277622  -5e-06  0.942205  0.0  0.28381  4e-06  0.937801  0.0  0.455053  -1e-06  0.318936  0.27307  -1.4e-05  0.945687  0.0
H  H52  1  0.25476189  0.31560102  0.50571092  1  0.297233  -9.9e-05  0.929707  0.0  0.278813  -1.2e-05  0.997375  0.0  0.28607  -6e-06  0.992716  0.0  0.510914  -4.3e-05  0.305767  0.273764  -6e-06  1.00058  0.0
H  H53  1  0.74522920  0.68438865  0.49429641  1  0.297385  9.9e-05  0.929397  0.0  0.279049  1.1e-05  0.99699  0.0  0.286304  6e-06  0.99233  0.0  0.511278  4.3e-05  0.305795  0.274  6e-06  1.0002  0.0
H  H54  1  0.52031999  0.57513194  0.27973998  1  0.289958  -1.7e-05  0.934358  0.0  0.271209  -1.7e-05  1.004655  0.0  0.277712  -9e-06  1.000107  0.0  0.504826  -1.1e-05  0.298066  0.266544  -1.1e-05  1.007838  0.0
H  H55  1  0.47968153  0.42486108  0.72025936  1  0.29004  1.7e-05  0.93421  0.0  0.271343  1.7e-05  1.004401  0.0  0.277857  9e-06  0.999849  0.0  0.504559  1.1e-05  0.298109  0.266671  1e-05  1.007587  0.0
C  C56  1  0.60072968  0.37434209  0.52114249  1  -0.063273  -0.000327  3.783794  0.0  -0.039872  -8.2e-05  4.029272  0.0  -0.050238  -8.4e-05  4.057097  0.0  -0.023487  -6e-05  -0.015609  -0.033302  -4.4e-05  4.010903  0.0
C  C57  1  0.39926021  0.62564591  0.47884760  1  -0.063416  0.00028  3.783422  0.0  -0.040013  8.4e-05  4.028866  0.0  -0.050382  8.4e-05  4.056702  0.0  -0.02305  5.9e-05  -0.015638  -0.033449  4.4e-05  4.010493  0.0
C  C58  1  0.47470040  0.34080864  0.49212829  1  -0.078507  0.000646  3.679553  0.001  -0.119473  0.000267  3.934771  0.0  -0.117791  0.000196  3.955039  0.0  -0.03677  0.000242  -0.073273  -0.120427  0.00018  3.921181  0.0
C  C59  1  0.52529366  0.65917769  0.50786784  1  -0.078389  -0.000591  3.679139  0.0  -0.119345  -0.000268  3.934396  0.0  -0.117661  -0.000197  3.954644  0.0  -0.036879  -0.000243  -0.073252  -0.120304  -0.00018  3.920819  0.0
C  C60  1  0.40792777  0.34747433  0.39960595  1  -0.045047  -0.00013  3.758758  0.0  -0.01913  -9.3e-05  3.996968  0.0  -0.026373  -0.000108  4.020112  0.0  0.006832  -3.1e-05  -0.010515  -0.014832  -2.5e-05  3.981523  0.0
C  C61  1  0.59206615  0.65251116  0.60039071  1  -0.044903  8.4e-05  3.758483  0.0  -0.019085  9.4e-05  3.996765  0.0  -0.026329  0.000105  4.019921  0.0  0.006695  2.9e-05  -0.010598  -0.014795  2.4e-05  3.981314  0.0
C  C62  1  0.46760783  0.39021556  0.33651274  1  -0.078612  -0.0  3.691801  0.0  -0.119291  5.7e-05  3.943315  0.0  -0.1158  0.0001  3.957999  0.0  -0.094604  0.000177  -0.073268  -0.120837  0.000117  3.932994  0.0
C  C63  1  0.53239102  0.60978247  0.66349048  1  -0.078611  4.8e-05  3.691757  0.0  -0.119225  -5.7e-05  3.943277  0.0  -0.11575  -0.000101  3.957946  0.0  -0.094814  -0.000178  -0.07326  -0.120733  -0.000118  3.93293  0.0
C  C64  1  0.59279737  0.42640910  0.36566221  1  -0.048887  -0.000195  3.766144  0.0  -0.020098  -8e-05  4.000499  0.0  -0.026134  -9.9e-05  4.02132  0.0  -0.00264  2e-06  -0.01113  -0.01647  6e-06  3.986506  0.0
C  C65  1  0.40720265  0.57357555  0.63433261  1  -0.049186  0.000155  3.765929  0.0  -0.020438  8e-05  4.000551  0.0  -0.026473  9.5e-05  4.021374  0.0  -0.00216  -4e-06  -0.011216  -0.016867  -7e-06  3.98655  0.0
C  C66  1  0.65953551  0.41600975  0.45702459  1  -0.082613  0.000693  3.700602  0.001  -0.12595  0.00034  3.96123  0.0  -0.124077  0.000242  3.979928  0.0  -0.025235  0.000291  -0.074987  -0.127004  0.000195  3.94861  0.0
C  C67  1  0.34046198  0.58397573  0.54296852  1  -0.082294  -0.000643  3.70012  -0.001  -0.125601  -0.000341  3.960772  0.0  -0.123716  -0.000241  3.979466  0.0  -0.025865  -0.000293  -0.074812  -0.126616  -0.000196  3.948124  0.0
C  C68  1  0.66569578  0.36570832  0.62190743  1  0.537645  3.4e-05  3.839674  0.0  0.488826  9e-06  4.134523  0.0  0.517945  1.2e-05  4.13496  0.0  1.395716  -5e-06  0.240385  0.469092  -8e-06  4.133661  0.0
C  C69  1  0.33430532  0.63429725  0.37809052  1  0.537674  -2.6e-05  3.839701  0.0  0.488858  -8e-06  4.134464  0.0  0.517977  -1.6e-05  4.134903  0.0  1.395851  5e-06  0.240365  0.46912  8e-06  4.133611  0.0
C  C70  1  0.85929519  0.33562821  0.72043787  1  -0.085179  -0.001229  3.640919  -0.001  -0.143862  -0.000675  3.892162  -0.001  -0.142879  -0.000683  3.894194  -0.001  0.282586  -0.000581  -0.050751  -0.144751  -0.000424  3.890675  0.0
C  C71  1  0.14071156  0.66437401  0.27956471  1  -0.08504  0.001235  3.640857  0.001  -0.143642  0.000671  3.892086  0.001  -0.142637  0.000686  3.894033  0.001  0.283043  0.000583  -0.050671  -0.144531  0.000426  3.890613  0.0
C  C72  1  0.90391577  0.22564017  0.68460648  1  0.664833  0.000368  3.855942  0.0  0.632118  5.4e-05  4.154055  0.0  0.666194  9.2e-05  4.142273  0.0  1.600207  0.000102  0.212465  0.609255  4.3e-05  4.160666  0.0
C  C73  1  0.09607878  0.77436875  0.31539855  1  0.664669  -0.000373  3.855528  0.0  0.631868  -5.8e-05  4.153819  0.0  0.66592  -8.5e-05  4.142442  0.0  1.599123  -0.000101  0.21241  0.609006  -4.2e-05  4.160422  0.0
C  C74  1  0.27284607  0.31395594  0.36388318  1  0.526166  -0.000375  3.858536  -0.001  0.4802  0.000437  4.149623  0.0  0.507527  0.000273  4.152215  0.0  1.417765  0.000535  0.231077  0.46189  0.000513  4.146827  0.0
C  C75  1  0.72715098  0.68603708  0.63612373  1  0.526078  0.000381  3.85891  0.001  0.480164  -0.000438  4.149934  0.0  0.507492  -0.000266  4.152543  0.0  1.417717  -0.000535  0.231142  0.46185  -0.000513  4.147144  0.0
C  C76  1  0.08436448  0.26823413  0.40641207  1  -0.08648  0.010229  3.666558  0.01  -0.147752  0.005654  3.927297  0.006  -0.148095  0.003912  3.936048  0.004  0.307345  0.007205  -0.056561  -0.147516  0.005688  3.92095  0.006
C  C77  1  0.91563739  0.73178064  0.59360088  1  -0.086437  -0.010215  3.666313  -0.01  -0.147769  -0.005652  3.927161  -0.006  -0.14812  -0.003922  3.936006  -0.004  0.30663  -0.007197  -0.056555  -0.14752  -0.005683  3.920796  -0.006
C  C78  1  0.06045157  0.13976525  0.37323658  1  0.666605  -0.00313  3.834507  -0.005  0.626881  -0.000926  4.151549  -0.003  0.664266  -0.00142  4.149228  -0.003  1.579543  -0.000395  0.211355  0.60203  -0.000139  4.153252  -0.002
C  C79  1  0.93953745  0.86023279  0.62675579  1  0.666721  0.003133  3.834194  0.005  0.627012  0.000926  4.151265  0.003  0.664544  0.001423  4.148084  0.003  1.579032  0.000397  0.211259  0.602153  0.000141  4.152961  0.002
C  C80  1  0.65857299  0.48326242  0.30483966  1  0.533572  0.00039  3.86477  0.0  0.489202  0.000326  4.157019  0.0  0.517393  0.000374  4.158021  0.0  1.407454  0.000275  0.228825  0.470303  0.000228  4.155288  0.0
C  C81  1  0.34142569  0.51672474  0.69515885  1  0.534077  -0.000391  3.864201  0.0  0.489359  -0.000325  4.156856  0.0  0.517565  -0.000366  4.157879  0.0  1.407582  -0.000276  0.228841  0.470483  -0.000229  4.155079  0.0
C  C82  1  0.65509187  0.62758888  0.21290982  1  -0.08757  -0.000576  3.679464  -0.001  -0.149572  -0.000114  3.946194  0.0  -0.149943  0.000604  3.954897  0.001  0.349262  0.000123  -0.057894  -0.14962  0.00013  3.940043  0.0
C  C83  1  0.34491963  0.37240497  0.78709426  1  -0.087356  0.000547  3.6797  0.001  -0.149539  0.000107  3.946389  0.0  -0.14994  -0.000644  3.955256  -0.001  0.348892  -0.000129  -0.057811  -0.149609  -0.000133  3.940242  0.0
C  C84  1  0.73835438  0.72945694  0.29007109  1  0.673441  0.000106  3.829335  0.0  0.6372  0.000664  4.133744  0.0  0.671469  0.000744  4.136366  0.0  1.593436  0.000229  0.217447  0.614458  0.000629  4.132296  0.0
C  C85  1  0.26165549  0.27053775  0.70994191  1  0.672907  -0.0001  3.829789  0.0  0.63692  -0.000664  4.13384  0.0  0.671239  -0.000733  4.136051  0.0  1.59253  -0.000229  0.217209  0.614177  -0.000629  4.132382  0.0
C  C86  1  0.65155029  0.94752352  0.44004980  1  0.148162  6.1e-05  3.668949  0.0  0.116495  -3e-06  3.924639  0.0  0.127567  7.4e-05  3.936  0.0  0.418112  -1.3e-05  0.051747  0.109823  -7.7e-05  3.916981  0.0
C  C87  1  0.34843887  0.05247033  0.55995373  1  0.148146  -5.5e-05  3.66851  0.0  0.116447  5e-06  3.924285  0.0  0.12756  -7.5e-05  3.935503  0.0  0.41718  1.6e-05  0.051699  0.10981  7.9e-05  3.916652  0.0
C  C88  1  0.53009520  0.93463898  0.39092942  1  -0.175027  -0.000124  3.692829  0.0  -0.189141  -0.000295  3.931515  0.0  -0.197649  -0.000397  3.948507  0.0  0.006964  -0.000159  -0.084413  -0.183884  -0.00013  3.920072  0.0
C  C89  1  0.46990455  0.06536408  0.60907971  1  -0.175236  0.000118  3.6928  0.0  -0.18935  0.000296  3.931578  0.0  -0.197861  0.000403  3.948613  0.0  0.007587  0.000162  -0.084488  -0.184105  0.000132  3.920111  0.0
C  C90  1  0.48726504  0.01645838  0.34382834  1  0.16996  0.000202  3.712309  0.0  0.185896  0.000303  3.946006  0.0  0.195857  0.000341  3.963394  0.0  0.009543  0.000147  0.01933  0.179747  0.000107  3.933753  0.0
C  C91  1  0.51273754  0.98354050  0.65617570  1  0.170216  -0.000195  3.712276  0.0  0.186021  -0.000304  3.94612  0.0  0.195972  -0.000346  3.963546  0.0  0.009678  -0.000146  0.019331  0.179909  -0.000106  3.933818  0.0
C  C92  1  0.57269490  0.10868352  0.34700425  1  -0.175408  3.7e-05  3.713437  0.0  -0.187877  -0.000188  3.949228  0.0  -0.195118  -0.000261  3.966121  0.0  -0.035188  -4.3e-05  -0.085186  -0.183405  -4e-05  3.937686  0.0
C  C93  1  0.42731184  0.89130866  0.65298264  1  -0.175519  -4.4e-05  3.713299  0.0  -0.187875  0.000188  3.949087  0.0  -0.195127  0.000267  3.966016  0.0  -0.035424  4.3e-05  -0.085106  -0.183414  4e-05  3.937536  0.0
C  C94  1  0.69295989  0.11615586  0.39628070  1  0.12696  0.000113  3.716559  0.0  0.093738  9.2e-05  3.977633  0.0  0.103656  0.000193  3.989116  0.0  0.45883  4.4e-05  0.043543  0.087747  3.4e-05  3.969881  0.0
C  C95  1  0.30704982  0.88383298  0.60370893  1  0.126888  -0.000105  3.716456  0.0  0.093661  -9.3e-05  3.977508  0.0  0.103663  -0.000198  3.988776  0.0  0.458984  -4.3e-05  0.043549  0.087662  -3.3e-05  3.969759  0.0
C  C96  1  0.35536380  0.00680124  0.29503107  1  -0.172432  3.5e-05  3.68518  0.0  -0.2146  2.1e-05  3.933202  0.0  -0.217851  2.8e-05  3.946135  0.0  -0.024075  -7e-06  -0.160083  -0.212302  0.0  3.924284  0.0
C  C97  1  0.64464238  0.99320767  0.70496629  1  -0.172552  -4.1e-05  3.684759  0.0  -0.214694  -2.1e-05  3.932897  0.0  -0.217956  -3e-05  3.945838  0.0  -0.024099  1e-05  -0.16011  -0.212417  2e-06  3.923973  0.0
C  C98  1  0.32910651  0.02727778  0.19103064  1  -0.075316  0.000276  3.673592  0.0  -0.115615  0.000175  3.933627  0.0  -0.116723  0.000222  3.947064  0.0  -0.025878  0.000142  -0.15509  -0.114694  0.000109  3.924157  0.0
C  C99  1  0.67089921  0.97272863  0.80896620  1  -0.075234  -0.000268  3.67349  0.0  -0.115514  -0.000175  3.933509  0.0  -0.116618  -0.00022  3.946945  0.0  -0.026116  -0.000143  -0.155018  -0.114599  -0.000109  3.924047  0.0
C  C100  1  0.19245059  0.02133840  0.14779038  1  -0.175825  -0.000273  3.673955  0.0  -0.217283  -7e-05  3.924651  0.0  -0.218826  -5e-05  3.936383  0.0  -0.027732  -0.000129  -0.160572  -0.215808  -9.8e-05  3.916425  0.0
C  C101  1  0.80755559  0.97867051  0.85221047  1  -0.176015  0.00026  3.673821  0.0  -0.217302  7e-05  3.924453  0.0  -0.218846  4.5e-05  3.936187  0.0  -0.027724  0.000127  -0.160544  -0.215833  9.6e-05  3.916236  0.0
C  C102  1  0.16865144  0.03052444  0.04284821  1  0.170847  0.004228  3.725131  0.004  0.183628  0.002116  3.968137  0.002  0.189011  0.002909  3.991836  0.003  -0.044101  0.001638  0.018674  0.179906  0.001182  3.952154  0.001
C  C103  1  0.83135235  0.96948615  0.95715041  1  0.171232  -0.004211  3.724687  -0.004  0.183895  -0.002115  3.967767  -0.002  0.189303  -0.0029  3.991377  -0.003  -0.043887  -0.001641  0.018682  0.180168  -0.001184  3.951792  -0.001
C  C104  1  0.16087254  0.93702544  0.96668060  1  -0.18018  -0.005162  3.73293  -0.005  -0.198294  -0.003127  3.979445  -0.004  -0.209438  -0.003534  4.005458  -0.004  -0.035125  -0.0029  -0.084153  -0.191256  -0.00213  3.962454  -0.002
C  C105  1  0.83912752  0.06298431  0.03332069  1  -0.180184  0.005147  3.732527  0.005  -0.198235  0.003124  3.979034  0.004  -0.209341  0.003527  4.00494  0.004  -0.036112  0.002895  -0.084043  -0.191196  0.002127  3.962043  0.002
C  C106  1  0.14487308  0.94812600  0.87042955  1  0.121223  0.002568  3.72157  0.002  0.094616  -2e-05  3.969776  0.0  0.103668  0.001325  3.991104  0.002  0.48291  -0.000223  0.044588  0.089262  -0.000562  3.955943  0.0
C  C107  1  0.85512772  0.05187790  0.12957434  1  0.121117  -0.002557  3.721408  -0.002  0.094514  1.9e-05  3.969617  0.0  0.103449  -0.001329  3.991652  -0.002  0.482956  0.000216  0.044475  0.089161  0.000557  3.95579  0.0
C  C108  1  0.14302367  0.13835864  0.91866401  1  0.144211  0.003188  3.69097  0.003  0.115177  0.000642  3.943513  0.001  0.125381  0.001942  3.963124  0.003  0.4563  0.000331  0.051202  0.109009  -7.3e-05  3.931057  0.0
C  C109  1  0.85696684  0.86164275  0.08132573  1  0.144351  -0.003175  3.6908  -0.003  0.115282  -0.000641  3.94336  -0.001  0.125369  -0.001942  3.963644  -0.003  0.456803  -0.000335  0.051253  0.109117  7e-05  3.930908  0.0
C  C110  1  0.15916679  0.13301421  0.01669865  1  -0.180292  -0.005033  3.693033  -0.005  -0.195547  -0.002944  3.933646  -0.003  -0.206967  -0.003409  3.95905  -0.004  -0.015264  -0.002642  -0.079835  -0.188302  -0.001971  3.917081  -0.002
C  C111  1  0.84083298  0.86699889  0.98330037  1  -0.180568  0.005016  3.693159  0.005  -0.195803  0.002942  3.93381  0.003  -0.207185  0.003399  3.959114  0.004  -0.015468  0.002636  -0.079962  -0.188557  0.001967  3.917249  0.002
N  N112  1  0.78750808  0.37176066  0.63913314  1  -0.387691  -0.000103  3.315889  0.0  -0.335064  -1.5e-05  3.560919  0.0  -0.355851  -1.6e-05  3.569475  0.0  -1.211111  -3e-05  -0.422032  -0.320606  -8e-06  3.554674  0.0
N  N113  1  0.21249749  0.62824491  0.36086493  1  -0.387857  9.9e-05  3.316111  0.0  -0.335104  1.9e-05  3.56109  0.0  -0.355881  1.2e-05  3.569627  0.0  -1.211378  3.1e-05  -0.422088  -0.320645  9e-06  3.554849  0.0
N  N114  1  0.21152753  0.31298194  0.43434548  1  -0.410516  0.006545  3.353652  0.007  -0.358574  0.001558  3.606881  0.002  -0.382105  0.000741  3.619642  0.001  -1.270853  0.00366  -0.425408  -0.341831  0.002369  3.597066  0.002
N  N115  1  0.78847445  0.68701359  0.56566414  1  -0.410703  -0.006543  3.353469  -0.007  -0.358859  -0.001557  3.606633  -0.002  -0.382402  -0.000749  3.619413  -0.001  -1.271112  -0.00366  -0.425457  -0.342117  -0.002369  3.596818  -0.002
N  N116  1  0.59473943  0.55167735  0.25750056  1  -0.417993  -0.000188  3.333579  0.0  -0.370534  -0.000595  3.589951  -0.001  -0.393537  -0.000498  3.602154  -0.001  -1.241288  0.000695  -0.428493  -0.354029  0.00047  3.580608  0.001
N  N117  1  0.40526701  0.44831818  0.74250290  1  -0.418288  0.000185  3.333576  0.0  -0.370573  0.000593  3.589737  0.001  -0.393658  0.000476  3.602036  0.001  -1.240877  -0.000697  -0.428513  -0.354034  -0.000471  3.580357  -0.001
N  N118  1  0.73130522  0.03717171  0.44259552  1  -0.308207  -0.00148  3.372347  -0.001  -0.25695  -0.004746  3.670948  -0.006  -0.272957  -0.005751  3.677949  -0.007  -1.196201  -0.003109  -0.362017  -0.24833  -0.002314  3.668461  -0.002
N  N119  1  0.26868170  0.96281963  0.55740019  1  -0.308151  0.001481  3.372169  0.001  -0.256957  0.004756  3.670882  0.006  -0.272697  0.005859  3.677247  0.008  -1.196517  0.003121  -0.362064  -0.248334  0.002322  3.66839  0.002
N  N120  1  0.13597748  0.04735936  0.84657676  1  -0.299931  -0.045837  3.313646  -0.052  -0.251694  -0.045038  3.605797  -0.057  -0.285121  -0.046017  3.62846  -0.063  -1.215712  -0.040661  -0.345236  -0.234394  -0.029813  3.593733  -0.035
N  N121  1  0.86401734  0.95263617  0.15342529  1  -0.299922  0.045799  3.313348  0.052  -0.251711  0.045016  3.60553  0.057  -0.286798  0.045946  3.628358  0.063  -1.215887  0.040628  -0.345213  -0.234427  0.029793  3.593484  0.035
O  O122  1  0.60971717  0.35267484  0.68530951  1  -0.5636  3.9e-05  1.910437  0.0  -0.521606  5.3e-05  2.125528  0.0  -0.539355  4.5e-05  2.11635  0.0  -1.168403  4.2e-05  -0.30722  -0.509218  3e-05  2.131539  0.0
O  O123  1  0.39029124  0.64733659  0.31469497  1  -0.56364  -4.3e-05  1.910518  0.0  -0.521619  -5.3e-05  2.12558  0.0  -0.539378  -4.2e-05  2.116406  0.0  -1.168721  -4.1e-05  -0.307256  -0.509228  -3e-05  2.13159  0.0
O  O124  1  0.88645527  0.19790551  0.58985004  1  -0.612016  -0.001204  2.09722  -0.002  -0.574726  0.000778  2.370756  0.001  -0.596842  -0.001301  2.346866  -0.002  -1.117433  0.001953  -0.334088  -0.55984  0.001369  2.387225  0.002
O  O125  1  0.11354658  0.80210424  0.41015576  1  -0.611941  0.001216  2.09711  0.002  -0.574621  -0.000766  2.37068  -0.001  -0.596788  0.001372  2.346935  0.002  -1.116589  -0.001936  -0.334096  -0.559727  -0.001358  2.38713  -0.002
O  O126  1  0.95149841  0.17515465  0.74598373  1  -0.605566  -0.000793  1.998002  -0.002  -0.579501  -0.000551  2.245077  -0.001  -0.598568  -0.000197  2.231979  -0.001  -1.172273  -0.000797  -0.308062  -0.565784  -0.000601  2.253541  -0.001
O  O127  1  0.04849868  0.82485845  0.25401132  1  -0.605493  0.000797  1.99769  0.002  -0.579421  0.000554  2.24484  0.001  -0.599673  0.000183  2.231346  0.001  -1.171964  0.000799  -0.30802  -0.565701  0.000602  2.253296  0.001
O  O128  1  0.22120767  0.29270539  0.27440984  1  -0.54959  0.00258  1.866106  0.003  -0.519417  0.000953  2.078108  0.001  -0.538098  0.000492  2.071419  0.001  -1.137029  0.00205  -0.314002  -0.505765  0.001394  2.081942  0.002
O  O129  1  0.77878122  0.70730185  0.72559806  1  -0.54947  -0.002584  1.866422  -0.003  -0.519301  -0.000952  2.078386  -0.001  -0.537993  -0.000494  2.071722  -0.001  -1.137239  -0.002051  -0.313959  -0.505649  -0.001394  2.082222  -0.002
O  O130  1  0.14370963  0.08417879  0.38543919  1  -0.595588  0.00115  2.011391  0.003  -0.573967  -0.000697  2.271514  0.0  -0.606657  -0.001565  2.264105  -0.001  -1.184657  0.000915  -0.300964  -0.552406  0.000435  2.27652  0.001
O  O131  1  0.85627957  0.91583514  0.61455946  1  -0.595703  -0.001145  2.010973  -0.003  -0.574145  0.000697  2.271167  0.0  -0.606608  0.001555  2.263205  0.001  -1.184484  -0.000905  -0.300949  -0.552583  -0.000429  2.276181  -0.001
O  O132  1  0.94604834  0.09997612  0.33532985  1  -0.62392  0.083188  2.118749  0.101  -0.612787  0.054762  2.427608  0.076  -0.674205  0.046692  2.427502  0.07  -1.090909  0.063072  -0.321179  -0.577013  0.044639  2.428754  0.058
O  O133  1  0.05393116  0.90002861  0.66467453  1  -0.623889  -0.083199  2.118553  -0.101  -0.612743  -0.054772  2.427424  -0.076  -0.672519  -0.046787  2.42778  -0.07  -1.090773  -0.063083  -0.321129  -0.576947  -0.044644  2.42855  -0.058
O  O134  1  0.76284069  0.46961725  0.30048497  1  -0.552151  -0.000708  1.829422  -0.001  -0.526719  -0.000381  2.022719  -0.001  -0.546053  -0.000202  2.016905  0.0  -1.146722  7.8e-05  -0.333757  -0.512648  4.2e-05  2.026074  0.0
O  O135  1  0.23715648  0.53036154  0.69951111  1  -0.552305  0.000704  1.82928  0.001  -0.526767  0.000379  2.022729  0.001  -0.546109  0.000197  2.016915  0.0  -1.146594  -8.2e-05  -0.333733  -0.512708  -4.4e-05  2.026075  0.0
O  O136  1  0.74900794  0.73778947  0.37916880  1  -0.569341  -0.002818  1.990298  -0.004  -0.527499  -0.001556  2.216418  -0.002  -0.559123  -0.001543  2.214429  -0.002  -1.155219  -0.000855  -0.296399  -0.507328  -0.000623  2.217739  -0.001
O  O137  1  0.25098539  0.26220272  0.62084078  1  -0.568982  0.002814  1.99038  0.004  -0.527258  0.001552  2.216382  0.002  -0.558904  0.001487  2.214323  0.002  -1.154703  0.000856  -0.296246  -0.507075  0.000624  2.21768  0.001
O  O138  1  0.78753950  0.79705184  0.24629602  1  -0.606528  0.021145  2.090086  0.025  -0.587781  0.017859  2.380339  0.024  -0.644401  0.020362  2.379036  0.029  -1.099829  0.020168  -0.326289  -0.554488  0.014493  2.38146  0.018
O  O139  1  0.21247215  0.20293783  0.75371503  1  -0.606568  -0.021196  2.090247  -0.025  -0.58787  -0.017894  2.380392  -0.024  -0.642762  -0.02056  2.380163  -0.03  -1.09937  -0.020201  -0.326341  -0.554559  -0.014516  2.381499  -0.018
O  O140  1  0.06501147  0.06418089  0.57237587  1  -0.721328  -0.106175  1.773924  -0.12  -0.748723  -0.044737  2.162849  -0.054  -0.780377  -0.03678  2.129839  -0.048  -0.797056  -0.074922  -0.509031  -0.730037  -0.054068  2.18778  -0.063
O  O141  1  0.93498676  0.93580878  0.42761880  1  -0.721188  0.1063  1.773563  0.12  -0.748575  0.044801  2.162407  0.054  -0.782114  0.035721  2.128614  0.046  -0.796946  0.075003  -0.508928  -0.7299  0.054127  2.187346  0.063
