# generated using pymatgen
data_Zn4H4C26Cl4O17
_symmetry_space_group_name_H-M   'P 1'
_cell_length_a   15.95479297
_cell_length_b   15.95427531
_cell_length_c   20.65396397
_cell_angle_alpha   67.36122594
_cell_angle_beta   67.36426640
_cell_angle_gamma   90.19817724
_symmetry_Int_Tables_number   1
_chemical_formula_structural   Zn4H4C26Cl4O17
_chemical_formula_sum   'Zn8 H8 C52 Cl8 O34'
_cell_volume   4407.05677067
_cell_formula_units_Z   2
loop_
 _symmetry_equiv_pos_site_id
 _symmetry_equiv_pos_as_xyz
  1  'x, y, z'
loop_
 _atom_site_type_symbol
 _atom_site_label
 _atom_site_symmetry_multiplicity
 _atom_site_fract_x
 _atom_site_fract_y
 _atom_site_fract_z
 _atom_site_occupancy
 _atom_site_pbe_bader_charge
 _atom_site_pbe_bader_spin_density
 _atom_site_pbe_cm5_charge
 _atom_site_pbe_ddec_charge
 _atom_site_pbe_ddec_spin_density
 _atom_site_pbe_ddec_sum_bond_order
 _atom_site_pbe_magmom
Zn  Zn0  1  0.78260164  0.38344708  0.43357220  1  1.318572  0  0.680585  0.976077  0  2.340124  0
Zn  Zn1  1  0.21739967  0.61655299  0.56642759  1  1.318622  0  0.6806  0.976063  0  2.339969  0
Zn  Zn2  1  0.18300005  0.78376397  0.43358912  1  1.327655  0  0.680255  0.974887  0  2.341519  0
Zn  Zn3  1  0.81700046  0.21623635  0.56641112  1  1.327611  0  0.68022  0.974842  0  2.341667  0
Zn  Zn4  1  0.78375713  0.18300112  0.43359276  1  1.327774  0  0.680279  0.974865  0  2.341625  0
Zn  Zn5  1  0.21624394  0.81700082  0.56640655  1  1.327652  0  0.680251  0.974852  0  2.341705  0
Zn  Zn6  1  0.38343759  0.78260432  0.43357162  1  1.318588  0  0.680699  0.976155  0  2.33975  0
Zn  Zn7  1  0.61656348  0.21739665  0.56642865  1  1.318816  0  0.680757  0.976146  0  2.339678  0
H  H8  1  0.83758531  0.52879936  0.87176145  1  0.604385  0  0.28342  0.311708  0  1.035012  0
H  H9  1  0.16241172  0.47119894  0.12823734  1  0.60441  0  0.283408  0.311667  0  1.035124  0
H  H10  1  0.52848543  0.83761175  0.87178451  1  0.605565  0  0.283271  0.311646  0  1.035643  0
H  H11  1  0.47151408  0.16238585  0.12821637  1  0.605553  0  0.283283  0.311664  0  1.035622  0
H  H12  1  0.29061798  0.59946792  0.87174083  1  0.603757  0  0.283181  0.31144  0  1.035197  0
H  H13  1  0.70937869  0.40053125  0.12825917  1  0.603811  0  0.283179  0.311424  0  1.035195  0
H  H14  1  0.59978393  0.29058725  0.87171852  1  0.603114  0  0.283422  0.3117  0  1.035025  0
H  H15  1  0.40021706  0.70941080  0.12828123  1  0.603116  0  0.283457  0.31176  0  1.034988  0
C  C16  1  0.64588666  0.14588186  0.70816749  1  1.556424  0  0.220011  0.616642  0  4.222547  0
C  C17  1  0.09120471  0.59116598  0.50000310  1  1.675135  0  0.243523  0.674594  0  4.224936  0
C  C18  1  0.50613361  0.13327480  0.04009013  1  0.694249  0  0.070213  0.163168  0  4.063977  0
C  C19  1  0.17337661  0.54605305  0.95989258  1  0.470874  0  0.069849  0.162872  0  4.06333  0
C  C20  1  0.82661834  0.45394803  0.04010758  1  0.470845  0  0.069896  0.16298  0  4.063145  0
C  C21  1  0.54626180  0.17335619  0.95987558  1  0.472047  0  0.069528  0.162016  0  4.063678  0
C  C22  1  0.45373838  0.82664161  0.04012510  1  0.471915  0  0.069525  0.16201  0  4.063593  0
C  C23  1  0.09082820  0.90916082  0.50000244  1  1.649427  0  0.243994  0.674883  0  4.220514  0
C  C24  1  0.90917067  0.09083851  0.49999256  1  1.649418  0  0.243933  0.674731  0  4.22082  0
C  C25  1  0.59116194  0.09118826  0.50002634  1  1.673438  0  0.243402  0.674341  0  4.224936  0
C  C26  1  0.40883889  0.90881361  0.49997442  1  1.673447  0  0.24345  0.67441  0  4.22502  0
C  C27  1  0.40918342  0.59081647  0.50000495  1  1.660689  0  0.244002  0.675669  0  4.221259  0
C  C28  1  0.59081313  0.40918024  0.49999820  1  1.660654  0  0.244011  0.67581  0  4.221092  0
C  C29  1  0.90879568  0.40883624  0.49999593  1  1.67503  0  0.243554  0.674625  0  4.224876  0
C  C30  1  0.35410730  0.85411746  0.29183235  1  1.556575  0  0.220017  0.61666  0  4.22238  0
C  C31  1  0.52683543  0.47316969  0.49999729  1  -0.144155  0  -0.009839  -0.10111  0  3.906966  0
C  C32  1  0.47316712  0.52683221  0.50000137  1  0.043792  0  -0.009655  -0.100801  0  3.906917  0
C  C33  1  0.02693965  0.52690905  0.50002118  1  0.041041  0  -0.012012  -0.102354  0  3.903853  0
C  C34  1  0.97306098  0.47309033  0.49997930  1  -0.178349  0  -0.011948  -0.102242  0  3.903859  0
C  C35  1  0.97316551  0.02683872  0.49999902  1  -0.142672  0  -0.00976  -0.100787  0  3.905663  0
C  C36  1  0.14588535  0.64588560  0.70816856  1  1.556454  0  0.220064  0.616989  0  4.222682  0
C  C37  1  0.02683511  0.97316309  0.49999904  1  0.04564  0  -0.009619  -0.10057  0  3.905639  0
C  C38  1  0.47309035  0.97306793  0.49997067  1  -0.177998  0  -0.012045  -0.102415  0  3.90372  0
C  C39  1  0.52690935  0.02693312  0.50002953  1  0.041832  0  -0.01184  -0.102154  0  3.903608  0
C  C40  1  0.85411248  0.35411197  0.29183027  1  1.556611  0  0.220114  0.617042  0  4.222434  0
C  C41  1  0.15496481  0.60252809  0.83550237  1  0.008088  0  0.011182  0.084782  0  3.968516  0
C  C42  1  0.84503014  0.39747299  0.16449779  1  0.00797  0  0.011186  0.084706  0  3.968691  0
C  C43  1  0.60264273  0.15493649  0.83549690  1  0.009252  0  0.011142  0.084577  0  3.968626  0
C  C44  1  0.39735689  0.84506114  0.16450326  1  0.009201  0  0.01117  0.084656  0  3.968443  0
C  C45  1  0.00950839  0.56197643  0.83547907  1  0.078932  0  0.011341  0.085425  0  3.968405  0
C  C46  1  0.99048884  0.43802339  0.16452097  1  0.078587  0  0.011335  0.085396  0  3.968449  0
C  C47  1  0.56189518  0.00952639  0.83548767  1  0.078445  0  0.010917  0.084908  0  3.968238  0
C  C48  1  0.43810704  0.99047202  0.16451240  1  0.078555  0  0.010953  0.085018  0  3.968191  0
C  C49  1  0.10234424  0.60236787  0.79527967  1  0.123943  0  -0.028091  -0.137848  0  4.022814  0
C  C50  1  0.89765287  0.39763336  0.20471964  1  0.124214  0  -0.028115  -0.13784  0  4.022873  0
C  C51  1  0.60238394  0.10233788  0.79527938  1  0.124646  0  -0.027991  -0.137609  0  4.023311  0
C  C52  1  0.39761680  0.89766154  0.20472037  1  0.124682  0  -0.028032  -0.137799  0  4.023173  0
C  C53  1  0.96433550  0.52498167  0.91706716  1  0.001471  0  -0.01521  -0.077488  0  4.031947  0
C  C54  1  0.03566061  0.47501685  0.08293280  1  0.001434  0  -0.015156  -0.07744  0  4.03185  0
C  C55  1  0.52488191  0.96433584  0.91707882  1  0.000714  0  -0.014928  -0.076884  0  4.031043  0
C  C56  1  0.47511815  0.03566337  0.08292113  1  0.000442  0  -0.014915  -0.076807  0  4.031017  0
C  C57  1  0.11857239  0.55790677  0.91707825  1  0.060101  0  -0.014605  -0.07638  0  4.031465  0
C  C58  1  0.88142244  0.44209523  0.08292167  1  0.060131  0  -0.014482  -0.076193  0  4.031097  0
C  C59  1  0.55801891  0.11855194  0.91707276  1  0.059993  0  -0.014646  -0.07611  0  4.03104  0
C  C60  1  0.44198128  0.88144635  0.08292743  1  0.060184  0  -0.014641  -0.076094  0  4.031009  0
C  C61  1  0.02061231  0.52059858  0.95876205  1  -0.047047  0  -0.004287  0.015597  0  3.9252  0
C  C62  1  0.97938388  0.47940335  0.04123795  1  0.124628  0  -0.004487  0.015312  0  3.925162  0
C  C63  1  0.52060103  0.02060704  0.95876257  1  0.124689  0  -0.004336  0.015346  0  3.925051  0
C  C64  1  0.47939903  0.97939218  0.04123739  1  -0.046821  0  -0.004314  0.015301  0  3.925067  0
C  C65  1  0.86671191  0.49407810  0.95989124  1  0.69572  0  0.070096  0.162571  0  4.06458  0
C  C66  1  0.13328544  0.50592224  0.04010759  1  0.695758  0  0.070153  0.162795  0  4.064529  0
C  C67  1  0.49386793  0.86672438  0.95990918  1  0.694222  0  0.070225  0.163233  0  4.063846  0
Cl  Cl68  1  0.26834412  0.66335011  0.77693585  1  -0.205659  0  0.040614  -0.040788  0  1.560247  0
Cl  Cl69  1  0.73165139  0.33665113  0.22306484  1  -0.205623  0  0.04061  -0.040755  0  1.560352  0
Cl  Cl70  1  0.66358272  0.26827581  0.77692900  1  -0.206269  0  0.040587  -0.040848  0  1.56023  0
Cl  Cl71  1  0.33641838  0.73172082  0.22307147  1  -0.206332  0  0.040588  -0.040841  0  1.560236  0
Cl  Cl72  1  0.95468645  0.55966639  0.77694693  1  -0.209831  0  0.04109  -0.040377  0  1.561293  0
Cl  Cl73  1  0.04530998  0.44033367  0.22305355  1  -0.209756  0  0.041096  -0.040364  0  1.561331  0
Cl  Cl74  1  0.55948638  0.95473530  0.77695647  1  -0.210246  0  0.041137  -0.040374  0  1.56134  0
Cl  Cl75  1  0.44051585  0.04526263  0.22304409  1  -0.21024  0  0.041103  -0.040411  0  1.561393  0
O  O76  1  0.74998018  0.25002329  0.50000008  1  -1.249765  0  -0.570955  -1.042621  0  2.52197  0
O  O77  1  0.26783798  0.85168919  0.32419867  1  -1.157041  0  -0.305831  -0.534221  0  2.331841  0
O  O78  1  0.14834866  0.73215685  0.67580269  1  -1.157017  0  -0.305713  -0.534263  0  2.332413  0
O  O79  1  0.85164617  0.26784612  0.32419626  1  -1.157059  0  -0.305694  -0.534276  0  2.332491  0
O  O80  1  0.59194490  0.17581304  0.67584578  1  -1.146872  0  -0.306301  -0.53459  0  2.3327  0
O  O81  1  0.40805641  0.82418510  0.32415595  1  -1.146777  0  -0.306375  -0.53469  0  2.332344  0
O  O82  1  0.17578541  0.59192259  0.67584383  1  -1.146624  0  -0.306485  -0.534935  0  2.332197  0
O  O83  1  0.82421202  0.40807971  0.32415649  1  -1.1466  0  -0.306564  -0.535013  0  2.331917  0
O  O84  1  0.73216492  0.14831088  0.67579975  1  -1.156694  0  -0.305859  -0.534277  0  2.331647  0
O  O85  1  0.25002089  0.74997768  0.50000019  1  -1.249708  0  -0.570954  -1.042638  0  2.521955  0
O  O86  1  0.88580847  0.32799261  0.55428715  1  -1.143782  0  -0.299351  -0.526625  0  2.276898  0
O  O87  1  0.11418896  0.67200873  0.44571414  1  -1.143921  0  -0.299307  -0.526586  0  2.276881  0
O  O88  1  0.13704234  0.90587943  0.53906448  1  -1.138814  0  -0.298988  -0.524148  0  2.26761  0
O  O89  1  0.86296041  0.09412349  0.46093591  1  -1.138973  0  -0.298927  -0.523965  0  2.268151  0
O  O90  1  0.55988110  0.11774980  0.55432192  1  -1.142772  0  -0.300099  -0.527646  0  2.274433  0
O  O91  1  0.44011929  0.88225435  0.44567517  1  -1.142579  0  -0.300146  -0.52774  0  2.274482  0
O  O92  1  0.32390799  0.55501442  0.53897072  1  -1.144402  0  -0.299037  -0.524737  0  2.267769  0
O  O93  1  0.67609851  0.44498914  0.46102697  1  -1.144367  0  -0.298975  -0.524784  0  2.267449  0
O  O94  1  0.09410619  0.86294724  0.46094192  1  -1.139175  0  -0.29889  -0.524041  0  2.267439  0
O  O95  1  0.90589360  0.13705577  0.53905976  1  -1.139111  0  -0.298914  -0.524039  0  2.267232  0
O  O96  1  0.88223374  0.44012412  0.44569273  1  -1.14306  0  -0.300262  -0.527925  0  2.274188  0
O  O97  1  0.11776929  0.55987695  0.55430399  1  -1.143131  0  -0.300245  -0.527905  0  2.274274  0
O  O98  1  0.44497464  0.67609265  0.46104401  1  -1.144292  0  -0.298936  -0.524604  0  2.26791  0
O  O99  1  0.55502923  0.32391303  0.53895500  1  -1.144369  0  -0.299016  -0.52466  0  2.268142  0
O  O100  1  0.67200980  0.11416846  0.44573607  1  -1.14325  0  -0.299356  -0.526572  0  2.276629  0
O  O101  1  0.32799150  0.88583065  0.55426469  1  -1.143129  0  -0.299366  -0.526559  0  2.276666  0
O  O102  1  0.80504406  0.50367619  0.92816233  1  -1.100354  0  -0.350292  -0.391389  0  2.334238  0
O  O103  1  0.19495217  0.49632285  0.07183642  1  -1.10028  0  -0.350312  -0.391463  0  2.334424  0
O  O104  1  0.50335129  0.80506139  0.92818343  1  -1.101668  0  -0.350129  -0.391664  0  2.334194  0
O  O105  1  0.49664754  0.19493600  0.07181766  1  -1.101599  0  -0.350108  -0.39166  0  2.334192  0
O  O106  1  0.26675957  0.56826066  0.92814630  1  -1.086306  0  -0.349856  -0.391082  0  2.334187  0
O  O107  1  0.73323574  0.43173859  0.07185362  1  -1.086412  0  -0.349926  -0.391154  0  2.334088  0
O  O108  1  0.56859599  0.26673602  0.92812200  1  -1.084889  0  -0.349869  -0.390872  0  2.334071  0
O  O109  1  0.43140419  0.73326227  0.07187820  1  -1.084732  0  -0.349887  -0.390935  0  2.334011  0
