# generated using pymatgen
data_ZnH5C9N5
_symmetry_space_group_name_H-M   'P 1'
_cell_length_a   10.83297057
_cell_length_b   13.93493419
_cell_length_c   13.93492420
_cell_angle_alpha   113.53197015
_cell_angle_beta   105.03201883
_cell_angle_gamma   105.03219820
_symmetry_Int_Tables_number   1
_chemical_formula_structural   ZnH5C9N5
_chemical_formula_sum   'Zn6 H30 C54 N30'
_cell_volume   1699.00359159
_cell_formula_units_Z   6
loop_
 _symmetry_equiv_pos_site_id
 _symmetry_equiv_pos_as_xyz
  1  'x, y, z'
loop_
 _atom_site_type_symbol
 _atom_site_label
 _atom_site_symmetry_multiplicity
 _atom_site_fract_x
 _atom_site_fract_y
 _atom_site_fract_z
 _atom_site_occupancy
 _atom_site_pbe_bader_charge
 _atom_site_pbe_bader_spin_density
 _atom_site_pbe_cm5_charge
 _atom_site_pbe_ddec_charge
 _atom_site_pbe_ddec_spin_density
 _atom_site_pbe_ddec_sum_bond_order
 _atom_site_pbe_magmom
Zn  Zn0  1  0.89222186  0.66812570  0.92012756  1  1.202274  0  0.720537  0.648107  0  2.494438  0
Zn  Zn1  1  0.97217062  0.07984834  0.74806660  1  1.203237  0  0.720252  0.64817  0  2.496073  0
Zn  Zn2  1  0.22380670  0.25188444  0.33173271  1  1.202644  0  0.71983  0.646964  0  2.494665  0
Zn  Zn3  1  0.47217212  0.74806599  0.07984872  1  1.203257  0  0.720244  0.648144  0  2.496049  0
Zn  Zn4  1  0.72380619  0.33173228  0.25188337  1  1.202754  0  0.719851  0.646992  0  2.494674  0
Zn  Zn5  1  0.39222204  0.92012701  0.66812576  1  1.202327  0  0.720529  0.64809  0  2.494482  0
H  H6  1  0.27370334  0.22945198  0.86748538  1  0.092498  0  0.107545  0.075364  0  1.024397  0
H  H7  1  0.40611515  0.13282974  0.36192288  1  0.093897  0  0.108038  0.076457  0  1.024217  0
H  H8  1  0.04403353  0.63808818  0.77070286  1  0.071854  0  0.107878  0.076293  0  1.026251  0
H  H9  1  0.90611307  0.36192193  0.13282797  1  0.09391  0  0.108042  0.076455  0  1.024208  0
H  H10  1  0.54403305  0.77070326  0.63808482  1  0.071865  0  0.107859  0.076301  0  1.026246  0
H  H11  1  0.77370313  0.86748511  0.22945341  1  0.092518  0  0.107539  0.075375  0  1.024369  0
H  H12  1  0.42915141  0.43927171  0.97499296  1  0.087772  0  0.105002  0.127102  0  1.037525  0
H  H13  1  0.45439090  0.02540644  0.46419129  1  0.112164  0  0.105803  0.128121  0  1.037484  0
H  H14  1  0.98982177  0.53589947  0.56099488  1  0.104299  0  0.105227  0.127891  0  1.03798  0
H  H15  1  0.95439284  0.46419143  0.02540573  1  0.112004  0  0.1058  0.128116  0  1.037457  0
H  H16  1  0.48982524  0.56099497  0.53589512  1  0.104299  0  0.105243  0.127895  0  1.037932  0
H  H17  1  0.92915052  0.97499453  0.43927332  1  0.087754  0  0.105006  0.127116  0  1.0375  0
H  H18  1  0.90725484  0.28206042  0.79470533  1  0.105231  0  0.121568  0.104731  0  0.974709  0
H  H19  1  0.11264894  0.20534066  0.48764934  1  0.104753  0  0.120889  0.103014  0  0.974694  0
H  H20  1  0.62480216  0.51241553  0.71764849  1  0.095719  0  0.121806  0.104772  0  0.976223  0
H  H21  1  0.61264833  0.48764880  0.20534003  1  0.104751  0  0.120891  0.103018  0  0.974689  0
H  H22  1  0.12480204  0.71765009  0.51241825  1  0.095706  0  0.121805  0.104778  0  0.976231  0
H  H23  1  0.40725386  0.79470463  0.28206194  1  0.105211  0  0.121577  0.104739  0  0.974732  0
H  H24  1  0.39146277  0.00632896  0.15211224  1  0.086235  0  0.110931  0.105187  0  1.019156  0
H  H25  1  0.23914579  0.84783873  0.85405629  1  0.068148  0  0.110875  0.104859  0  1.020053  0
H  H26  1  0.38447598  0.14568558  0.99352226  1  0.092802  0  0.111023  0.104989  0  1.019333  0
H  H27  1  0.73914917  0.85405919  0.84784247  1  0.068078  0  0.110899  0.1049  0  1.020072  0
H  H28  1  0.88447554  0.99352304  0.14568846  1  0.092888  0  0.111043  0.104994  0  1.01931  0
H  H29  1  0.89146170  0.15211182  0.00632907  1  0.086238  0  0.110929  0.10518  0  1.01916  0
H  H30  1  0.10605624  0.94800070  0.07391066  1  0.076896  0  0.111578  0.099725  0  1.025134  0
H  H31  1  0.03208720  0.92605857  0.87394827  1  0.095925  0  0.111168  0.099344  0  1.025156  0
H  H32  1  0.15751146  0.12580255  0.05185377  1  0.095627  0  0.111475  0.09976  0  1.02489  0
H  H33  1  0.53209132  0.87395229  0.92606278  1  0.095837  0  0.111102  0.099265  0  1.025164  0
H  H34  1  0.65751050  0.05185463  0.12580356  1  0.095486  0  0.11148  0.099749  0  1.024891  0
H  H35  1  0.60605594  0.07391155  0.94800354  1  0.076883  0  0.111596  0.09976  0  1.02518  0
C  C36  1  0.22933918  0.29277076  0.87747324  1  0.420443  0  0.021271  0.061414  0  4.008202  0
C  C37  1  0.35192321  0.12281540  0.41534662  1  0.40262  0  0.020213  0.058665  0  4.006524  0
C  C38  1  0.93637050  0.58471068  0.70730989  1  0.401499  0  0.021216  0.060485  0  4.009982  0
C  C39  1  0.85192340  0.41534599  0.12281298  1  0.402581  0  0.020245  0.058755  0  4.006442  0
C  C40  1  0.43637081  0.70730940  0.58470667  1  0.401447  0  0.021255  0.060488  0  4.010119  0
C  C41  1  0.72933911  0.87747298  0.29277139  1  0.420446  0  0.021293  0.061414  0  4.008127  0
C  C42  1  0.31578189  0.40878671  0.93667768  1  0.056588  0  -0.096034  -0.207514  0  3.970538  0
C  C43  1  0.37931614  0.06364612  0.47215289  1  -0.001406  0  -0.095487  -0.207021  0  3.972276  0
C  C44  1  0.90681096  0.52796934  0.59130895  1  0.107423  0  -0.097077  -0.209926  0  3.974484  0
C  C45  1  0.87931519  0.47215241  0.06364554  1  -0.001295  0  -0.095465  -0.207023  0  3.972369  0
C  C46  1  0.40681082  0.59131045  0.52796549  1  0.10753  0  -0.09705  -0.209867  0  3.974551  0
C  C47  1  0.81578074  0.93667819  0.40878704  1  0.056605  0  -0.096042  -0.207521  0  3.970477  0
C  C48  1  0.24971855  0.48392867  0.94456959  1  0.489175  0  0.103001  0.198123  0  4.041592  0
C  C49  1  0.30542140  0.05563558  0.53943037  1  0.471124  0  0.101819  0.196461  0  4.043909  0
C  C50  1  0.76562034  0.46068980  0.51604150  1  0.395116  0  0.104721  0.200845  0  4.042625  0
C  C51  1  0.80542181  0.53942938  0.05563360  1  0.471124  0  0.101769  0.196407  0  4.043946  0
C  C52  1  0.26562039  0.51604342  0.46068703  1  0.395037  0  0.104636  0.200791  0  4.042702  0
C  C53  1  0.74971692  0.94457074  0.48392953  1  0.489208  0  0.102948  0.19803  0  4.04162  0
C  C54  1  0.09936579  0.43869900  0.89240847  1  0.349942  0  0.083293  0.102863  0  4.082134  0
C  C55  1  0.20722001  0.10773595  0.54642071  1  0.448103  0  0.083161  0.102353  0  4.082783  0
C  C56  1  0.66040857  0.45369227  0.56115660  1  0.390365  0  0.083312  0.102598  0  4.082523  0
C  C57  1  0.70722078  0.54641970  0.10773573  1  0.448081  0  0.083173  0.102393  0  4.082734  0
C  C58  1  0.16040904  0.56115680  0.45369127  1  0.390262  0  0.083302  0.102498  0  4.082494  0
C  C59  1  0.59936379  0.89240885  0.43869964  1  0.349817  0  0.0833  0.102833  0  4.082148  0
C  C60  1  0.02153415  0.32074916  0.83514461  1  0.519343  0  0.039987  0.008151  0  3.928607  0
C  C61  1  0.18651361  0.16496810  0.48576749  1  0.465689  0  0.040895  0.01095  0  3.92833  0
C  C62  1  0.70048132  0.51428039  0.67909472  1  0.534403  0  0.039597  0.007821  0  3.935444  0
C  C63  1  0.68651368  0.48576894  0.16496846  1  0.465798  0  0.040885  0.010927  0  3.928348  0
C  C64  1  0.20047944  0.67909530  0.51428021  1  0.534416  0  0.039595  0.007839  0  3.935371  0
C  C65  1  0.52153311  0.83514425  0.32075094  1  0.519382  0  0.039975  0.008107  0  3.928632  0
C  C66  1  0.17891164  0.61991784  0.97140049  1  0.99929  0  0.204847  0.24892  0  4.136318  0
C  C67  1  0.20767451  0.02864129  0.64849817  1  1.000616  0  0.203738  0.245157  0  4.140239  0
C  C68  1  0.55873320  0.35154850  0.37991275  1  1.002131  0  0.204903  0.248649  0  4.137919  0
C  C69  1  0.70767676  0.64849793  0.02864044  1  1.000938  0  0.203739  0.245182  0  4.140186  0
C  C70  1  0.05873230  0.37991278  0.35154979  1  1.002148  0  0.204879  0.248581  0  4.137888  0
C  C71  1  0.67890890  0.97140061  0.61991891  1  0.99926  0  0.204908  0.248873  0  4.136293  0
C  C72  1  0.19615501  0.73719392  0.01375834  1  0.977338  0  0.1866  0.207071  0  4.100765  0
C  C73  1  0.18241773  0.98620672  0.72333755  1  0.981651  0  0.187354  0.20948  0  4.102042  0
C  C74  1  0.45861859  0.27659815  0.26265377  1  0.967076  0  0.187076  0.206626  0  4.102045  0
C  C75  1  0.68241923  0.72333864  0.98620879  1  0.981336  0  0.1873  0.209364  0  4.102172  0
C  C76  1  0.95861914  0.26265426  0.27660106  1  0.967048  0  0.18712  0.206641  0  4.102119  0
C  C77  1  0.69615430  0.01375874  0.73719359  1  0.977257  0  0.186623  0.20715  0  4.100739  0
C  C78  1  0.30541402  0.92209812  0.10428107  1  0.420996  0  -0.009117  -0.037402  0  4.026392  0
C  C79  1  0.20103813  0.89568410  0.81768815  1  0.421895  0  -0.010675  -0.039616  0  4.025013  0
C  C80  1  0.38277453  0.18213130  0.07775095  1  0.39651  0  -0.010127  -0.038479  0  4.025618  0
C  C81  1  0.70104295  0.81769095  0.89568614  1  0.422379  0  -0.010697  -0.039819  0  4.025061  0
C  C82  1  0.88277324  0.07775281  0.18213534  1  0.396467  0  -0.010114  -0.03846  0  4.025644  0
C  C83  1  0.80541343  0.10428007  0.92209905  1  0.42101  0  -0.009159  -0.037419  0  4.026413  0
C  C84  1  0.16230342  0.89317149  0.06465833  1  0.337314  0  -0.010155  -0.042431  0  4.011718  0
C  C85  1  0.09759246  0.93532560  0.82838474  1  0.346245  0  -0.009186  -0.040819  0  4.009491  0
C  C86  1  0.26862012  0.17144185  0.10670153  1  0.393214  0  -0.010263  -0.043452  0  4.010453  0
C  C87  1  0.59759625  0.82838529  0.93532897  1  0.345985  0  -0.00911  -0.040599  0  4.009352  0
C  C88  1  0.76861938  0.10670142  0.17144327  1  0.393356  0  -0.010267  -0.043401  0  4.010401  0
C  C89  1  0.66230353  0.06465912  0.89317353  1  0.337212  0  -0.010172  -0.042488  0  4.011814  0
N  N90  1  0.08698482  0.24962941  0.82834277  1  -1.317435  0  -0.351541  -0.240975  0  3.673833  0
N  N91  1  0.25862832  0.17182445  0.42137674  1  -1.272353  0  -0.35187  -0.240759  0  3.670746  0
N  N92  1  0.83706826  0.57862279  0.75034068  1  -1.279503  0  -0.352495  -0.241917  0  3.67778  0
N  N93  1  0.75862836  0.42137613  0.17182333  1  -1.27241  0  -0.351903  -0.240834  0  3.670711  0
N  N94  1  0.33706956  0.75034075  0.57862114  1  -1.279466  0  -0.3525  -0.241932  0  3.67777  0
N  N95  1  0.58698384  0.82834230  0.24963082  1  -1.317413  0  -0.35152  -0.240891  0  3.673685  0
N  N96  1  0.05717089  0.52754995  0.91129188  1  -1.15794  0  -0.345491  -0.411751  0  3.22738  0
N  N97  1  0.14613280  0.08878259  0.61634737  1  -1.194364  0  -0.344609  -0.4106  0  3.227669  0
N  N98  1  0.52935585  0.38376362  0.47223825  1  -1.17925  0  -0.345546  -0.412011  0  3.228204  0
N  N99  1  0.64613252  0.61634633  0.08878271  1  -1.194297  0  -0.3446  -0.410595  0  3.227595  0
N  N100  1  0.02935537  0.47223832  0.38376450  1  -1.179193  0  -0.345526  -0.411896  0  3.228173  0
N  N101  1  0.55717011  0.91129243  0.52755199  1  -1.157847  0  -0.345461  -0.411633  0  3.227379  0
N  N102  1  0.29871439  0.60064228  0.99504149  1  -1.253178  0  -0.371394  -0.395326  0  3.459673  0
N  N103  1  0.30387665  0.00507036  0.60559615  1  -1.240736  0  -0.370536  -0.392404  0  3.461138  0
N  N104  1  0.69788689  0.39448948  0.39930168  1  -1.247407  0  -0.371395  -0.394286  0  3.458502  0
N  N105  1  0.80387684  0.60559572  0.00507090  1  -1.240746  0  -0.370552  -0.392426  0  3.461152  0
N  N106  1  0.19788790  0.39930309  0.39448751  1  -1.247391  0  -0.371349  -0.394236  0  3.458434  0
N  N107  1  0.79871385  0.99504219  0.60064361  1  -1.253182  0  -0.371439  -0.395323  0  3.459598  0
N  N108  1  0.32621271  0.82281258  0.07129658  1  -1.259775  0  -0.36352  -0.340454  0  3.509695  0
N  N109  1  0.25485519  0.92866101  0.75139200  1  -1.251107  0  -0.36343  -0.339984  0  3.508755  0
N  N110  1  0.50296250  0.24848230  0.17702140  1  -1.254293  0  -0.363944  -0.340386  0  3.507399  0
N  N111  1  0.75485879  0.75139384  0.92866249  1  -1.251165  0  -0.363385  -0.339827  0  3.508648  0
N  N112  1  0.00296119  0.17702176  0.24848474  1  -1.254263  0  -0.363973  -0.340432  0  3.507492  0
N  N113  1  0.82621007  0.07129676  0.82281230  1  -1.259737  0  -0.363525  -0.340478  0  3.509773  0
N  N114  1  0.09344224  0.77552791  0.00665849  1  -1.235359  0  -0.368709  -0.310927  0  3.574149  0
N  N115  1  0.08681111  0.99331559  0.76875048  1  -1.253172  0  -0.368232  -0.311105  0  3.577214  0
N  N116  1  0.31754601  0.23114447  0.22434008  1  -1.290847  0  -0.367619  -0.30796  0  3.574382  0
N  N117  1  0.58681439  0.76875060  0.99331675  1  -1.253199  0  -0.368211  -0.311111  0  3.577394  0
N  N118  1  0.81754554  0.22434128  0.23114589  1  -1.290959  0  -0.367646  -0.307989  0  3.574319  0
N  N119  1  0.59343915  0.00665923  0.77552965  1  -1.235292  0  -0.368691  -0.310917  0  3.574006  0
