# generated using pymatgen
data_ZnH5C6N5O
_symmetry_space_group_name_H-M   'P 1'
_cell_length_a   6.54009852
_cell_length_b   14.55839702
_cell_length_c   16.33915377
_cell_angle_alpha   90.00006086
_cell_angle_beta   90.00004326
_cell_angle_gamma   89.99996072
_symmetry_Int_Tables_number   1
_chemical_formula_structural   ZnH5C6N5O
_chemical_formula_sum   'Zn8 H40 C48 N40 O8'
_cell_volume   1555.70558017
_cell_formula_units_Z   8
loop_
 _symmetry_equiv_pos_site_id
 _symmetry_equiv_pos_as_xyz
  1  'x, y, z'
loop_
 _atom_site_type_symbol
 _atom_site_label
 _atom_site_symmetry_multiplicity
 _atom_site_fract_x
 _atom_site_fract_y
 _atom_site_fract_z
 _atom_site_occupancy
 _atom_site_hle17_bader_spin_density
 _atom_site_hle17_ddec_charge
 _atom_site_hle17_ddec_spin_density
 _atom_site_hle17_ddec_sum_bond_order
 _atom_site_hle17_magmom
 _atom_site_hse06_10hf_bader_spin_density
 _atom_site_hse06_10hf_ddec_charge
 _atom_site_hse06_10hf_ddec_spin_density
 _atom_site_hse06_10hf_ddec_sum_bond_order
 _atom_site_hse06_10hf_magmom
 _atom_site_hse06_bader_spin_density
 _atom_site_hse06_ddec_charge
 _atom_site_hse06_ddec_spin_density
 _atom_site_hse06_ddec_sum_bond_order
 _atom_site_hse06_magmom
 _atom_site_pbe_bader_spin_density
 _atom_site_pbe_cm5_charge
 _atom_site_pbe_ddec_charge
 _atom_site_pbe_ddec_spin_density
 _atom_site_pbe_ddec_sum_bond_order
 _atom_site_pbe_magmom
Zn  Zn0  1  0.22962666  0.77791025  0.78858653  1  0  1.015714  0  1.890665  0  0  0.828814  0  2.366434  0  0  0.871903  0  2.312147  0  0  0.67191  0.798617  0  2.403943  0
Zn  Zn1  1  0.22962697  0.27791011  0.71141339  1  0  1.015757  0  1.890631  0  0  0.828843  0  2.366406  0  0  0.871931  0  2.312122  0  0  0.671937  0.798657  0  2.403894  0
Zn  Zn2  1  0.27037328  0.77791064  0.28858757  1  0  1.015763  0  1.890643  0  0  0.828853  0  2.366401  0  0  0.871941  0  2.312116  0  0  0.671947  0.798663  0  2.403903  0
Zn  Zn3  1  0.72962529  0.72209016  0.78858658  1  0  1.01575  0  1.890662  0  0  0.828839  0  2.366454  0  0  0.871928  0  2.312166  0  0  0.671928  0.798641  0  2.403965  0
Zn  Zn4  1  0.77037222  0.22208902  0.21141264  1  0  1.01573  0  1.890655  0  0  0.828825  0  2.366419  0  0  0.871914  0  2.312138  0  0  0.671924  0.798628  0  2.403923  0
Zn  Zn5  1  0.77037344  0.72208917  0.28858762  1  0  1.015744  0  1.890631  0  0  0.828835  0  2.366407  0  0  0.871923  0  2.312123  0  0  0.671931  0.798642  0  2.403913  0
Zn  Zn6  1  0.72962559  0.22208932  0.71141344  1  0  1.015746  0  1.890677  0  0  0.828836  0  2.366439  0  0  0.871926  0  2.312155  0  0  0.671938  0.798648  0  2.40395  0
Zn  Zn7  1  0.27037359  0.27791049  0.21141259  1  0  1.015737  0  1.890652  0  0  0.828821  0  2.366439  0  0  0.871912  0  2.312154  0  0  0.671922  0.798626  0  2.403936  0
H  H8  1  0.12082608  0.21604628  0.90436581  1  0  0.126609  0  0.954957  0  0  0.137723  0  1.01048  0  0  0.141567  0  1.008792  0  0  0.112209  0.13491  0  1.011932  0
H  H9  1  0.12082694  0.71604689  0.59563463  1  0  0.126595  0  0.95496  0  0  0.137711  0  1.010486  0  0  0.141556  0  1.008797  0  0  0.112201  0.134898  0  1.011937  0
H  H10  1  0.37917187  0.21604801  0.40436504  1  0  0.126626  0  0.954929  0  0  0.137736  0  1.010457  0  0  0.14158  0  1.008768  0  0  0.112204  0.13492  0  1.011905  0
H  H11  1  0.62082767  0.28395410  0.90436530  1  0  0.126636  0  0.954933  0  0  0.137746  0  1.010462  0  0  0.141591  0  1.008774  0  0  0.112222  0.134933  0  1.011913  0
H  H12  1  0.87917126  0.78395161  0.09563459  1  0  0.126612  0  0.954928  0  0  0.137725  0  1.010457  0  0  0.14157  0  1.008767  0  0  0.1122  0.134909  0  1.011913  0
H  H13  1  0.87916888  0.28395238  0.40436576  1  0  0.126636  0  0.954913  0  0  0.137747  0  1.010443  0  0  0.141592  0  1.008754  0  0  0.112216  0.13493  0  1.011892  0
H  H14  1  0.62082853  0.78395264  0.59563474  1  0  0.126616  0  0.954934  0  0  0.137731  0  1.010459  0  0  0.141576  0  1.008769  0  0  0.112216  0.134917  0  1.011909  0
H  H15  1  0.37917120  0.71604792  0.09563387  1  0  0.126628  0  0.954926  0  0  0.137746  0  1.01045  0  0  0.141591  0  1.00876  0  0  0.112214  0.134931  0  1.011898  0
H  H16  1  0.16149277  0.31056715  0.03113703  1  0  0.075708  0  0.980719  0  0  0.078714  0  1.054438  0  0  0.081852  0  1.051821  0  0  0.1121  0.076416  0  1.056314  0
H  H17  1  0.16149280  0.81056752  0.46886312  1  0  0.075738  0  0.980686  0  0  0.078753  0  1.054393  0  0  0.081892  0  1.051779  0  0  0.112112  0.076454  0  1.056273  0
H  H18  1  0.33850587  0.31056880  0.53113725  1  0  0.075709  0  0.980689  0  0  0.078713  0  1.0544  0  0  0.081847  0  1.051801  0  0  0.112094  0.076413  0  1.056284  0
H  H19  1  0.66149298  0.18943286  0.03113644  1  0  0.075711  0  0.980712  0  0  0.078712  0  1.054437  0  0  0.08185  0  1.051818  0  0  0.112097  0.076414  0  1.056314  0
H  H20  1  0.83850610  0.68943143  0.96886213  1  0  0.075717  0  0.98068  0  0  0.078738  0  1.054371  0  0  0.081874  0  1.051773  0  0  0.112103  0.076433  0  1.056263  0
H  H21  1  0.83850301  0.18943176  0.53113788  1  0  0.075702  0  0.980696  0  0  0.078697  0  1.054415  0  0  0.081834  0  1.051809  0  0  0.112101  0.076398  0  1.05629  0
H  H22  1  0.66149454  0.68943185  0.46886314  1  0  0.075711  0  0.980702  0  0  0.078731  0  1.054397  0  0  0.081867  0  1.051793  0  0  0.112108  0.076432  0  1.056283  0
H  H23  1  0.33850437  0.81056847  0.96886212  1  0  0.075722  0  0.980688  0  0  0.07874  0  1.054384  0  0  0.081878  0  1.051779  0  0  0.112108  0.076442  0  1.056259  0
H  H24  1  0.32915416  0.08262522  0.16826645  1  0  0.082426  0  0.974854  0  0  0.08398  0  1.051763  0  0  0.087084  0  1.048323  0  0  0.116815  0.081608  0  1.05438  0
H  H25  1  0.32915393  0.58262473  0.33173415  1  0  0.082421  0  0.974854  0  0  0.083976  0  1.051765  0  0  0.087079  0  1.048326  0  0  0.116816  0.081602  0  1.054378  0
H  H26  1  0.17084814  0.08262554  0.66826601  1  0  0.082392  0  0.974922  0  0  0.083997  0  1.051784  0  0  0.087118  0  1.048324  0  0  0.116804  0.081597  0  1.054428  0
H  H27  1  0.82915402  0.41737491  0.16826608  1  0  0.082434  0  0.974848  0  0  0.083988  0  1.051761  0  0  0.087091  0  1.048321  0  0  0.116819  0.081614  0  1.054377  0
H  H28  1  0.67084778  0.91737543  0.83173394  1  0  0.082432  0  0.974836  0  0  0.083987  0  1.051755  0  0  0.087092  0  1.048313  0  0  0.116821  0.08161  0  1.054376  0
H  H29  1  0.67084953  0.41737523  0.66826685  1  0  0.08242  0  0.974854  0  0  0.083968  0  1.051786  0  0  0.087071  0  1.048345  0  0  0.11681  0.081595  0  1.054413  0
H  H30  1  0.82915379  0.91737442  0.33173377  1  0  0.082354  0  0.974962  0  0  0.083971  0  1.051814  0  0  0.087086  0  1.048361  0  0  0.116797  0.081569  0  1.054461  0
H  H31  1  0.17084639  0.58262437  0.83173371  1  0  0.082407  0  0.974886  0  0  0.083955  0  1.051812  0  0  0.087058  0  1.048372  0  0  0.116803  0.081585  0  1.05443  0
H  H32  1  0.30085868  0.97976169  0.04820190  1  0  0.119427  0  0.927744  0  0  0.131552  0  0.982964  0  0  0.134885  0  0.981968  0  0  0.115158  0.129084  0  0.983965  0
H  H33  1  0.30085791  0.47976115  0.45179907  1  0  0.119414  0  0.927759  0  0  0.131547  0  0.98297  0  0  0.134878  0  0.981976  0  0  0.115156  0.129082  0  0.983966  0
H  H34  1  0.19914203  0.97976270  0.54820085  1  0  0.119429  0  0.927768  0  0  0.131519  0  0.983031  0  0  0.13485  0  0.982038  0  0  0.115145  0.129064  0  0.984019  0
H  H35  1  0.80085914  0.52023919  0.04820176  1  0  0.119418  0  0.927716  0  0  0.131551  0  0.982929  0  0  0.134883  0  0.981933  0  0  0.115165  0.129086  0  0.983932  0
H  H36  1  0.69914325  0.02023826  0.95179910  1  0  0.119407  0  0.927761  0  0  0.131526  0  0.98299  0  0  0.134858  0  0.981996  0  0  0.115146  0.129087  0  0.983962  0
H  H37  1  0.69914555  0.52023881  0.54820194  1  0  0.119385  0  0.927753  0  0  0.131516  0  0.982972  0  0  0.134847  0  0.981979  0  0  0.115148  0.12906  0  0.983966  0
H  H38  1  0.80085838  0.02023795  0.45179893  1  0  0.119378  0  0.927803  0  0  0.131496  0  0.983031  0  0  0.134827  0  0.982038  0  0  0.115127  0.129039  0  0.984018  0
H  H39  1  0.19914126  0.47976146  0.95179863  1  0  0.119394  0  0.927769  0  0  0.131508  0  0.982993  0  0  0.134855  0  0.981982  0  0  0.115149  0.129045  0  0.983998  0
H  H40  1  0.52695234  0.83682118  0.71354110  1  0  0.35733  0  0.986185  0  0  0.31761  0  1.066311  0  0  0.328305  0  1.051214  0  0  0.258866  0.310086  0  1.076889  0
H  H41  1  0.52695279  0.33682112  0.78645896  1  0  0.35733  0  0.986182  0  0  0.317612  0  1.066305  0  0  0.328307  0  1.051208  0  0  0.258878  0.310086  0  1.076887  0
H  H42  1  0.97304607  0.83682082  0.21354220  1  0  0.357333  0  0.986179  0  0  0.317613  0  1.066305  0  0  0.328307  0  1.05121  0  0  0.258877  0.310086  0  1.07689  0
H  H43  1  0.02695236  0.66317852  0.71354094  1  0  0.357311  0  0.986213  0  0  0.317595  0  1.066335  0  0  0.328288  0  1.051239  0  0  0.258864  0.310064  0  1.076924  0
H  H44  1  0.47304654  0.16317878  0.28645807  1  0  0.357337  0  0.986174  0  0  0.317619  0  1.066296  0  0  0.328313  0  1.0512  0  0  0.25888  0.310095  0  1.076877  0
H  H45  1  0.47304609  0.66317884  0.21354143  1  0  0.357328  0  0.986184  0  0  0.317608  0  1.066309  0  0  0.328302  0  1.051213  0  0  0.258877  0.31008  0  1.076894  0
H  H46  1  0.02695281  0.16317846  0.78645880  1  0  0.357313  0  0.986204  0  0  0.317592  0  1.06633  0  0  0.328287  0  1.051234  0  0  0.258881  0.310063  0  1.07692  0
H  H47  1  0.97304652  0.33682076  0.28645884  1  0  0.357333  0  0.986178  0  0  0.317613  0  1.066303  0  0  0.328309  0  1.051205  0  0  0.258883  0.310087  0  1.076885  0
C  C48  1  0.20714298  0.08909414  0.96599747  1  0  0.072297  0  3.765788  0  0  0.087807  0  3.995052  0  0  0.093053  0  4.01463  0  0  0.021881  0.084449  0  3.98172  0
C  C49  1  0.20714372  0.58909399  0.53400287  1  0  0.072254  0  3.765831  0  0  0.087802  0  3.995097  0  0  0.093047  0  4.014675  0  0  0.021906  0.084433  0  3.981773  0
C  C50  1  0.29285681  0.08909589  0.46599668  1  0  0.07229  0  3.765824  0  0  0.087823  0  3.995082  0  0  0.093071  0  4.014658  0  0  0.021925  0.084459  0  3.98175  0
C  C51  1  0.70714285  0.41090628  0.96599770  1  0  0.07225  0  3.765855  0  0  0.087788  0  3.995109  0  0  0.093034  0  4.014687  0  0  0.021882  0.084422  0  3.981786  0
C  C52  1  0.79285743  0.91090444  0.03400292  1  0  0.072301  0  3.765784  0  0  0.087815  0  3.995035  0  0  0.093062  0  4.014609  0  0  0.021912  0.084451  0  3.98171  0
C  C53  1  0.79285974  0.41090460  0.46599752  1  0  0.072294  0  3.765833  0  0  0.087833  0  3.995112  0  0  0.093081  0  4.014687  0  0  0.021879  0.084468  0  3.98178  0
C  C54  1  0.70714359  0.91090544  0.53400310  1  0  0.072261  0  3.765732  0  0  0.087794  0  3.994997  0  0  0.09304  0  4.014575  0  0  0.021926  0.084433  0  3.981667  0
C  C55  1  0.29285603  0.58909574  0.03400208  1  0  0.072293  0  3.765849  0  0  0.087823  0  3.995114  0  0  0.09307  0  4.014692  0  0  0.021909  0.084464  0  3.981785  0
C  C56  1  0.18292620  0.02885052  0.89549011  1  0  0.239299  0  3.813614  0  0  0.217636  0  4.084333  0  0  0.223789  0  4.10152  0  0  0.210687  0.213538  0  4.072546  0
C  C57  1  0.18292402  0.52885045  0.60451016  1  0  0.239408  0  3.813576  0  0  0.217676  0  4.084383  0  0  0.223829  0  4.101569  0  0  0.210679  0.213582  0  4.072595  0
C  C58  1  0.31707356  0.02885089  0.39548994  1  0  0.239381  0  3.813454  0  0  0.217617  0  4.084315  0  0  0.223769  0  4.101503  0  0  0.210676  0.213534  0  4.072509  0
C  C59  1  0.68292598  0.47114983  0.89549040  1  0  0.23931  0  3.813704  0  0  0.217601  0  4.084479  0  0  0.223754  0  4.101665  0  0  0.210669  0.213502  0  4.072697  0
C  C60  1  0.81707421  0.97114806  0.10451028  1  0  0.239321  0  3.813605  0  0  0.217633  0  4.08436  0  0  0.223786  0  4.101546  0  0  0.21068  0.213532  0  4.072579  0
C  C61  1  0.81707333  0.47114882  0.39549023  1  0  0.239434  0  3.813446  0  0  0.217674  0  4.08429  0  0  0.223827  0  4.101478  0  0  0.210693  0.213582  0  4.072493  0
C  C62  1  0.68292532  0.97114907  0.60450984  1  0  0.239369  0  3.813489  0  0  0.217622  0  4.084326  0  0  0.223774  0  4.101513  0  0  0.210659  0.213521  0  4.072539  0
C  C63  1  0.31707443  0.52885151  0.10450938  1  0  0.239389  0  3.813496  0  0  0.217653  0  4.084324  0  0  0.223804  0  4.10151  0  0  0.210718  0.213555  0  4.072539  0
C  C64  1  0.16765267  0.18375223  0.96161295  1  0  -0.140452  0  3.66139  0  0  -0.156506  0  3.897011  0  0  -0.164553  0  3.917464  0  0  -0.077552  -0.151333  0  3.883371  0
C  C65  1  0.16765342  0.68375140  0.53838747  1  0  -0.140396  0  3.661394  0  0  -0.156476  0  3.897029  0  0  -0.164523  0  3.917483  0  0  -0.077541  -0.151298  0  3.883384  0
C  C66  1  0.33234697  0.18375328  0.46161340  1  0  -0.140506  0  3.661515  0  0  -0.156554  0  3.897119  0  0  -0.164601  0  3.917568  0  0  -0.077585  -0.151374  0  3.883467  0
C  C67  1  0.66765421  0.31624820  0.96161309  1  0  -0.140453  0  3.661419  0  0  -0.156512  0  3.897031  0  0  -0.164559  0  3.917484  0  0  -0.077559  -0.151332  0  3.883387  0
C  C68  1  0.83234773  0.81624635  0.03838622  1  0  -0.140474  0  3.661466  0  0  -0.156538  0  3.897085  0  0  -0.164584  0  3.917534  0  0  -0.077562  -0.151363  0  3.883443  0
C  C69  1  0.83234545  0.31624719  0.46161415  1  0  -0.140509  0  3.661534  0  0  -0.156567  0  3.897131  0  0  -0.164613  0  3.917578  0  0  -0.077569  -0.151389  0  3.883474  0
C  C70  1  0.66765496  0.81624736  0.53838700  1  0  -0.140491  0  3.661455  0  0  -0.156548  0  3.897066  0  0  -0.164596  0  3.917518  0  0  -0.077603  -0.151371  0  3.883421  0
C  C71  1  0.33234619  0.68375313  0.03838608  1  0  -0.140493  0  3.661525  0  0  -0.156557  0  3.897126  0  0  -0.164603  0  3.917574  0  0  -0.077579  -0.151381  0  3.883477  0
C  C72  1  0.18749855  0.23661739  0.03182615  1  0  0.127263  0  3.716109  0  0  0.095719  0  3.969647  0  0  0.102693  0  3.988448  0  0  0.041901  0.091283  0  3.956883  0
C  C73  1  0.18749858  0.73661775  0.46817456  1  0  0.127215  0  3.716112  0  0  0.095663  0  3.969632  0  0  0.102633  0  3.988439  0  0  0.041883  0.091232  0  3.956863  0
C  C74  1  0.31250173  0.23661835  0.53182574  1  0  0.127263  0  3.716116  0  0  0.095721  0  3.969627  0  0  0.102691  0  3.988422  0  0  0.041897  0.09128  0  3.956862  0
C  C75  1  0.68750018  0.26338262  0.03182562  1  0  0.127236  0  3.716114  0  0  0.095698  0  3.969644  0  0  0.102673  0  3.988445  0  0  0.041896  0.091261  0  3.956879  0
C  C76  1  0.81250032  0.76338120  0.96817364  1  0  0.127286  0  3.716015  0  0  0.095756  0  3.969528  0  0  0.102722  0  3.988328  0  0  0.041905  0.091325  0  3.956762  0
C  C77  1  0.81250029  0.26338152  0.53182644  1  0  0.127307  0  3.71605  0  0  0.095792  0  3.969562  0  0  0.102763  0  3.988358  0  0  0.041907  0.091362  0  3.956782  0
C  C78  1  0.68750021  0.76338161  0.46817465  1  0  0.12731  0  3.716102  0  0  0.095769  0  3.969604  0  0  0.102739  0  3.988406  0  0  0.041918  0.09133  0  3.956843  0
C  C79  1  0.31250023  0.73661871  0.96817355  1  0  0.127296  0  3.71611  0  0  0.095772  0  3.969616  0  0  0.10274  0  3.988417  0  0  0.041924  0.091339  0  3.956848  0
C  C80  1  0.28387342  0.11007533  0.10899350  1  0  0.133667  0  3.702406  0  0  0.098046  0  3.964909  0  0  0.105847  0  3.982183  0  0  0.043811  0.093028  0  3.953241  0
C  C81  1  0.28387483  0.61007560  0.39100651  1  0  0.133728  0  3.70235  0  0  0.098084  0  3.964867  0  0  0.105889  0  3.982132  0  0  0.043836  0.093053  0  3.953231  0
C  C82  1  0.21612720  0.11007564  0.60899246  1  0  0.133768  0  3.702477  0  0  0.098085  0  3.964951  0  0  0.105876  0  3.982209  0  0  0.043837  0.093081  0  3.953312  0
C  C83  1  0.78387485  0.38992474  0.10899310  1  0  0.133644  0  3.702372  0  0  0.098017  0  3.964875  0  0  0.105813  0  3.982162  0  0  0.043788  0.093001  0  3.953203  0
C  C84  1  0.71612699  0.88992463  0.89100689  1  0  0.133695  0  3.70236  0  0  0.098048  0  3.964883  0  0  0.105849  0  3.982153  0  0  0.043794  0.093026  0  3.953227  0
C  C85  1  0.71612710  0.38992505  0.60899389  1  0  0.133701  0  3.702402  0  0  0.098066  0  3.964896  0  0  0.105865  0  3.982171  0  0  0.043812  0.093035  0  3.953253  0
C  C86  1  0.78387626  0.88992432  0.39100671  1  0  0.133803  0  3.70247  0  0  0.09811  0  3.96497  0  0  0.105908  0  3.982228  0  0  0.043848  0.093115  0  3.953319  0
C  C87  1  0.21612556  0.61007522  0.89100607  1  0  0.133741  0  3.702346  0  0  0.098114  0  3.964829  0  0  0.105913  0  3.982111  0  0  0.043836  0.093086  0  3.953178  0
C  C88  1  0.26791339  0.05264932  0.04170480  1  0  -0.134412  0  3.683727  0  0  -0.159917  0  3.93998  0  0  -0.167185  0  3.959843  0  0  -0.077528  -0.155248  0  3.926773  0
C  C89  1  0.26791188  0.55264899  0.45829576  1  0  -0.134442  0  3.683732  0  0  -0.159957  0  3.939985  0  0  -0.167224  0  3.959848  0  0  -0.077545  -0.15528  0  3.926767  0
C  C90  1  0.23208719  0.05265100  0.54170437  1  0  -0.134449  0  3.683849  0  0  -0.159916  0  3.940104  0  0  -0.167184  0  3.959973  0  0  -0.077536  -0.155262  0  3.926894  0
C  C91  1  0.76791321  0.44735067  0.04170445  1  0  -0.134392  0  3.683733  0  0  -0.159906  0  3.939994  0  0  -0.167174  0  3.959854  0  0  -0.077536  -0.155238  0  3.926794  0
C  C92  1  0.73208854  0.94734995  0.95829560  1  0  -0.134429  0  3.683759  0  0  -0.159902  0  3.939995  0  0  -0.16717  0  3.959858  0  0  -0.077527  -0.155255  0  3.926777  0
C  C93  1  0.73208853  0.44735028  0.54170524  1  0  -0.134421  0  3.683769  0  0  -0.15992  0  3.940029  0  0  -0.167187  0  3.959888  0  0  -0.077533  -0.155261  0  3.926829  0
C  C94  1  0.76791322  0.94735033  0.45829541  1  0  -0.134414  0  3.683766  0  0  -0.159902  0  3.940029  0  0  -0.16717  0  3.959898  0  0  -0.07753  -0.155237  0  3.926803  0
C  C95  1  0.23208720  0.55264998  0.95829534  1  0  -0.134442  0  3.683758  0  0  -0.159915  0  3.939996  0  0  -0.167196  0  3.95985  0  0  -0.077551  -0.155248  0  3.926803  0
N  N96  1  0.22962511  0.93897819  0.89655242  1  0  -0.286267  0  2.981563  0  0  -0.268337  0  3.2574  0  0  -0.276755  0  3.274855  0  0  -0.209566  -0.262393  0  3.245501  0
N  N97  1  0.22962674  0.43897860  0.60344826  1  0  -0.286248  0  2.98153  0  0  -0.268294  0  3.257378  0  0  -0.276707  0  3.274828  0  0  -0.209523  -0.262348  0  3.245477  0
N  N98  1  0.27037479  0.93897857  0.39655223  1  0  -0.286283  0  2.981469  0  0  -0.268317  0  3.257319  0  0  -0.276735  0  3.274774  0  0  -0.209578  -0.262385  0  3.245434  0
N  N99  1  0.72962551  0.56102235  0.89655232  1  0  -0.28625  0  2.981596  0  0  -0.268308  0  3.257447  0  0  -0.276724  0  3.274902  0  0  -0.209542  -0.262368  0  3.245558  0
N  N100  1  0.77037377  0.06102108  0.10344736  1  0  -0.2862  0  2.981408  0  0  -0.268258  0  3.257244  0  0  -0.276673  0  3.274696  0  0  -0.20952  -0.26232  0  3.24536  0
N  N101  1  0.77037366  0.56102136  0.39655274  1  0  -0.286248  0  2.981392  0  0  -0.268288  0  3.257256  0  0  -0.276704  0  3.274711  0  0  -0.209524  -0.262349  0  3.245368  0
N  N102  1  0.72962562  0.06102139  0.60344816  1  0  -0.286257  0  2.981451  0  0  -0.268294  0  3.257295  0  0  -0.276711  0  3.274749  0  0  -0.209546  -0.262351  0  3.245402  0
N  N103  1  0.27037337  0.43897898  0.10344685  1  0  -0.2862  0  2.981468  0  0  -0.26824  0  3.257317  0  0  -0.276655  0  3.27477  0  0  -0.209513  -0.262305  0  3.245427  0
N  N104  1  0.17852491  0.90964457  0.82193776  1  0  -0.144007  0  3.288895  0  0  -0.07675  0  3.607809  0  0  -0.087857  0  3.620037  0  0  -0.122492  -0.069195  0  3.59947  0
N  N105  1  0.17852516  0.40964438  0.67806226  1  0  -0.144016  0  3.288908  0  0  -0.076761  0  3.607818  0  0  -0.087869  0  3.620045  0  0  -0.122509  -0.069207  0  3.599476  0
N  N106  1  0.32147336  0.90964425  0.32193820  1  0  -0.143997  0  3.288886  0  0  -0.076731  0  3.607785  0  0  -0.087839  0  3.620014  0  0  -0.122493  -0.069183  0  3.599465  0
N  N107  1  0.67852374  0.59035590  0.82193769  1  0  -0.143974  0  3.288856  0  0  -0.076718  0  3.607769  0  0  -0.087825  0  3.619996  0  0  -0.122492  -0.069156  0  3.599429  0
N  N108  1  0.82147396  0.09035539  0.17806202  1  0  -0.144132  0  3.288889  0  0  -0.076882  0  3.607812  0  0  -0.087993  0  3.620043  0  0  -0.122567  -0.069327  0  3.599479  0
N  N109  1  0.82147525  0.59035490  0.32193813  1  0  -0.144078  0  3.288874  0  0  -0.076825  0  3.607789  0  0  -0.087935  0  3.62002  0  0  -0.122535  -0.069273  0  3.599461  0
N  N110  1  0.67852399  0.09035503  0.67806219  1  0  -0.144016  0  3.288902  0  0  -0.07676  0  3.607809  0  0  -0.087868  0  3.620038  0  0  -0.122518  -0.06921  0  3.599484  0
N  N111  1  0.32147514  0.40964474  0.17806148  1  0  -0.14413  0  3.288927  0  0  -0.076878  0  3.607859  0  0  -0.087989  0  3.62009  0  0  -0.122577  -0.069318  0  3.599517  0
N  N112  1  0.10301831  0.97767058  0.77630935  1  0  -0.063927  0  2.92194  0  0  -0.06971  0  3.214199  0  0  -0.067361  0  3.226433  0  0  -0.092679  -0.070979  0  3.205803  0
N  N113  1  0.10301864  0.47767045  0.72369133  1  0  -0.063965  0  2.92196  0  0  -0.069739  0  3.214197  0  0  -0.067388  0  3.226429  0  0  -0.09271  -0.07101  0  3.205808  0
N  N114  1  0.39697977  0.97767024  0.27630920  1  0  -0.063985  0  2.922035  0  0  -0.069762  0  3.214269  0  0  -0.067412  0  3.226502  0  0  -0.092711  -0.071038  0  3.205889  0
N  N115  1  0.60301877  0.52232917  0.77630860  1  0  -0.063954  0  2.921983  0  0  -0.069723  0  3.214225  0  0  -0.067373  0  3.226457  0  0  -0.092691  -0.070994  0  3.205834  0
N  N116  1  0.89697904  0.02232938  0.22369105  1  0  -0.063899  0  2.922002  0  0  -0.069673  0  3.214243  0  0  -0.067325  0  3.226481  0  0  -0.09267  -0.07094  0  3.205844  0
N  N117  1  0.89698023  0.52232882  0.27630906  1  0  -0.063906  0  2.921963  0  0  -0.069672  0  3.214194  0  0  -0.067322  0  3.226427  0  0  -0.092689  -0.070946  0  3.205806  0
N  N118  1  0.60301910  0.02232903  0.72369119  1  0  -0.063984  0  2.921965  0  0  -0.069756  0  3.214199  0  0  -0.067407  0  3.226431  0  0  -0.092711  -0.07103  0  3.205812  0
N  N119  1  0.39698011  0.47767079  0.22369057  1  0  -0.0639  0  2.921992  0  0  -0.069669  0  3.214224  0  0  -0.067317  0  3.226456  0  0  -0.092686  -0.070943  0  3.205832  0
N  N120  1  0.10475756  0.05330030  0.82181616  1  0  -0.285503  0  3.037425  0  0  -0.241312  0  3.310956  0  0  -0.252585  0  3.323578  0  0  -0.194295  -0.233559  0  3.302353  0
N  N121  1  0.10475705  0.55330031  0.67818411  1  0  -0.285553  0  3.037418  0  0  -0.241347  0  3.310973  0  0  -0.252619  0  3.323589  0  0  -0.194293  -0.233592  0  3.302373  0
N  N122  1  0.39524201  0.05329995  0.32181541  1  0  -0.285536  0  3.03743  0  0  -0.241319  0  3.310988  0  0  -0.252592  0  3.323609  0  0  -0.194297  -0.23357  0  3.302386  0
N  N123  1  0.60475891  0.44669999  0.82181643  1  0  -0.285532  0  3.037454  0  0  -0.241338  0  3.311002  0  0  -0.25261  0  3.32362  0  0  -0.194299  -0.233583  0  3.302401  0
N  N124  1  0.89524131  0.94669966  0.17818423  1  0  -0.285522  0  3.03754  0  0  -0.241334  0  3.31109  0  0  -0.252606  0  3.323711  0  0  -0.194301  -0.233581  0  3.302484  0
N  N125  1  0.89524183  0.44669964  0.32181628  1  0  -0.285595  0  3.037406  0  0  -0.24138  0  3.310969  0  0  -0.252653  0  3.323588  0  0  -0.194303  -0.233623  0  3.302358  0
N  N126  1  0.60475839  0.94669932  0.67818376  1  0  -0.285498  0  3.037455  0  0  -0.241283  0  3.310998  0  0  -0.252555  0  3.323615  0  0  -0.194263  -0.233527  0  3.30239  0
N  N127  1  0.39524150  0.55329997  0.17818397  1  0  -0.285587  0  3.037504  0  0  -0.241383  0  3.311064  0  0  -0.252656  0  3.323682  0  0  -0.194319  -0.233631  0  3.302463  0
N  N128  1  0.24339995  0.20088684  0.10479014  1  0  -0.355785  0  3.302485  0  0  -0.271614  0  3.584913  0  0  -0.290796  0  3.599108  0  0  -0.334172  -0.258667  0  3.575144  0
N  N129  1  0.24339984  0.70088643  0.39521055  1  0  -0.355836  0  3.302486  0  0  -0.271633  0  3.584885  0  0  -0.290809  0  3.599067  0  0  -0.334192  -0.25869  0  3.57512  0
N  N130  1  0.25660205  0.20088714  0.60478972  1  0  -0.355804  0  3.302471  0  0  -0.271609  0  3.584875  0  0  -0.290793  0  3.599084  0  0  -0.334153  -0.258666  0  3.57511  0
N  N131  1  0.74339999  0.29911324  0.10478965  1  0  -0.355741  0  3.302455  0  0  -0.271566  0  3.584874  0  0  -0.290746  0  3.599064  0  0  -0.334153  -0.258619  0  3.575107  0
N  N132  1  0.75660199  0.79911312  0.89520903  1  0  -0.3558  0  3.30239  0  0  -0.271643  0  3.584841  0  0  -0.290827  0  3.599044  0  0  -0.334157  -0.258701  0  3.575081  0
N  N133  1  0.75660209  0.29911353  0.60479106  1  0  -0.355812  0  3.302442  0  0  -0.271626  0  3.584839  0  0  -0.290814  0  3.599048  0  0  -0.334156  -0.258681  0  3.575077  0
N  N134  1  0.74339988  0.79911282  0.39521006  1  0  -0.355817  0  3.302425  0  0  -0.271644  0  3.584865  0  0  -0.290826  0  3.599066  0  0  -0.33416  -0.258696  0  3.575093  0
N  N135  1  0.25660042  0.70088672  0.89520952  1  0  -0.355822  0  3.302483  0  0  -0.27167  0  3.584926  0  0  -0.290852  0  3.599118  0  0  -0.334178  -0.258724  0  3.575169  0
O  O136  1  0.49302172  0.77330322  0.73233090  1  0  -0.939394  0  1.889795  0  0  -0.833461  0  2.195915  0  0  -0.863889  0  2.155788  0  0  -0.597054  -0.811636  0  2.22329  0
O  O137  1  0.49302367  0.27330314  0.76766909  1  0  -0.939403  0  1.889769  0  0  -0.83347  0  2.195889  0  0  -0.863897  0  2.155764  0  0  -0.597077  -0.811654  0  2.223275  0
O  O138  1  0.00697659  0.77330299  0.23233125  1  0  -0.939405  0  1.889744  0  0  -0.833476  0  2.195864  0  0  -0.863905  0  2.155741  0  0  -0.597076  -0.811647  0  2.223233  0
O  O139  1  0.99302340  0.72669636  0.73233034  1  0  -0.939374  0  1.889801  0  0  -0.833446  0  2.195903  0  0  -0.863872  0  2.155781  0  0  -0.597055  -0.81162  0  2.223286  0
O  O140  1  0.50697715  0.22669743  0.26766888  1  0  -0.939375  0  1.889756  0  0  -0.833438  0  2.195875  0  0  -0.863867  0  2.155751  0  0  -0.597055  -0.811616  0  2.223252  0
O  O141  1  0.50697674  0.72669682  0.23233130  1  0  -0.939385  0  1.889733  0  0  -0.833455  0  2.195855  0  0  -0.863883  0  2.155729  0  0  -0.597069  -0.811629  0  2.223231  0
O  O142  1  0.99302229  0.22669628  0.76766915  1  0  -0.939383  0  1.889757  0  0  -0.833454  0  2.195874  0  0  -0.863882  0  2.15575  0  0  -0.597077  -0.811631  0  2.223258  0
O  O143  1  0.00697700  0.27330291  0.26766883  1  0  -0.93938  0  1.88973  0  0  -0.833447  0  2.195844  0  0  -0.863877  0  2.155719  0  0  -0.59707  -0.811626  0  2.223223  0
