# generated using pymatgen
data_ZnH5C16Cl2(O2F)2
_symmetry_space_group_name_H-M   'P 1'
_cell_length_a   8.83037757
_cell_length_b   17.74509243
_cell_length_c   34.87030498
_cell_angle_alpha   89.16362551
_cell_angle_beta   90.19007217
_cell_angle_gamma   90.03416585
_symmetry_Int_Tables_number   1
_chemical_formula_structural   ZnH5C16Cl2(O2F)2
_chemical_formula_sum   'Zn4 H20 C64 Cl8 O16 F8'
_cell_volume   5463.41961382
_cell_formula_units_Z   4
loop_
 _symmetry_equiv_pos_site_id
 _symmetry_equiv_pos_as_xyz
  1  'x, y, z'
loop_
 _atom_site_type_symbol
 _atom_site_label
 _atom_site_symmetry_multiplicity
 _atom_site_fract_x
 _atom_site_fract_y
 _atom_site_fract_z
 _atom_site_occupancy
 _atom_site_pbe_bader_charge
 _atom_site_pbe_bader_spin_density
 _atom_site_pbe_cm5_charge
 _atom_site_pbe_ddec_charge
 _atom_site_pbe_ddec_spin_density
 _atom_site_pbe_ddec_sum_bond_order
 _atom_site_pbe_magmom
Zn  Zn0  1  0.65770364  0.99969581  0.50023880  1  1.308555  0  0.729454  0.965117  0  2.124916  0
Zn  Zn1  1  0.35566733  0.99964373  0.49988959  1  1.316688  0  0.737381  0.980549  0  2.120162  0
Zn  Zn2  1  0.24749385  0.99737396  0.99988944  1  1.314909  0  0.726949  0.960818  0  2.14696  0
Zn  Zn3  1  0.55110390  0.99758904  0.00013398  1  1.311423  0  0.727467  0.961818  0  2.13765  0
H  H4  1  0.59474340  0.99956352  0.88521367  1  0.120484  0  0.11401  0.127899  0  0.983911  0
H  H5  1  0.62351917  0.99999590  0.81493036  1  0.066673  0  0.110145  0.114752  0  0.992871  0
H  H6  1  0.76828773  0.00014229  0.69638880  1  0.054073  0  0.113074  0.139248  0  0.983704  0
H  H7  1  0.27760291  0.99971695  0.68719585  1  0.087578  0  0.113828  0.140969  0  0.988988  0
H  H8  1  0.27907562  0.00006852  0.74689047  1  0.084193  0  0.103435  0.104814  0  1.012141  0
H  H9  1  0.62708822  0.99991677  0.75407851  1  0.065839  0  0.106066  0.103289  0  0.996177  0
H  H10  1  0.59518737  0.99758384  0.11504428  1  0.122661  0  0.113762  0.127606  0  0.983821  0
H  H11  1  0.62411569  0.99889325  0.18536784  1  0.065321  0  0.109951  0.113807  0  0.993169  0
H  H12  1  0.76926494  0.99926362  0.30422685  1  0.083172  0  0.113036  0.139142  0  0.983452  0
H  H13  1  0.27857628  0.00004985  0.31257219  1  0.093292  0  0.113554  0.140403  0  0.989758  0
H  H14  1  0.27995868  0.99854888  0.25291413  1  0.088156  0  0.102982  0.103771  0  1.012286  0
H  H15  1  0.62795678  0.99915701  0.24626202  1  0.06492  0  0.106237  0.10402  0  0.995854  0
H  H16  1  0.71332575  0.77030842  0.50182198  1  0.139643  0  0.114525  0.140545  0  0.982987  0
H  H17  1  0.22619260  0.75742519  0.50002732  1  0.139985  0  0.115209  0.139144  0  0.983221  0
H  H18  1  0.71346235  0.22908350  0.50045022  1  0.125006  0  0.114406  0.14049  0  0.982559  0
H  H19  1  0.22639630  0.24172366  0.49764355  1  0.117612  0  0.115176  0.139345  0  0.982507  0
H  H20  1  0.20383069  0.76803937  0.99901853  1  0.136122  0  0.113964  0.140133  0  0.983118  0
H  H21  1  0.69112649  0.75600304  0.00000415  1  0.126134  0  0.114994  0.138852  0  0.983264  0
H  H22  1  0.20306192  0.22712932  0.99920274  1  0.132375  0  0.113868  0.139969  0  0.98358  0
H  H23  1  0.69037352  0.23910811  0.99954994  1  0.130183  0  0.115096  0.139359  0  0.982652  0
C  C24  1  0.46182696  0.85621695  0.50082372  1  1.53401  0  0.222649  0.604277  0  4.134517  0
C  C25  1  0.55371615  0.99973392  0.57302694  1  1.542984  0  0.219096  0.63731  0  4.143938  0
C  C26  1  0.46200062  0.14310272  0.49917810  1  1.514307  0  0.223334  0.604951  0  4.131984  0
C  C27  1  0.55454764  0.99975464  0.42721957  1  1.609886  0  0.218756  0.637413  0  4.143517  0
C  C28  1  0.45335499  0.85454222  0.99990403  1  1.571146  0  0.222426  0.605271  0  4.129413  0
C  C29  1  0.34563008  0.99899630  0.92737347  1  1.593327  0  0.220674  0.620981  0  4.132925  0
C  C30  1  0.45250740  0.14057961  0.99976978  1  1.530183  0  0.223297  0.605907  0  4.129036  0
C  C31  1  0.34583236  0.99621330  0.07254509  1  1.592286  0  0.221674  0.622961  0  4.132205  0
C  C32  1  0.35202145  0.99939608  0.88467272  1  -0.028736  0  -0.023911  -0.130933  0  3.97243  0
C  C33  1  0.49514318  0.99959992  0.86674333  1  -0.004795  0  -0.081377  -0.079215  0  3.995666  0
C  C34  1  0.51042694  0.99982268  0.82732065  1  -0.016726  0  -0.088211  -0.1283  0  3.987008  0
C  C35  1  0.38244017  0.99985677  0.80289544  1  0.08739  0  -0.010562  0.03341  0  4.071064  0
C  C36  1  0.24058110  0.99967941  0.82098468  1  0.519539  0  0.092339  0.119011  0  4.027756  0
C  C37  1  0.22426371  0.99947614  0.86078598  1  0.510552  0  0.102846  0.174725  0  4.062487  0
C  C38  1  0.38888928  0.00001271  0.76129535  1  -0.06773  0  -0.084773  -0.107237  0  3.977644  0
C  C39  1  0.51650600  0.99997743  0.73989813  1  -0.016761  0  -0.077394  -0.110422  0  3.943764  0
C  C40  1  0.66335311  0.00005335  0.67988074  1  0.054559  0  -0.105132  -0.290384  0  3.966599  0
C  C41  1  0.52179258  0.99996466  0.69817503  1  0.014355  0  -0.000227  0.174937  0  4.069276  0
C  C42  1  0.39104907  0.99981001  0.67507536  1  0.003205  0  -0.105283  -0.287394  0  3.96303  0
C  C43  1  0.40364465  0.99976990  0.63556445  1  0.523199  0  0.114645  0.315868  0  4.036234  0
C  C44  1  0.54408031  0.99983683  0.61582070  1  0.097845  0  -0.028984  -0.258696  0  3.900872  0
C  C45  1  0.67194892  0.99998400  0.64016185  1  0.440284  0  0.115091  0.317392  0  4.047624  0
C  C46  1  0.35247870  0.99660285  0.11525528  1  -0.030902  0  -0.024497  -0.134851  0  3.979022  0
C  C47  1  0.49567137  0.99745880  0.13337484  1  0.005629  0  -0.081423  -0.078397  0  3.996474  0
C  C48  1  0.51100124  0.99816620  0.17281466  1  -0.006448  0  -0.087848  -0.126882  0  3.986473  0
C  C49  1  0.38311397  0.99801657  0.19706582  1  0.068977  0  -0.010749  0.033351  0  4.071143  0
C  C50  1  0.24118511  0.99710212  0.17878473  1  0.45042  0  0.092235  0.11861  0  4.029685  0
C  C51  1  0.22483801  0.99640731  0.13896417  1  0.583888  0  0.103785  0.176837  0  4.062967  0
C  C52  1  0.38974294  0.99862555  0.23867462  1  -0.060952  0  -0.084222  -0.105443  0  3.974947  0
C  C53  1  0.51740553  0.99917017  0.26027195  1  -0.016067  0  -0.077743  -0.112167  0  3.943326  0
C  C54  1  0.66430573  0.99953117  0.32055136  1  0.108472  0  -0.105211  -0.289889  0  3.9656  0
C  C55  1  0.52275549  0.99959400  0.30200783  1  -0.055712  0  0.000119  0.174992  0  4.068254  0
C  C56  1  0.39201136  0.99991237  0.32488801  1  0.124423  0  -0.105257  -0.286624  0  3.962907  0
C  C57  1  0.40457344  0.99995988  0.36441949  1  0.407331  0  0.115499  0.316574  0  4.033825  0
C  C58  1  0.54500197  0.99979837  0.38440697  1  0.024787  0  -0.029434  -0.259101  0  3.901807  0
C  C59  1  0.67287051  0.99959997  0.36028760  1  0.404821  0  0.114662  0.316082  0  4.049166  0
C  C60  1  0.46867033  0.77211108  0.50092418  1  0.04959  0  -0.010598  0.004789  0  3.972671  0
C  C61  1  0.61047817  0.73655895  0.50141537  1  0.063081  0  -0.088454  -0.16723  0  3.952683  0
C  C62  1  0.61871607  0.65845302  0.50133913  1  -0.024206  0  0.024246  0.125575  0  4.013691  0
C  C63  1  0.48631562  0.61311668  0.50064387  1  0.234586  0  -0.004445  0.02099  0  4.067627  0
C  C64  1  0.34486307  0.65126332  0.50021547  1  -0.020898  0  0.024856  0.126663  0  4.009206  0
C  C65  1  0.33567226  0.72937498  0.50038307  1  0.070204  0  -0.08738  -0.169523  0  3.965475  0
C  C66  1  0.49314082  0.53404318  0.50030049  1  -0.017483  0  -0.040066  -0.068191  0  4.131466  0
C  C67  1  0.49316760  0.46526346  0.49985025  1  -0.269025  0  -0.041115  -0.070259  0  4.131163  0
C  C68  1  0.48638029  0.38618900  0.49944940  1  0.159888  0  -0.004683  0.021988  0  4.064786  0
C  C69  1  0.61880282  0.34091335  0.50015665  1  0.045968  0  0.023814  0.125177  0  4.013004  0
C  C70  1  0.61062352  0.26280755  0.49991482  1  0.061718  0  -0.087999  -0.167234  0  3.95174  0
C  C71  1  0.46885318  0.22720114  0.49908012  1  0.050493  0  -0.011746  0.004144  0  3.972911  0
C  C72  1  0.33582946  0.26984863  0.49829264  1  0.08291  0  -0.086495  -0.168999  0  3.964848  0
C  C73  1  0.34500203  0.34796178  0.49838141  1  0.002899  0  0.025192  0.126371  0  4.008525  0
C  C74  1  0.44834212  0.77043998  0.99958408  1  -0.051324  0  -0.011255  0.00436  0  3.970267  0
C  C75  1  0.30688553  0.73449276  0.99914912  1  0.041598  0  -0.087823  -0.167394  0  3.950696  0
C  C76  1  0.29905035  0.65637707  0.99888511  1  0.092566  0  0.024581  0.126516  0  4.011619  0
C  C77  1  0.43164835  0.61119343  0.99906433  1  0.0914  0  -0.003266  0.022595  0  4.06132  0
C  C78  1  0.57280395  0.64973271  0.99947607  1  0.068787  0  0.02578  0.126753  0  4.005339  0
C  C79  1  0.58162428  0.72791577  0.99971551  1  0.041392  0  -0.086914  -0.169307  0  3.960738  0
C  C80  1  0.42524628  0.53201915  0.99887775  1  -0.060843  0  -0.039078  -0.06768  0  4.125279  0
C  C81  1  0.42509914  0.46319260  0.99884349  1  -0.217814  0  -0.040275  -0.068739  0  4.126241  0
C  C82  1  0.43126468  0.38400608  0.99893827  1  0.23524  0  -0.003412  0.023422  0  4.061544  0
C  C83  1  0.29853940  0.33883028  0.99891838  1  0.095309  0  0.024648  0.125587  0  4.011901  0
C  C84  1  0.30617477  0.26068630  0.99917588  1  0.069823  0  -0.087742  -0.16684  0  3.950518  0
C  C85  1  0.44753213  0.22470618  0.99943110  1  -0.093787  0  -0.011442  0.003919  0  3.971299  0
C  C86  1  0.58093258  0.26721651  0.99938638  1  0.00327  0  -0.086905  -0.169672  0  3.961695  0
C  C87  1  0.57231102  0.34541717  0.99914771  1  0.102955  0  0.026061  0.126676  0  4.00519  0
Cl  Cl88  1  0.18075131  0.59914939  0.49933937  1  -0.187061  0  -0.004669  -0.069658  0  1.601336  0
Cl  Cl89  1  0.79354926  0.61555593  0.50204533  1  -0.193984  0  -0.010589  -0.078704  0  1.552938  0
Cl  Cl90  1  0.18082915  0.39998349  0.49719055  1  -0.184099  0  -0.004755  -0.069621  0  1.600857  0
Cl  Cl91  1  0.79354850  0.38389458  0.50144701  1  -0.191177  0  -0.010194  -0.078316  0  1.552543  0
Cl  Cl92  1  0.73721413  0.59788310  0.99972101  1  -0.174995  0  -0.003503  -0.068343  0  1.597502  0
Cl  Cl93  1  0.12438051  0.61332303  0.99827508  1  -0.191027  0  -0.008952  -0.076966  0  1.55328  0
Cl  Cl94  1  0.73689433  0.39721348  0.99912871  1  -0.188247  0  -0.003791  -0.068386  0  1.597847  0
Cl  Cl95  1  0.12395607  0.38190147  0.99862932  1  -0.192666  0  -0.00901  -0.076772  0  1.553733  0
O  O96  1  0.58864817  0.89027407  0.50094850  1  -1.179029  0  -0.312918  -0.565736  0  2.353374  0
O  O97  1  0.33116706  0.88822006  0.50054813  1  -1.13086  0  -0.313507  -0.528844  0  2.221568  0
O  O98  1  0.42823369  0.99965770  0.55508540  1  -1.15789  0  -0.315544  -0.575046  0  2.39203  0
O  O99  1  0.68448290  0.99975369  0.55699643  1  -1.114047  0  -0.315825  -0.530471  0  2.237989  0
O  O100  1  0.33131011  0.11105939  0.49912651  1  -1.128848  0  -0.313534  -0.529039  0  2.220862  0
O  O101  1  0.58879520  0.10909393  0.49938791  1  -1.180756  0  -0.313337  -0.566105  0  2.352249  0
O  O102  1  0.68519438  0.99975079  0.44353208  1  -1.123783  0  -0.315472  -0.530251  0  2.237109  0
O  O103  1  0.42894912  0.99969167  0.44489651  1  -1.153725  0  -0.315224  -0.574955  0  2.392513  0
O  O104  1  0.32636616  0.88821070  0.99999481  1  -1.175782  0  -0.312052  -0.56834  0  2.348298  0
O  O105  1  0.58348555  0.88749299  0.00005257  1  -1.133855  0  -0.31616  -0.529888  0  2.220965  0
O  O106  1  0.47299761  0.99909315  0.94456805  1  -1.173877  0  -0.313248  -0.572631  0  2.347814  0
O  O107  1  0.21599691  0.99854525  0.94414288  1  -1.117498  0  -0.316287  -0.527525  0  2.247309  0
O  O108  1  0.58271527  0.10775501  0.99997584  1  -1.131237  0  -0.316613  -0.530546  0  2.221429  0
O  O109  1  0.32558136  0.10679022  0.99984620  1  -1.176382  0  -0.312531  -0.568382  0  2.34701  0
O  O110  1  0.21614732  0.99625633  0.05559010  1  -1.118814  0  -0.316393  -0.527516  0  2.246252  0
O  O111  1  0.47315194  0.99604530  0.05553582  1  -1.173232  0  -0.313656  -0.572649  0  2.347208  0
F  F112  1  0.08186446  0.99938441  0.87465173  1  -0.611299  0  -0.092747  -0.110671  0  1.376064  0
F  F113  1  0.11184818  0.99971913  0.79944188  1  -0.624244  0  -0.101146  -0.12875  0  1.350292  0
F  F114  1  0.27121936  0.99962173  0.61598862  1  -0.622404  0  -0.092379  -0.123101  0  1.361918  0
F  F115  1  0.81254038  0.00005755  0.62494756  1  -0.615543  0  -0.093581  -0.127914  0  1.352676  0
F  F116  1  0.08241873  0.99552526  0.12487949  1  -0.612238  0  -0.092922  -0.111009  0  1.375588  0
F  F117  1  0.11249106  0.99680001  0.20012600  1  -0.625395  0  -0.101071  -0.128569  0  1.352203  0
F  F118  1  0.27210978  0.00021588  0.38375749  1  -0.616598  0  -0.092619  -0.123278  0  1.36117  0
F  F119  1  0.81344978  0.99940568  0.37575101  1  -0.615677  0  -0.093315  -0.127259  0  1.352065  0
