# generated using pymatgen
data_Sn2H12C14N2O11
_symmetry_space_group_name_H-M   'P 1'
_cell_length_a   5.24005181
_cell_length_b   11.31461059
_cell_length_c   15.07317971
_cell_angle_alpha   89.99838964
_cell_angle_beta   98.60000697
_cell_angle_gamma   89.99779010
_symmetry_Int_Tables_number   1
_chemical_formula_structural   Sn2H12C14N2O11
_chemical_formula_sum   'Sn4 H24 C28 N4 O22'
_cell_volume   883.62777760
_cell_formula_units_Z   2
loop_
 _symmetry_equiv_pos_site_id
 _symmetry_equiv_pos_as_xyz
  1  'x, y, z'
loop_
 _atom_site_type_symbol
 _atom_site_label
 _atom_site_symmetry_multiplicity
 _atom_site_fract_x
 _atom_site_fract_y
 _atom_site_fract_z
 _atom_site_occupancy
 _atom_site_hle17_bader_spin_density
 _atom_site_hle17_ddec_charge
 _atom_site_hle17_ddec_spin_density
 _atom_site_hle17_ddec_sum_bond_order
 _atom_site_hle17_magmom
 _atom_site_hse06_10hf_bader_spin_density
 _atom_site_hse06_10hf_ddec_charge
 _atom_site_hse06_10hf_ddec_spin_density
 _atom_site_hse06_10hf_ddec_sum_bond_order
 _atom_site_hse06_10hf_magmom
 _atom_site_hse06_bader_spin_density
 _atom_site_hse06_ddec_charge
 _atom_site_hse06_ddec_spin_density
 _atom_site_hse06_ddec_sum_bond_order
 _atom_site_hse06_magmom
 _atom_site_pbe_bader_spin_density
 _atom_site_pbe_cm5_charge
 _atom_site_pbe_ddec_charge
 _atom_site_pbe_ddec_spin_density
 _atom_site_pbe_ddec_sum_bond_order
 _atom_site_pbe_magmom
Sn  Sn0  1  0.06111323  0.76710134  0.89179107  1  0  1.112299  0  1.839434  0  0  0.923476  0  2.278556  0  0  0.966673  0  2.249166  0  0  0.530151  0.892183  0  2.29959  0
Sn  Sn1  1  0.93891667  0.26712285  0.10821104  1  0  1.112281  0  1.839636  0  0  0.923364  0  2.278678  0  0  0.966549  0  2.249294  0  0  0.530116  0.892101  0  2.299717  0
Sn  Sn2  1  0.45254867  0.78304551  0.66928919  1  0  1.121444  0  1.805823  0  0  0.934547  0  2.246135  0  0  0.981087  0  2.213025  0  0  0.524126  0.901088  0  2.269536  0
Sn  Sn3  1  0.54751026  0.28305517  0.33070210  1  0  1.121431  0  1.805524  0  0  0.934523  0  2.245944  0  0  0.981057  0  2.212831  0  0  0.524236  0.90108  0  2.269367  0
H  H4  1  0.11058232  0.02527759  0.48336377  1  0  0.420018  0  0.800459  0  0  0.397001  0  0.863869  0  0  0.406803  0  0.853419  0  0  0.33729  0.389977  0  0.871393  0
H  H5  1  0.88938939  0.52523927  0.51664053  1  0  0.420081  0  0.800527  0  0  0.39685  0  0.864144  0  0  0.406656  0  0.853709  0  0  0.337289  0.389818  0  0.871676  0
H  H6  1  0.26730128  0.54697652  0.08997733  1  0  0.441274  0  0.853832  0  0  0.410585  0  0.916275  0  0  0.420887  0  0.901239  0  0  0.293083  0.403362  0  0.926776  0
H  H7  1  0.73267983  0.04695767  0.91002964  1  0  0.441416  0  0.853667  0  0  0.410713  0  0.916144  0  0  0.421017  0  0.901106  0  0  0.293112  0.403485  0  0.926651  0
H  H8  1  0.49656256  0.51719451  0.65304368  1  0  0.407298  0  0.905471  0  0  0.375233  0  0.972426  0  0  0.386331  0  0.956469  0  0  0.275244  0.367411  0  0.983629  0
H  H9  1  0.50345993  0.01719012  0.34695071  1  0  0.407366  0  0.905374  0  0  0.375281  0  0.972398  0  0  0.38638  0  0.956436  0  0  0.275244  0.367458  0  0.9836  0
H  H10  1  0.79789421  0.50623619  0.66039493  1  0  0.394829  0  0.8911  0  0  0.368861  0  0.965984  0  0  0.376486  0  0.954877  0  0  0.289471  0.363437  0  0.973777  0
H  H11  1  0.20213747  0.00624225  0.33961940  1  0  0.394627  0  0.891227  0  0  0.368751  0  0.966044  0  0  0.376376  0  0.954939  0  0  0.289461  0.363327  0  0.97371  0
H  H12  1  0.94420448  0.05416301  0.84011420  1  0  0.419311  0  0.884276  0  0  0.386256  0  0.951548  0  0  0.397682  0  0.934995  0  0  0.284626  0.378204  0  0.963172  0
H  H13  1  0.05575841  0.55419323  0.15988507  1  0  0.419231  0  0.884357  0  0  0.386334  0  0.951372  0  0  0.397751  0  0.934834  0  0  0.284697  0.378283  0  0.962994  0
H  H14  1  0.72481140  0.88740670  0.80361230  1  0  0.404378  0  0.914179  0  0  0.377851  0  0.975776  0  0  0.389021  0  0.959682  0  0  0.285247  0.369992  0  0.987031  0
H  H15  1  0.27516763  0.38743204  0.19638807  1  0  0.404454  0  0.914197  0  0  0.37788  0  0.975775  0  0  0.38906  0  0.95968  0  0  0.285286  0.37003  0  0.987018  0
H  H16  1  0.38374396  0.26684318  0.69049466  1  0  0.129137  0  0.944911  0  0  0.133453  0  1.011488  0  0  0.137948  0  1.008448  0  0  0.11522  0.130198  0  1.013755  0
H  H17  1  0.61620347  0.76686309  0.30953055  1  0  0.129031  0  0.944672  0  0  0.133269  0  1.011383  0  0  0.137762  0  1.008341  0  0  0.115176  0.130019  0  1.013628  0
H  H18  1  0.69908768  0.32515746  0.58729052  1  0  0.106246  0  0.967889  0  0  0.112743  0  1.031365  0  0  0.11678  0  1.027935  0  0  0.109372  0.109773  0  1.033981  0
H  H19  1  0.30081904  0.82515026  0.41273209  1  0  0.106227  0  0.967918  0  0  0.112706  0  1.031458  0  0  0.116748  0  1.028023  0  0  0.109391  0.109733  0  1.034067  0
H  H20  1  0.93739368  0.17161643  0.51858020  1  0  0.099523  0  0.979765  0  0  0.105224  0  1.052454  0  0  0.109511  0  1.049525  0  0  0.108825  0.102113  0  1.054759  0
H  H21  1  0.06254974  0.67158484  0.48143222  1  0  0.09955  0  0.979628  0  0  0.105231  0  1.052361  0  0  0.109519  0  1.049425  0  0  0.108845  0.102113  0  1.054669  0
H  H22  1  0.99343806  0.31184745  0.77715041  1  0  0.123123  0  0.959427  0  0  0.128423  0  1.027439  0  0  0.132681  0  1.024642  0  0  0.110627  0.125323  0  1.029634  0
H  H23  1  0.00658896  0.81185662  0.22283802  1  0  0.122983  0  0.9595  0  0  0.12841  0  1.027406  0  0  0.132668  0  1.024608  0  0  0.110633  0.125309  0  1.029599  0
H  H24  1  0.64888043  0.25209653  0.86949086  1  0  0.111981  0  0.947146  0  0  0.120446  0  1.005772  0  0  0.124503  0  1.002592  0  0  0.113898  0.117439  0  1.008189  0
H  H25  1  0.35114881  0.75210453  0.13049628  1  0  0.111821  0  0.947263  0  0  0.120322  0  1.00587  0  0  0.124383  0  1.002689  0  0  0.113838  0.117308  0  1.008294  0
H  H26  1  0.47455394  0.40222062  0.96421728  1  0  0.125865  0  0.961247  0  0  0.127755  0  1.032719  0  0  0.132838  0  1.029301  0  0  0.113805  0.124072  0  1.035299  0
H  H27  1  0.52545612  0.90223028  0.03576972  1  0  0.125895  0  0.961211  0  0  0.127757  0  1.032651  0  0  0.132846  0  1.029244  0  0  0.113794  0.12408  0  1.035212  0
C  C28  1  0.26938902  0.03838465  0.73610609  1  0  0.610704  0  3.922698  0  0  0.553604  0  4.229797  0  0  0.587087  0  4.22291  0  0  0.214359  0.53098  0  4.233628  0
C  C29  1  0.73059867  0.53841151  0.26389674  1  0  0.610763  0  3.922709  0  0  0.553654  0  4.229795  0  0  0.587131  0  4.222907  0  0  0.214369  0.531029  0  4.233634  0
C  C30  1  0.45716326  0.08055896  0.67525683  1  0  0.104982  0  3.730898  0  0  0.1035  0  3.98188  0  0  0.104753  0  3.999508  0  0  0.122751  0.102363  0  3.970178  0
C  C31  1  0.54280473  0.58057152  0.32474744  1  0  0.104857  0  3.731196  0  0  0.103508  0  3.981997  0  0  0.104762  0  3.999628  0  0  0.122787  0.102371  0  3.970298  0
C  C32  1  0.49246829  0.20086184  0.65900292  1  0  -0.077605  0  3.627478  0  0  -0.102055  0  3.877253  0  0  -0.104717  0  3.894561  0  0  -0.059294  -0.100372  0  3.865823  0
C  C33  1  0.50748378  0.70086994  0.34101330  1  0  -0.077361  0  3.627405  0  0  -0.101742  0  3.877118  0  0  -0.104404  0  3.894432  0  0  -0.059333  -0.100023  0  3.865611  0
C  C34  1  0.66662016  0.23272121  0.60206352  1  0  0.013947  0  3.663102  0  0  -0.000997  0  3.913896  0  0  0.00039  0  3.930824  0  0  -0.057024  -0.001825  0  3.902513  0
C  C35  1  0.33332869  0.73270963  0.39795451  1  0  0.013937  0  3.6632  0  0  -0.001035  0  3.914005  0  0  0.000346  0  3.930947  0  0  -0.056932  -0.001841  0  3.902572  0
C  C36  1  0.80110620  0.14497237  0.56305273  1  0  -0.107322  0  3.700434  0  0  -0.135038  0  3.955365  0  0  -0.138681  0  3.9765  0  0  -0.066178  -0.132573  0  3.941241  0
C  C37  1  0.19884561  0.64495088  0.43695337  1  0  -0.10737  0  3.700435  0  0  -0.135082  0  3.955446  0  0  -0.138749  0  3.976556  0  0  -0.066251  -0.132599  0  3.941344  0
C  C38  1  0.75303494  0.02693652  0.58206753  1  0  0.077933  0  3.775152  0  0  0.081749  0  4.015994  0  0  0.08126  0  4.035216  0  0  0.114681  0.081863  0  4.003191  0
C  C39  1  0.24693459  0.52691851  0.41793265  1  0  0.077768  0  3.77486  0  0  0.081671  0  4.015829  0  0  0.081245  0  4.034906  0  0  0.114788  0.081708  0  4.003162  0
C  C40  1  0.88107574  0.92383052  0.54473920  1  0  0.633653  0  3.783292  0  0  0.580195  0  4.080259  0  0  0.613379  0  4.070951  0  0  0.248731  0.557404  0  4.086364  0
C  C41  1  0.11892647  0.42380083  0.45525558  1  0  0.634872  0  3.782679  0  0  0.581142  0  4.079894  0  0  0.6144  0  4.070446  0  0  0.248993  0.558335  0  4.086082  0
C  C42  1  0.18225749  0.54023416  0.76493811  1  0  0.605234  0  3.939631  0  0  0.549756  0  4.237787  0  0  0.583249  0  4.231303  0  0  0.215648  0.527101  0  4.241268  0
C  C43  1  0.81778001  0.04024397  0.23505655  1  0  0.605126  0  3.939776  0  0  0.549555  0  4.238054  0  0  0.583046  0  4.231565  0  0  0.215554  0.526905  0  4.24154  0
C  C44  1  0.99614195  0.49246169  0.82362149  1  0  0.091276  0  3.738195  0  0  0.092928  0  3.980785  0  0  0.093509  0  3.999185  0  0  0.11799  0.092339  0  3.968453  0
C  C45  1  0.00389188  0.99247355  0.17637675  1  0  0.091456  0  3.738237  0  0  0.093016  0  3.980824  0  0  0.093603  0  3.999212  0  0  0.118043  0.092422  0  3.9685  0
C  C46  1  0.91113029  0.37534928  0.81920782  1  0  -0.093155  0  3.654707  0  0  -0.117464  0  3.90457  0  0  -0.120026  0  3.92159  0  0  -0.066928  -0.11585  0  3.893276  0
C  C47  1  0.08890190  0.87535872  0.18078484  1  0  -0.093141  0  3.654703  0  0  -0.117599  0  3.904584  0  0  -0.12016  0  3.921598  0  0  -0.067025  -0.115976  0  3.893274  0
C  C48  1  0.72192694  0.34230230  0.87038836  1  0  0.013993  0  3.66662  0  0  -0.002376  0  3.918441  0  0  8.5e-05  0  3.934328  0  0  -0.05362  -0.003849  0  3.907683  0
C  C49  1  0.27809309  0.84230975  0.12959841  1  0  0.014176  0  3.666199  0  0  -0.002233  0  3.918047  0  0  0.000221  0  3.93394  0  0  -0.053556  -0.003712  0  3.907303  0
C  C50  1  0.62483878  0.42583652  0.92466823  1  0  -0.122733  0  3.707866  0  0  -0.145993  0  3.964743  0  0  -0.151036  0  3.984817  0  0  -0.065184  -0.142677  0  3.951503  0
C  C51  1  0.37519208  0.92585507  0.07532263  1  0  -0.122807  0  3.707017  0  0  -0.14591  0  3.963924  0  0  -0.150976  0  3.984024  0  0  -0.065259  -0.142586  0  3.950679  0
C  C52  1  0.72388781  0.54060145  0.92709561  1  0  0.112091  0  3.710707  0  0  0.109968  0  3.954572  0  0  0.1123  0  3.971363  0  0  0.125494  0.108062  0  3.943493  0
C  C53  1  0.27613231  0.04062174  0.07290016  1  0  0.112338  0  3.710212  0  0  0.10986  0  3.954287  0  0  0.112192  0  3.971077  0  0  0.12567  0.107941  0  3.943221  0
C  C54  1  0.62560355  0.63898110  0.98084928  1  0  0.624124  0  3.920218  0  0  0.568803  0  4.22054  0  0  0.6028  0  4.211599  0  0  0.2233  0.545805  0  4.225819  0
C  C55  1  0.37442006  0.13900626  0.01914792  1  0  0.623892  0  3.92052  0  0  0.568638  0  4.220902  0  0  0.602633  0  4.211959  0  0  0.223112  0.545639  0  4.226184  0
N  N56  1  0.58335853  0.99675017  0.63679335  1  0  -0.316912  0  3.248854  0  0  -0.258163  0  3.487938  0  0  -0.271341  0  3.508353  0  0  -0.275322  -0.248999  0  3.474216  0
N  N57  1  0.41663828  0.49675187  0.36320826  1  0  -0.317011  0  3.248648  0  0  -0.258385  0  3.487782  0  0  -0.271603  0  3.50818  0  0  -0.275405  -0.249209  0  3.474103  0
N  N58  1  0.90596360  0.57130458  0.87781672  1  0  -0.301579  0  3.281716  0  0  -0.230045  0  3.513635  0  0  -0.244299  0  3.533906  0  0  -0.276685  -0.220211  0  3.500015  0
N  N59  1  0.09406503  0.07131798  0.12218282  1  0  -0.301846  0  3.282045  0  0  -0.229901  0  3.513645  0  0  -0.244152  0  3.533913  0  0  -0.276702  -0.220068  0  3.50003  0
O  O60  1  0.23557366  0.92604420  0.74065555  1  0  -0.624411  0  2.074014  0  0  -0.547746  0  2.323714  0  0  -0.577167  0  2.317277  0  0  -0.280643  -0.527051  0  2.327518  0
O  O61  1  0.76443800  0.42607516  0.25934165  1  0  -0.624247  0  2.073543  0  0  -0.547753  0  2.323381  0  0  -0.577166  0  2.316935  0  0  -0.280773  -0.527068  0  2.327203  0
O  O62  1  0.15683939  0.11518462  0.77604632  1  0  -0.572037  0  1.946332  0  0  -0.518774  0  2.164225  0  0  -0.543098  0  2.157259  0  0  -0.294014  -0.50172  0  2.168479  0
O  O63  1  0.84311537  0.61522090  0.22395458  1  0  -0.572114  0  1.946392  0  0  -0.518802  0  2.164195  0  0  -0.543113  0  2.157225  0  0  -0.293906  -0.501753  0  2.168443  0
O  O64  1  0.07036700  0.94281081  0.49575147  1  0  -0.528754  0  2.158898  0  0  -0.476017  0  2.381136  0  0  -0.49749  0  2.367819  0  0  -0.310707  -0.461  0  2.390121  0
O  O65  1  0.92962936  0.44277413  0.50424064  1  0  -0.52932  0  2.15842  0  0  -0.476314  0  2.381172  0  0  -0.497779  0  2.367698  0  0  -0.310967  -0.461207  0  2.390059  0
O  O66  1  0.82373664  0.82073040  0.55850563  1  0  -0.53415  0  2.00661  0  0  -0.483859  0  2.237951  0  0  -0.507587  0  2.233272  0  0  -0.246557  -0.467513  0  2.241075  0
O  O67  1  0.17629342  0.32071533  0.44148740  1  0  -0.534703  0  2.006845  0  0  -0.484343  0  2.238438  0  0  -0.508117  0  2.233718  0  0  -0.246684  -0.467975  0  2.241547  0
O  O68  1  0.25949636  0.64665934  0.78106151  1  0  -0.62587  0  2.104864  0  0  -0.539327  0  2.348396  0  0  -0.569803  0  2.342501  0  0  -0.266644  -0.517808  0  2.351666  0
O  O69  1  0.74054582  0.14667631  0.21893977  1  0  -0.625877  0  2.104866  0  0  -0.539309  0  2.348369  0  0  -0.569814  0  2.342553  0  0  -0.266712  -0.517739  0  2.351514  0
O  O70  1  0.24050258  0.47498649  0.70301819  1  0  -0.611814  0  1.959599  0  0  -0.553838  0  2.178346  0  0  -0.578124  0  2.170123  0  0  -0.308028  -0.536768  0  2.183428  0
O  O71  1  0.75953485  0.97499042  0.29697396  1  0  -0.611642  0  1.959822  0  0  -0.55362  0  2.178635  0  0  -0.577895  0  2.170416  0  0  -0.307796  -0.536554  0  2.183713  0
O  O72  1  0.42406509  0.62042242  0.01484464  1  0  -0.630357  0  2.030065  0  0  -0.571622  0  2.261284  0  0  -0.5974  0  2.253804  0  0  -0.295747  -0.553463  0  2.265797  0
O  O73  1  0.57596629  0.12045098  0.98515731  1  0  -0.630446  0  2.030225  0  0  -0.571688  0  2.261315  0  0  -0.597462  0  2.253827  0  0  -0.295813  -0.553551  0  2.265884  0
O  O74  1  0.74740677  0.73738203  0.98409302  1  0  -0.601082  0  2.022833  0  0  -0.528603  0  2.261816  0  0  -0.556482  0  2.25518  0  0  -0.280282  -0.509031  0  2.265794  0
O  O75  1  0.25260878  0.23740574  0.01590768  1  0  -0.600859  0  2.023199  0  0  -0.528347  0  2.262126  0  0  -0.556228  0  2.255488  0  0  -0.280093  -0.508772  0  2.26611  0
O  O76  1  0.64921496  0.54476523  0.62553139  1  0  -0.841633  0  1.800667  0  0  -0.787609  0  1.972092  0  0  -0.807472  0  1.94647  0  0  -0.59181  -0.77326  0  1.989924  0
O  O77  1  0.35082797  0.04477022  0.37446942  1  0  -0.841498  0  1.800765  0  0  -0.787537  0  1.972188  0  0  -0.807404  0  1.946593  0  0  -0.59183  -0.773185  0  1.98989  0
O  O78  1  0.82096634  0.00286346  0.86689749  1  0  -0.864092  0  1.852225  0  0  -0.800887  0  2.023941  0  0  -0.822694  0  1.992923  0  0  -0.577088  -0.785208  0  2.045443  0
O  O79  1  0.17898445  0.50288475  0.13310359  1  0  -0.863884  0  1.852476  0  0  -0.800788  0  2.024048  0  0  -0.822617  0  1.993081  0  0  -0.577112  -0.785115  0  2.045545  0
O  O80  1  0.73592777  0.80304439  0.78344951  1  0  -0.851253  0  1.861229  0  0  -0.742017  0  2.098239  0  0  -0.770708  0  2.073791  0  0  -0.502197  -0.721417  0  2.114821  0
O  O81  1  0.26408283  0.30306031  0.21654093  1  0  -0.851359  0  1.861183  0  0  -0.741975  0  2.098106  0  0  -0.770631  0  2.073536  0  0  -0.502274  -0.721449  0  2.114779  0
