# generated using pymatgen
data_AgH3C4NO3
_symmetry_space_group_name_H-M   'P 1'
_cell_length_a   7.37965701
_cell_length_b   10.84476676
_cell_length_c   13.64828936
_cell_angle_alpha   89.99974105
_cell_angle_beta   102.53339728
_cell_angle_gamma   90.00027974
_symmetry_Int_Tables_number   1
_chemical_formula_structural   AgH3C4NO3
_chemical_formula_sum   'Ag8 H24 C32 N8 O24'
_cell_volume   1066.25217236
_cell_formula_units_Z   8
loop_
 _symmetry_equiv_pos_site_id
 _symmetry_equiv_pos_as_xyz
  1  'x, y, z'
loop_
 _atom_site_type_symbol
 _atom_site_label
 _atom_site_symmetry_multiplicity
 _atom_site_fract_x
 _atom_site_fract_y
 _atom_site_fract_z
 _atom_site_occupancy
 _atom_site_hle17_bader_spin_density
 _atom_site_hle17_ddec_charge
 _atom_site_hle17_ddec_spin_density
 _atom_site_hle17_ddec_sum_bond_order
 _atom_site_hle17_magmom
 _atom_site_hse06_10hf_bader_spin_density
 _atom_site_hse06_10hf_ddec_charge
 _atom_site_hse06_10hf_ddec_spin_density
 _atom_site_hse06_10hf_ddec_sum_bond_order
 _atom_site_hse06_10hf_magmom
 _atom_site_hse06_bader_spin_density
 _atom_site_hse06_ddec_charge
 _atom_site_hse06_ddec_spin_density
 _atom_site_hse06_ddec_sum_bond_order
 _atom_site_hse06_magmom
 _atom_site_pbe_bader_spin_density
 _atom_site_pbe_cm5_charge
 _atom_site_pbe_ddec_charge
 _atom_site_pbe_ddec_spin_density
 _atom_site_pbe_ddec_sum_bond_order
 _atom_site_pbe_magmom
Ag  Ag0  1  0.19669710  0.47112386  0.49068362  1  0  0.539276  0  1.524907  0  0  0.427718  0  2.005688  0  0  0.464124  0  1.935979  0  0  0.398273  0.404678  0  2.051841  0
Ag  Ag1  1  0.30329782  0.97112183  0.50931525  1  0  0.539257  0  1.524889  0  0  0.427701  0  2.005634  0  0  0.464118  0  1.935921  0  0  0.398267  0.404657  0  2.051786  0
Ag  Ag2  1  0.80330509  0.52887342  0.50931709  1  0  0.539261  0  1.524825  0  0  0.42769  0  2.005651  0  0  0.464113  0  1.935915  0  0  0.39825  0.404638  0  2.051802  0
Ag  Ag3  1  0.69669327  0.02887084  0.49068416  1  0  0.539257  0  1.524826  0  0  0.427644  0  2.005672  0  0  0.464084  0  1.935915  0  0  0.398243  0.404594  0  2.051825  0
Ag  Ag4  1  0.51053628  0.20938773  0.58866872  1  0  0.533987  0  1.529926  0  0  0.41432  0  2.030834  0  0  0.446272  0  1.964428  0  0  0.41653  0.391721  0  2.076624  0
Ag  Ag5  1  0.98946176  0.70939057  0.41132892  1  0  0.533941  0  1.529964  0  0  0.41427  0  2.030885  0  0  0.446225  0  1.96448  0  0  0.416509  0.391678  0  2.076665  0
Ag  Ag6  1  0.48946036  0.79060863  0.41132988  1  0  0.534012  0  1.529976  0  0  0.414362  0  2.030889  0  0  0.446312  0  1.964483  0  0  0.416542  0.391767  0  2.07669  0
Ag  Ag7  1  0.01053627  0.29060856  0.58867057  1  0  0.533946  0  1.529908  0  0  0.41429  0  2.03082  0  0  0.446242  0  1.964414  0  0  0.416516  0.391695  0  2.076597  0
H  H8  1  0.75499516  0.89227819  0.80446204  1  0  0.101916  0  0.954097  0  0  0.10914  0  1.020797  0  0  0.112711  0  1.018256  0  0  0.105995  0.106353  0  1.023039  0
H  H9  1  0.74501093  0.39227377  0.19554394  1  0  0.101958  0  0.954135  0  0  0.109179  0  1.020818  0  0  0.112746  0  1.018286  0  0  0.106019  0.106391  0  1.023064  0
H  H10  1  0.24500426  0.10772370  0.19553395  1  0  0.101964  0  0.954115  0  0  0.109119  0  1.020878  0  0  0.112681  0  1.01836  0  0  0.105986  0.106337  0  1.023121  0
H  H11  1  0.25499266  0.60772721  0.80445913  1  0  0.101963  0  0.954122  0  0  0.109089  0  1.020921  0  0  0.112659  0  1.01838  0  0  0.105991  0.106306  0  1.023158  0
H  H12  1  0.87701547  0.56939033  0.99161391  1  0  0.113206  0  0.95528  0  0  0.118179  0  1.022916  0  0  0.122013  0  1.019713  0  0  0.109773  0.115417  0  1.025258  0
H  H13  1  0.62297759  0.06939670  0.00838804  1  0  0.113195  0  0.955288  0  0  0.118169  0  1.022927  0  0  0.122003  0  1.019725  0  0  0.109771  0.115403  0  1.02527  0
H  H14  1  0.12298812  0.43061525  0.00838696  1  0  0.113176  0  0.955303  0  0  0.118157  0  1.022935  0  0  0.121993  0  1.019732  0  0  0.109769  0.11541  0  1.025256  0
H  H15  1  0.37702045  0.93060796  0.99161291  1  0  0.113204  0  0.95526  0  0  0.118185  0  1.022899  0  0  0.122021  0  1.019696  0  0  0.109772  0.115428  0  1.025239  0
H  H16  1  0.91425771  0.79430079  0.96673640  1  0  0.100238  0  0.945811  0  0  0.106094  0  1.00989  0  0  0.108964  0  1.009004  0  0  0.101746  0.104141  0  1.010491  0
H  H17  1  0.58574502  0.29430505  0.03326954  1  0  0.10026  0  0.945719  0  0  0.106119  0  1.009806  0  0  0.108958  0  1.008952  0  0  0.101762  0.10416  0  1.010415  0
H  H18  1  0.08574171  0.20570480  0.03326179  1  0  0.100274  0  0.945777  0  0  0.106111  0  1.009883  0  0  0.108966  0  1.009014  0  0  0.10174  0.10416  0  1.010472  0
H  H19  1  0.41425579  0.70569869  0.96673174  1  0  0.10025  0  0.945777  0  0  0.106094  0  1.009869  0  0  0.108952  0  1.008995  0  0  0.101756  0.104139  0  1.010481  0
H  H20  1  0.52745110  0.03548599  0.72338395  1  0  0.343455  0  0.920925  0  0  0.328763  0  0.979571  0  0  0.335365  0  0.975951  0  0  0.282858  0.324037  0  0.982254  0
H  H21  1  0.97254591  0.53548493  0.27661564  1  0  0.343424  0  0.920943  0  0  0.32874  0  0.979577  0  0  0.33534  0  0.975964  0  0  0.28285  0.324015  0  0.982262  0
H  H22  1  0.47254276  0.96451130  0.27661505  1  0  0.343427  0  0.920942  0  0  0.328729  0  0.979614  0  0  0.335333  0  0.975989  0  0  0.282848  0.324006  0  0.982294  0
H  H23  1  0.02745490  0.46451236  0.72338490  1  0  0.34341  0  0.920932  0  0  0.328719  0  0.979591  0  0  0.33532  0  0.975973  0  0  0.282852  0.323988  0  0.982276  0
H  H24  1  0.71853049  0.11932572  0.75867162  1  0  0.334669  0  0.906942  0  0  0.323243  0  0.963463  0  0  0.328677  0  0.960431  0  0  0.286692  0.319415  0  0.965622  0
H  H25  1  0.78146564  0.61932515  0.24132831  1  0  0.334639  0  0.906951  0  0  0.323205  0  0.963488  0  0  0.328637  0  0.960458  0  0  0.286677  0.319376  0  0.965655  0
H  H26  1  0.28146477  0.88066972  0.24132681  1  0  0.334656  0  0.906932  0  0  0.323226  0  0.963453  0  0  0.328659  0  0.960419  0  0  0.286673  0.319404  0  0.96561  0
H  H27  1  0.21853378  0.38067122  0.75867281  1  0  0.334684  0  0.906898  0  0  0.323248  0  0.963426  0  0  0.328682  0  0.960391  0  0  0.286686  0.319418  0  0.965592  0
H  H28  1  0.52288806  0.16896124  0.78642458  1  0  0.333304  0  0.913399  0  0  0.315723  0  0.978885  0  0  0.321655  0  0.975293  0  0  0.281833  0.311676  0  0.981289  0
H  H29  1  0.97711113  0.66896148  0.21357407  1  0  0.333285  0  0.913431  0  0  0.315708  0  0.978904  0  0  0.321642  0  0.975309  0  0  0.281849  0.311659  0  0.981317  0
H  H30  1  0.47710858  0.83103512  0.21357475  1  0  0.333293  0  0.913416  0  0  0.315719  0  0.978886  0  0  0.321648  0  0.975299  0  0  0.281839  0.311677  0  0.981286  0
H  H31  1  0.02288690  0.33103673  0.78642542  1  0  0.333261  0  0.91342  0  0  0.315678  0  0.978913  0  0  0.32161  0  0.97532  0  0  0.28181  0.311628  0  0.981321  0
C  C32  1  0.74089918  0.79395514  0.81680148  1  0  -0.040239  0  3.682322  0  0  -0.073409  0  3.942286  0  0  -0.071882  0  3.960336  0  0  -0.072237  -0.074572  0  3.930361  0
C  C33  1  0.75909383  0.29395359  0.18320405  1  0  -0.04023  0  3.682373  0  0  -0.073312  0  3.942349  0  0  -0.071785  0  3.960391  0  0  -0.072221  -0.074476  0  3.930424  0
C  C34  1  0.25910440  0.20604584  0.18319572  1  0  -0.040203  0  3.682491  0  0  -0.073316  0  3.942439  0  0  -0.071789  0  3.960481  0  0  -0.072195  -0.074481  0  3.930524  0
C  C35  1  0.24090559  0.70604830  0.81679706  1  0  -0.0402  0  3.682407  0  0  -0.073285  0  3.942341  0  0  -0.071757  0  3.960387  0  0  -0.072184  -0.074451  0  3.930419  0
C  C36  1  0.81189890  0.61347159  0.92115854  1  0  -0.096058  0  3.719372  0  0  -0.125245  0  3.984513  0  0  -0.124092  0  4.001718  0  0  -0.082091  -0.125916  0  3.972868  0
C  C37  1  0.68809858  0.11347317  0.07884377  1  0  -0.096015  0  3.719472  0  0  -0.125206  0  3.984601  0  0  -0.124051  0  4.001795  0  0  -0.082094  -0.125869  0  3.972948  0
C  C38  1  0.18810884  0.38653215  0.07884062  1  0  -0.09605  0  3.719195  0  0  -0.125256  0  3.984348  0  0  -0.124103  0  4.001548  0  0  -0.0821  -0.125934  0  3.972679  0
C  C39  1  0.31189668  0.88652872  0.92115686  1  0  -0.095997  0  3.719493  0  0  -0.125213  0  3.984651  0  0  -0.124063  0  4.001853  0  0  -0.082072  -0.125891  0  3.973008  0
C  C40  1  0.70366535  0.54478136  0.84355864  1  0  0.053971  0  3.713342  0  0  0.035515  0  3.969175  0  0  0.032688  0  3.990818  0  0  0.075978  0.037298  0  3.954399  0
C  C41  1  0.79632060  0.04478194  0.15643670  1  0  0.054028  0  3.713376  0  0  0.035621  0  3.969149  0  0  0.032793  0  3.990793  0  0  0.076014  0.037401  0  3.954383  0
C  C42  1  0.29634100  0.45522054  0.15644182  1  0  0.053797  0  3.713263  0  0  0.035386  0  3.969121  0  0  0.032555  0  3.990769  0  0  0.075906  0.03717  0  3.954345  0
C  C43  1  0.20367326  0.95521904  0.84356156  1  0  0.054026  0  3.713479  0  0  0.035604  0  3.969311  0  0  0.032779  0  3.990953  0  0  0.07604  0.037386  0  3.954536  0
C  C44  1  0.61766203  0.59559400  0.75075723  1  0  -0.063384  0  3.657395  0  0  -0.059608  0  3.899579  0  0  -0.059445  0  3.914209  0  0  0.00754  -0.05973  0  3.889544  0
C  C45  1  0.88232979  0.09558973  0.24924521  1  0  -0.063482  0  3.657117  0  0  -0.059703  0  3.899467  0  0  -0.059538  0  3.914095  0  0  0.007519  -0.059834  0  3.889449  0
C  C46  1  0.38234571  0.40440697  0.24924266  1  0  -0.063232  0  3.657291  0  0  -0.059486  0  3.899448  0  0  -0.059324  0  3.914079  0  0  0.007634  -0.059608  0  3.889417  0
C  C47  1  0.11766408  0.90440940  0.75075673  1  0  -0.063306  0  3.657147  0  0  -0.059605  0  3.899401  0  0  -0.059439  0  3.91403  0  0  0.007572  -0.059731  0  3.889368  0
C  C48  1  0.82999899  0.73953800  0.90699454  1  0  -0.046668  0  3.743341  0  0  -0.063616  0  4.00974  0  0  -0.066903  0  4.031191  0  0  -0.084454  -0.061364  0  3.995055  0
C  C49  1  0.66999370  0.23953944  0.09300968  1  0  -0.046731  0  3.7432  0  0  -0.063705  0  4.009632  0  0  -0.066962  0  4.031085  0  0  -0.084486  -0.061451  0  3.994937  0
C  C50  1  0.17000321  0.26046666  0.09300470  1  0  -0.046733  0  3.743352  0  0  -0.063659  0  4.009745  0  0  -0.066932  0  4.031194  0  0  -0.084444  -0.061401  0  3.995056  0
C  C51  1  0.33000434  0.76046338  0.90699200  1  0  -0.046708  0  3.743254  0  0  -0.063641  0  4.009645  0  0  -0.066915  0  4.031093  0  0  -0.084487  -0.061393  0  3.994966  0
C  C52  1  0.51718864  0.51544667  0.66543414  1  0  0.655122  0  3.940474  0  0  0.592536  0  4.246133  0  0  0.629025  0  4.238678  0  0  0.196745  0.567987  0  4.249845  0
C  C53  1  0.98280965  0.01544409  0.33456568  1  0  0.655147  0  3.940569  0  0  0.592525  0  4.246324  0  0  0.629015  0  4.238872  0  0  0.196718  0.567979  0  4.250036  0
C  C54  1  0.48281633  0.48455339  0.33456616  1  0  0.655102  0  3.940774  0  0  0.592578  0  4.246376  0  0  0.62907  0  4.238919  0  0  0.196725  0.568029  0  4.25009  0
C  C55  1  0.01718561  0.98455596  0.66543495  1  0  0.655118  0  3.940532  0  0  0.592587  0  4.246156  0  0  0.62907  0  4.238713  0  0  0.196761  0.568041  0  4.249863  0
C  C56  1  0.63776388  0.72303250  0.73862527  1  0  -0.037329  0  3.676878  0  0  -0.01979  0  3.910582  0  0  -0.025201  0  3.928011  0  0  0.003246  -0.01636  0  3.898799  0
C  C57  1  0.86222593  0.22302901  0.26137575  1  0  -0.037338  0  3.676649  0  0  -0.019984  0  3.910627  0  0  -0.025398  0  3.928062  0  0  0.003172  -0.016554  0  3.898852  0
C  C58  1  0.36224109  0.27696755  0.26137283  1  0  -0.037462  0  3.676768  0  0  -0.019874  0  3.910498  0  0  -0.025285  0  3.927925  0  0  0.003193  -0.016446  0  3.89873  0
C  C59  1  0.13777072  0.77697196  0.73862504  1  0  -0.037528  0  3.676896  0  0  -0.019942  0  3.910573  0  0  -0.025353  0  3.928002  0  0  0.003087  -0.016511  0  3.89879  0
C  C60  1  0.55235480  0.78366464  0.64061573  1  0  0.671836  0  3.860614  0  0  0.611822  0  4.146387  0  0  0.648938  0  4.140838  0  0  0.217431  0.586837  0  4.149214  0
C  C61  1  0.94764509  0.28365904  0.35938771  1  0  0.671921  0  3.860427  0  0  0.611989  0  4.146145  0  0  0.649105  0  4.140604  0  0  0.217559  0.587002  0  4.148982  0
C  C62  1  0.44764878  0.21633264  0.35938294  1  0  0.671995  0  3.860333  0  0  0.611879  0  4.14625  0  0  0.648997  0  4.140703  0  0  0.217446  0.586895  0  4.149084  0
C  C63  1  0.05235156  0.71633824  0.64061528  1  0  0.67178  0  3.860634  0  0  0.611775  0  4.146385  0  0  0.648891  0  4.140844  0  0  0.217446  0.586786  0  4.149214  0
N  N64  1  0.67852199  0.41408873  0.86149326  1  0  0.473768  0  3.939181  0  0  0.519452  0  4.213895  0  0  0.539991  0  4.223128  0  0  0.057509  0.505466  0  4.207751  0
N  N65  1  0.82148282  0.91409164  0.13850443  1  0  0.473576  0  3.939095  0  0  0.519283  0  4.213796  0  0  0.539817  0  4.223037  0  0  0.057474  0.505296  0  4.207656  0
N  N66  1  0.32148298  0.58591408  0.13851070  1  0  0.474043  0  3.938836  0  0  0.519672  0  4.213577  0  0  0.540209  0  4.222814  0  0  0.057524  0.505687  0  4.207434  0
N  N67  1  0.17851659  0.08591025  0.86149376  1  0  0.473603  0  3.939177  0  0  0.519316  0  4.213871  0  0  0.539853  0  4.223107  0  0  0.05749  0.505331  0  4.20773  0
N  N68  1  0.57773599  0.12405595  0.73373673  1  0  -0.854798  0  3.016935  0  0  -0.797125  0  3.252088  0  0  -0.822663  0  3.241171  0  0  -0.792929  -0.779464  0  3.25912  0
N  N69  1  0.92226016  0.62405478  0.26626245  1  0  -0.85473  0  3.017023  0  0  -0.797057  0  3.25219  0  0  -0.822599  0  3.241281  0  0  -0.792917  -0.77939  0  3.259219  0
N  N70  1  0.42225787  0.87594041  0.26626227  1  0  -0.854768  0  3.016938  0  0  -0.797099  0  3.252099  0  0  -0.822636  0  3.241186  0  0  -0.792904  -0.779438  0  3.259131  0
N  N71  1  0.07774065  0.37594250  0.73373883  1  0  -0.854704  0  3.016825  0  0  -0.797016  0  3.251955  0  0  -0.822554  0  3.241044  0  0  -0.792873  -0.779358  0  3.259  0
O  O72  1  0.34497944  0.53916850  0.63543394  1  0  -0.590162  0  2.125535  0  0  -0.508876  0  2.393697  0  0  -0.54401  0  2.386255  0  0  -0.317034  -0.483804  0  2.397294  0
O  O73  1  0.15501847  0.03916834  0.36456463  1  0  -0.590145  0  2.125512  0  0  -0.508885  0  2.393734  0  0  -0.544018  0  2.386296  0  0  -0.317042  -0.48381  0  2.397328  0
O  O74  1  0.65502553  0.46083432  0.36456269  1  0  -0.590057  0  2.125657  0  0  -0.508851  0  2.393863  0  0  -0.543987  0  2.386421  0  0  -0.317021  -0.483778  0  2.397458  0
O  O75  1  0.84497541  0.96083263  0.63543804  1  0  -0.590177  0  2.125447  0  0  -0.508967  0  2.393665  0  0  -0.544099  0  2.386225  0  0  -0.317089  -0.483894  0  2.397257  0
O  O76  1  0.81573335  0.35345683  0.90457142  1  0  -0.347552  0  1.776773  0  0  -0.329596  0  1.976478  0  0  -0.341041  0  1.97388  0  0  -0.118146  -0.322195  0  1.978519  0
O  O77  1  0.68425999  0.85345676  0.09541782  1  0  -0.347576  0  1.776364  0  0  -0.329637  0  1.976076  0  0  -0.341084  0  1.973482  0  0  -0.118229  -0.322231  0  1.978117  0
O  O78  1  0.18427579  0.64654598  0.09543376  1  0  -0.347677  0  1.776708  0  0  -0.329709  0  1.976423  0  0  -0.341156  0  1.973829  0  0  -0.118195  -0.322312  0  1.978476  0
O  O79  1  0.31573803  0.14654514  0.90457580  1  0  -0.347583  0  1.77653  0  0  -0.329644  0  1.976235  0  0  -0.341089  0  1.973636  0  0  -0.118218  -0.322251  0  1.978285  0
O  O80  1  0.61140376  0.43436265  0.63281412  1  0  -0.63009  0  2.035021  0  0  -0.565264  0  2.318278  0  0  -0.594759  0  2.303279  0  0  -0.33438  -0.544857  0  2.327509  0
O  O81  1  0.88859563  0.93435895  0.36718799  1  0  -0.630087  0  2.035162  0  0  -0.565179  0  2.318352  0  0  -0.594676  0  2.303358  0  0  -0.334318  -0.544771  0  2.327585  0
O  O82  1  0.38859566  0.56563372  0.36718846  1  0  -0.630166  0  2.03508  0  0  -0.565357  0  2.318317  0  0  -0.594853  0  2.303317  0  0  -0.334377  -0.544952  0  2.327554  0
O  O83  1  0.11140241  0.06563926  0.63281297  1  0  -0.630068  0  2.035133  0  0  -0.565225  0  2.318337  0  0  -0.594716  0  2.303342  0  0  -0.334343  -0.544821  0  2.327568  0
O  O84  1  0.51963221  0.36959612  0.83410679  1  0  -0.362595  0  1.794613  0  0  -0.341095  0  1.994788  0  0  -0.353107  0  1.990947  0  0  -0.122112  -0.33381  0  1.99813  0
O  O85  1  0.98036122  0.86960678  0.16588314  1  0  -0.362394  0  1.794865  0  0  -0.340927  0  1.995041  0  0  -0.352929  0  1.991202  0  0  -0.121989  -0.333633  0  1.998374  0
O  O86  1  0.48037693  0.63040670  0.16589693  1  0  -0.362616  0  1.79444  0  0  -0.341095  0  1.994619  0  0  -0.353093  0  1.99077  0  0  -0.122025  -0.333808  0  1.997957  0
O  O87  1  0.01963819  0.13039696  0.83411212  1  0  -0.362412  0  1.794742  0  0  -0.340948  0  1.994929  0  0  -0.352962  0  1.991098  0  0  -0.122038  -0.333663  0  1.998268  0
O  O88  1  0.57358046  0.72809063  0.56198585  1  0  -0.587036  0  2.184709  0  0  -0.503121  0  2.47009  0  0  -0.537043  0  2.457934  0  0  -0.312651  -0.480421  0  2.478428  0
O  O89  1  0.92642325  0.22808359  0.43801458  1  0  -0.586971  0  2.184701  0  0  -0.503073  0  2.470052  0  0  -0.536997  0  2.457897  0  0  -0.312692  -0.480373  0  2.478387  0
O  O90  1  0.42642589  0.27190850  0.43801241  1  0  -0.587088  0  2.184494  0  0  -0.503111  0  2.469887  0  0  -0.537037  0  2.457736  0  0  -0.312646  -0.480407  0  2.478222  0
O  O91  1  0.07357340  0.77191370  0.56198695  1  0  -0.586899  0  2.184722  0  0  -0.502998  0  2.47009  0  0  -0.536922  0  2.457938  0  0  -0.312627  -0.480303  0  2.47843  0
O  O92  1  0.46587593  0.88376714  0.64572700  1  0  -0.598871  0  2.165317  0  0  -0.515743  0  2.422206  0  0  -0.550287  0  2.415156  0  0  -0.306113  -0.492516  0  2.425864  0
O  O93  1  0.03413236  0.38376295  0.35427668  1  0  -0.598961  0  2.165125  0  0  -0.515894  0  2.422097  0  0  -0.550405  0  2.41497  0  0  -0.306194  -0.492671  0  2.425768  0
O  O94  1  0.53412349  0.11622830  0.35427119  1  0  -0.598923  0  2.165263  0  0  -0.515747  0  2.422195  0  0  -0.550284  0  2.415118  0  0  -0.306108  -0.492519  0  2.425856  0
O  O95  1  0.96586845  0.61623526  0.64572680  1  0  -0.598883  0  2.165288  0  0  -0.515774  0  2.422222  0  0  -0.550298  0  2.415125  0  0  -0.306132  -0.492546  0  2.42588  0
