# generated using pymatgen
data_CdH12C12(BrN)2
_symmetry_space_group_name_H-M   'P 1'
_cell_length_a   7.58529404
_cell_length_b   9.61636255
_cell_length_c   10.43525315
_cell_angle_alpha   62.67398134
_cell_angle_beta   79.58430494
_cell_angle_gamma   89.98501930
_symmetry_Int_Tables_number   1
_chemical_formula_structural   CdH12C12(BrN)2
_chemical_formula_sum   'Cd2 H24 C24 Br4 N4'
_cell_volume   662.10637177
_cell_formula_units_Z   2
loop_
 _symmetry_equiv_pos_site_id
 _symmetry_equiv_pos_as_xyz
  1  'x, y, z'
loop_
 _atom_site_type_symbol
 _atom_site_label
 _atom_site_symmetry_multiplicity
 _atom_site_fract_x
 _atom_site_fract_y
 _atom_site_fract_z
 _atom_site_occupancy
 _atom_site_pbe_bader_charge
 _atom_site_pbe_bader_spin_density
 _atom_site_pbe_cm5_charge
 _atom_site_pbe_ddec_charge
 _atom_site_pbe_ddec_spin_density
 _atom_site_pbe_ddec_sum_bond_order
 _atom_site_pbe_magmom
Cd  Cd0  1  0.24991868  0.57559501  0.00036466  1  1.048813  0  0.541918  0.651548  0  2.498509  0
Cd  Cd1  1  0.75006809  0.42441177  0.99962380  1  1.048721  0  0.541905  0.651602  0  2.498512  0
H  H2  1  0.94982663  0.52356049  0.28556263  1  0.102576  0  0.09986  0.081741  0  1.041023  0
H  H3  1  0.54999720  0.80718959  0.71510772  1  0.101272  0  0.099488  0.081672  0  1.041461  0
H  H4  1  0.05016403  0.47644512  0.71443540  1  0.102555  0  0.099799  0.081667  0  1.04106  0
H  H5  1  0.45000622  0.19281014  0.28489880  1  0.101267  0  0.099516  0.081693  0  1.041479  0
H  H6  1  0.83554810  0.54093405  0.55264537  1  0.046214  0  0.087668  0.127464  0  1.034125  0
H  H7  1  0.66443420  0.09051114  0.44777910  1  0.051921  0  0.087603  0.127108  0  1.034568  0
H  H8  1  0.16444569  0.45906334  0.44735286  1  0.045738  0  0.087692  0.127503  0  1.03417  0
H  H9  1  0.33557554  0.90948507  0.55222329  1  0.051695  0  0.087613  0.127159  0  1.034501  0
H  H10  1  0.66474400  0.59193553  0.44885721  1  0.068923  0  0.088752  0.128195  0  1.020666  0
H  H11  1  0.83521052  0.03800826  0.55163965  1  0.035424  0  0.088934  0.128369  0  1.020503  0
H  H12  1  0.33525005  0.40806420  0.55113999  1  0.068998  0  0.088776  0.128247  0  1.020689  0
H  H13  1  0.16479909  0.96198678  0.44836517  1  0.035532  0  0.08892  0.128364  0  1.020568  0
H  H14  1  0.73624552  0.71811824  0.51566914  1  0.037683  0  0.087906  0.134118  0  1.007994  0
H  H15  1  0.76386857  0.23084432  0.48466577  1  0.042607  0  0.088022  0.134579  0  1.008841  0
H  H16  1  0.26374680  0.28187797  0.48433362  1  0.037794  0  0.087905  0.134141  0  1.007982  0
H  H17  1  0.23614092  0.76914953  0.51533764  1  0.042058  0  0.088019  0.134583  0  1.008721  0
H  H18  1  0.92707847  0.95284592  0.32245252  1  0.086031  0  0.102969  0.110479  0  1.001661  0
H  H19  1  0.57283254  0.27356811  0.67744363  1  0.059461  0  0.102805  0.110297  0  1.001186  0
H  H20  1  0.07292348  0.04715264  0.67755565  1  0.086096  0  0.10296  0.110428  0  1.001741  0
H  H21  1  0.42717018  0.72643750  0.32255858  1  0.05935  0  0.102843  0.110377  0  1.001131  0
H  H22  1  0.15531710  0.07915805  0.09512073  1  0.117386  0  0.098616  0.115296  0  1.034106  0
H  H23  1  0.34460127  0.17381059  0.90478610  1  0.107942  0  0.098549  0.115761  0  1.033957  0
H  H24  1  0.84468632  0.92084169  0.90488674  1  0.117544  0  0.098631  0.115315  0  1.03401  0
H  H25  1  0.65539559  0.82619032  0.09521311  1  0.107983  0  0.098514  0.11567  0  1.033958  0
C  C26  1  0.99417526  0.64631221  0.24967119  1  0.507047  0  0.041013  0.030259  0  3.919382  0
C  C27  1  0.50572804  0.89434120  0.75086563  1  0.470608  0  0.040943  0.029925  0  3.921668  0
C  C28  1  0.00581795  0.35369222  0.75032701  1  0.507136  0  0.040985  0.030307  0  3.919327  0
C  C29  1  0.49427685  0.10565971  0.24913828  1  0.47072  0  0.040909  0.029938  0  3.921977  0
C  C30  1  0.92083675  0.72437288  0.32895995  1  -0.03528  0  -0.001889  0.135882  0  3.956595  0
C  C31  1  0.57910308  0.05133093  0.67138516  1  0.02123  0  -0.001463  0.13569  0  3.95604  0
C  C32  1  0.07915914  0.27563155  0.67104173  1  -0.035364  0  -0.001831  0.135947  0  3.956489  0
C  C33  1  0.42091011  0.94867234  0.32861476  1  0.021474  0  -0.001454  0.135748  0  3.956042  0
C  C34  1  0.78240035  0.64046108  0.46833271  1  -0.04823  0  -0.243689  -0.417204  0  3.971686  0
C  C35  1  0.71764735  0.10607217  0.53205526  1  -0.028236  0  -0.243834  -0.417467  0  3.971416  0
C  C36  1  0.21759344  0.35953631  0.53166839  1  -0.047836  0  -0.243752  -0.417355  0  3.971754  0
C  C37  1  0.28235996  0.89392639  0.46794932  1  -0.027972  0  -0.243846  -0.417536  0  3.971149  0
C  C38  1  0.98175387  0.88321852  0.26903982  1  -0.051789  0  -0.070702  -0.087148  0  3.92643  0
C  C39  1  0.51809766  0.15074798  0.73102046  1  -0.034856  0  -0.070781  -0.086743  0  3.924873  0
C  C40  1  0.01824591  0.11678474  0.73096376  1  -0.051866  0  -0.070645  -0.087083  0  3.926423  0
C  C41  1  0.48191138  0.84925411  0.26897953  1  -0.03481  0  -0.070784  -0.086859  0  3.925095  0
C  C42  1  0.11116767  0.95514514  0.13942757  1  -0.072799  0  -0.081802  -0.145549  0  3.953999  0
C  C43  1  0.38876056  0.09379896  0.86063479  1  -0.082067  0  -0.082174  -0.14673  0  3.954621  0
C  C44  1  0.88883090  0.04485930  0.86057471  1  -0.073191  0  -0.081829  -0.145554  0  3.953963  0
C  C45  1  0.61123922  0.90620430  0.13936687  1  -0.082488  0  -0.082149  -0.146597  0  3.954716  0
C  C46  1  0.18033032  0.86725261  0.06900691  1  0.534443  0  0.114136  0.159537  0  3.98959  0
C  C47  1  0.31962958  0.93576576  0.93130685  1  0.542375  0  0.115068  0.161119  0  3.987558  0
C  C48  1  0.81966315  0.13275418  0.93098930  1  0.534445  0  0.114178  0.159586  0  3.989496  0
C  C49  1  0.68036510  0.06423985  0.06869449  1  0.542942  0  0.11504  0.161021  0  3.987803  0
Br  Br50  1  0.03094868  0.31020124  0.18022362  1  -0.592224  0  -0.264623  -0.44995  0  1.313911  0
Br  Br51  1  0.46824474  0.48926262  0.82013279  1  -0.591812  0  -0.264695  -0.450161  0  1.314022  0
Br  Br52  1  0.96904537  0.68979850  0.81976975  1  -0.59216  0  -0.264608  -0.449933  0  1.313966  0
Br  Br53  1  0.53175403  0.51073123  0.17987107  1  -0.591852  0  -0.264727  -0.450222  0  1.313956  0
N  N54  1  0.11965138  0.71472571  0.12557040  1  -1.213919  0  -0.329199  -0.249229  0  3.540338  0
N  N55  1  0.38028922  0.83934513  0.87496666  1  -1.230739  0  -0.32938  -0.248854  0  3.538108  0
N  N56  1  0.88034088  0.28528226  0.87442547  1  -1.213689  0  -0.329232  -0.249329  0  3.540351  0
N  N57  1  0.61971018  0.16065460  0.12503655  1  -1.230829  0  -0.329367  -0.248832  0  3.538553  0
