# generated using pymatgen
data_ZnH16C25N19O4
_symmetry_space_group_name_H-M   'P 1'
_cell_length_a   11.08013582
_cell_length_b   11.35194621
_cell_length_c   15.67655726
_cell_angle_alpha   87.36644408
_cell_angle_beta   95.68594967
_cell_angle_gamma   92.30019609
_symmetry_Int_Tables_number   1
_chemical_formula_structural   ZnH16C25N19O4
_chemical_formula_sum   'Zn2 H32 C50 N38 O8'
_cell_volume   1958.78465231
_cell_formula_units_Z   2
loop_
 _symmetry_equiv_pos_site_id
 _symmetry_equiv_pos_as_xyz
  1  'x, y, z'
loop_
 _atom_site_type_symbol
 _atom_site_label
 _atom_site_symmetry_multiplicity
 _atom_site_fract_x
 _atom_site_fract_y
 _atom_site_fract_z
 _atom_site_occupancy
 _atom_site_pbe_bader_charge
 _atom_site_pbe_bader_spin_density
 _atom_site_pbe_cm5_charge
 _atom_site_pbe_ddec_charge
 _atom_site_pbe_ddec_spin_density
 _atom_site_pbe_ddec_sum_bond_order
 _atom_site_pbe_magmom
Zn  Zn0  1  0.33945613  0.46540519  0.46196160  1  1.318088  0  0.707554  0.935243  0  2.139311  0
Zn  Zn1  1  0.60603873  0.49294340  0.50167449  1  1.305092  0  0.698626  0.915527  0  2.160678  0
H  H2  1  0.26399977  0.91998088  0.47519507  1  0.511049  0  0.297638  0.297081  0  1.017354  0
H  H3  1  0.22627691  0.89742159  0.58116721  1  0.467728  0  0.325961  0.331315  0  0.900433  0
H  H4  1  0.68124954  0.89273975  0.41496659  1  0.459689  0  0.277726  0.278779  0  1.038178  0
H  H5  1  0.79588921  0.92480980  0.49073927  1  0.441918  0  0.293663  0.29215  0  0.981267  0
H  H6  1  0.31215340  0.96421369  0.32244568  1  0.441234  0  0.303651  0.302979  0  0.937263  0
H  H7  1  0.31433141  0.82963367  0.36980035  1  0.463595  0  0.2953  0.296064  0  0.958818  0
H  H8  1  0.50627473  0.79016789  0.33651128  1  0.422549  0  0.296379  0.293932  0  0.951291  0
H  H9  1  0.52419988  0.91850200  0.28517774  1  0.417087  0  0.305504  0.303158  0  0.923466  0
H  H10  1  0.93888644  0.26278663  0.43021873  1  0.507174  0  0.316677  0.326093  0  0.908605  0
H  H11  1  0.80556724  0.32005850  0.43637297  1  0.506081  0  0.304028  0.31759  0  0.948323  0
H  H12  1  0.16667614  0.29046706  0.44452662  1  0.506893  0  0.291299  0.310623  0  0.984795  0
H  H13  1  0.10932343  0.40510566  0.38370573  1  0.465205  0  0.315525  0.318393  0  0.908144  0
H  H14  1  0.81822939  0.73526227  0.45945694  1  0.470549  0  0.282259  0.279629  0  1.037794  0
H  H15  1  0.77619711  0.67279405  0.36771703  1  0.468187  0  0.30374  0.314198  0  0.930768  0
H  H16  1  0.16417345  0.76907928  0.48845067  1  0.467793  0  0.296889  0.295861  0  1.000324  0
H  H17  1  0.02174259  0.79211052  0.43817163  1  0.461294  0  0.314109  0.3209  0  0.911852  0
H  H18  1  0.78288694  0.45029998  0.11498136  1  0.463935  0  0.29693  0.299663  0  0.955694  0
H  H19  1  0.73270349  0.56777174  0.05566533  1  0.457  0  0.282123  0.284915  0  1.02091  0
H  H20  1  0.26839882  0.43586594  0.13963820  1  0.456797  0  0.308413  0.309896  0  0.918996  0
H  H21  1  0.20999412  0.48323994  0.04076983  1  0.461037  0  0.298248  0.297349  0  0.961303  0
H  H22  1  0.70070903  0.37789968  0.84312674  1  0.475833  0  0.315433  0.323491  0  0.914162  0
H  H23  1  0.77021462  0.42483813  0.93918501  1  0.483924  0  0.299674  0.303783  0  0.961598  0
H  H24  1  0.21097807  0.50654940  0.85993313  1  0.496344  0  0.288031  0.292043  0  1.025425  0
H  H25  1  0.28277787  0.60605146  0.92960728  1  0.473415  0  0.289199  0.290861  0  0.999056  0
H  H26  1  0.34974567  0.64122919  0.07243268  1  0.46968  0  0.287615  0.294353  0  1.013093  0
H  H27  1  0.41336081  0.76981477  0.03153983  1  0.419383  0  0.309645  0.313019  0  0.923655  0
H  H28  1  0.61111245  0.71496899  0.11406602  1  0.410284  0  0.299224  0.292269  0  0.944619  0
H  H29  1  0.63886792  0.76246829  0.01557230  1  0.426818  0  0.311965  0.3152  0  0.91607  0
H  H30  1  0.37117044  0.85748045  0.68956630  1  0.534223  0  0.323405  0.335423  0  0.928894  0
H  H31  1  0.52591488  0.85933967  0.66303100  1  0.523616  0  0.306814  0.316374  0  0.986819  0
H  H32  1  0.73705089  0.90435470  0.65146718  1  0.454826  0  0.310083  0.314606  0  0.922423  0
H  H33  1  0.67665776  0.77766501  0.61728681  1  0.43665  0  0.298415  0.301917  0  0.957196  0
C  C34  1  0.54441846  0.26165569  0.48607046  1  1.601103  0  0.221047  0.581766  0  4.091503  0
C  C35  1  0.52393904  0.60146904  0.91987236  1  0.129372  0  0.054587  -0.01766  0  3.772777  0
C  C36  1  0.51344979  0.62282981  0.02039364  1  0.726659  0  0.195684  0.398972  0  3.759128  0
C  C37  1  0.46282705  0.46010125  0.80849189  1  -0.428788  0  -0.006677  0.012462  0  3.998756  0
C  C38  1  0.52080430  0.50831980  0.15916799  1  -0.399713  0  -0.014  0.012812  0  4.069079  0
C  C39  1  0.51591997  0.51243865  0.23589712  1  0.176597  0  -0.03905  -0.187068  0  3.926865  0
C  C40  1  0.40747227  0.10340649  0.54169522  1  0.168039  0  -0.076352  -0.224002  0  4.1156  0
C  C41  1  0.63259591  0.06179458  0.54885971  1  0.164609  0  0.044868  -0.03627  0  3.781168  0
C  C42  1  0.39972365  0.87748369  0.56265518  1  1.1695  0  0.264336  0.495805  0  3.967454  0
C  C43  1  0.62888038  0.91396352  0.53639808  1  0.749231  0  0.196209  0.412053  0  3.704476  0
C  C44  1  0.50397567  0.06975425  0.40385337  1  0.159391  0  0.055813  -0.013916  0  3.764877  0
C  C45  1  0.52215037  0.12391727  0.49720640  1  0.06981  0  0.022353  -0.025751  0  3.744669  0
C  C46  1  0.49740721  0.86763026  0.49884254  1  -0.00204  0  0.02062  -0.240063  0  3.508559  0
C  C47  1  0.50073950  0.50694210  0.32577444  1  1.639019  0  0.233097  0.684516  0  4.194627  0
C  C48  1  0.46451572  0.92918363  0.40504224  1  0.701456  0  0.192384  0.397505  0  3.686998  0
C  C49  1  0.94226979  0.39692587  0.51253442  1  0.714966  0  0.199437  0.263259  0  3.870759  0
C  C50  1  0.09140901  0.41548904  0.51524098  1  0.647531  0  0.197505  0.251214  0  3.815201  0
C  C51  1  0.91875374  0.58864721  0.43057242  1  0.692128  0  0.198596  0.26925  0  3.853038  0
C  C52  1  0.06306018  0.62022073  0.45265552  1  0.734148  0  0.198144  0.260716  0  3.875377  0
C  C53  1  0.92290194  0.58215092  0.58950172  1  0.430451  0  0.142496  0.121861  0  3.869708  0
C  C54  1  0.07352024  0.57710053  0.60822409  1  0.44735  0  0.1521  0.13547  0  3.874325  0
C  C55  1  0.49663123  0.72671908  0.48941802  1  1.627731  0  0.22018  0.613573  0  4.074407  0
C  C56  1  0.45801739  0.46543730  0.63954996  1  1.620404  0  0.241647  0.694971  0  4.153464  0
C  C57  1  0.38229621  0.42791698  0.04343043  1  0.430543  0  0.12063  0.180542  0  3.772183  0
C  C58  1  0.62030000  0.42007886  0.04267595  1  0.445693  0  0.125713  0.184267  0  3.776554  0
C  C59  1  0.58845256  0.38970328  0.94118776  1  0.481634  0  0.121583  0.175745  0  3.833615  0
C  C60  1  0.35318470  0.43877740  0.94020927  1  0.48187  0  0.125111  0.182108  0  3.824511  0
C  C61  1  0.45023204  0.45973209  0.73067920  1  0.231839  0  -0.020425  -0.147264  0  3.859998  0
C  C62  1  0.51061855  0.49504228  0.06772092  1  0.085058  0  0.021214  -0.063851  0  3.744478  0
C  C63  1  0.47952246  0.46987234  0.90078040  1  0.143241  0  0.024873  -0.011789  0  3.769287  0
C  C64  1  0.30308681  0.32534169  0.90777384  1  0.85844  0  0.168685  0.17186  0  3.954349  0
C  C65  1  0.55652184  0.26326657  0.93343604  1  0.847853  0  0.158266  0.152491  0  3.957431  0
C  C66  1  0.41444461  0.13633522  0.34694608  1  0.862048  0  0.180266  0.227392  0  3.93527  0
C  C67  1  0.61693210  0.09281293  0.36227702  1  0.873027  0  0.175383  0.207112  0  3.962539  0
C  C68  1  0.91131033  0.33417934  0.59242243  1  0.844205  0  0.160211  0.121193  0  3.955172  0
C  C69  1  0.14528391  0.33945744  0.58627596  1  0.885027  0  0.166484  0.130923  0  3.955505  0
C  C70  1  0.89844441  0.52142279  0.35087985  1  0.858597  0  0.16927  0.179165  0  3.962002  0
C  C71  1  0.12850609  0.61043052  0.37567306  1  0.829272  0  0.164803  0.13759  0  3.9449  0
C  C72  1  0.90020692  0.70856605  0.58881995  1  0.865692  0  0.188797  0.184672  0  3.952523  0
C  C73  1  0.12911620  0.68841598  0.63979098  1  0.940362  0  0.198346  0.220775  0  3.918962  0
C  C74  1  0.85833817  0.53725770  0.66253429  1  0.894725  0  0.177741  0.162951  0  3.946374  0
C  C75  1  0.10222021  0.49889822  0.68434187  1  0.893679  0  0.194135  0.178158  0  3.93785  0
C  C76  1  0.38327985  0.30276620  0.07257998  1  0.821168  0  0.162428  0.155361  0  3.976547  0
C  C77  1  0.63073263  0.31004612  0.09575836  1  0.894972  0  0.174027  0.189334  0  3.971621  0
C  C78  1  0.44879529  0.68630131  0.86680237  1  0.908641  0  0.18794  0.234384  0  3.982782  0
C  C79  1  0.64697199  0.63287256  0.89355216  1  0.925597  0  0.171895  0.234965  0  3.954709  0
C  C80  1  0.29550571  0.12634842  0.49675650  1  0.75624  0  0.161046  0.275984  0  4.155345  0
C  C81  1  0.75275696  0.09980073  0.52338299  1  0.915631  0  0.190142  0.243656  0  3.980154  0
C  C82  1  0.40355140  0.10789882  0.63106317  1  0.774085  0  0.129105  0.195879  0  4.17161  0
C  C83  1  0.64522269  0.09241424  0.63966899  1  0.840632  0  0.172643  0.217725  0  3.940417  0
N  N84  1  0.88475788  0.51741495  0.50946850  1  -0.837243  0  -0.261129  -0.291145  0  3.16945  0
N  N85  1  0.11708409  0.54290327  0.52750210  1  -0.866224  0  -0.272786  -0.2805  0  3.279174  0
N  N86  1  0.25309578  0.24093247  0.88050512  1  -1.023816  0  -0.262541  -0.258449  0  2.677753  0
N  N87  1  0.54487710  0.16159747  0.92583232  1  -1.05501  0  -0.274639  -0.27149  0  2.685906  0
N  N88  1  0.27995865  0.87755006  0.53492301  1  -1.25717  0  -0.590098  -0.644349  0  3.398571  0
N  N89  1  0.71385893  0.88206301  0.47837032  1  -1.172003  0  -0.640088  -0.702901  0  3.295856  0
N  N90  1  0.34891076  0.18881495  0.29777276  1  -1.046114  0  -0.270021  -0.279625  0  2.69865  0
N  N91  1  0.70456869  0.11885797  0.32940937  1  -1.054333  0  -0.267385  -0.274297  0  2.716371  0
N  N92  1  0.33473700  0.91740670  0.37863959  1  -1.172738  0  -0.613616  -0.673799  0  3.233074  0
N  N93  1  0.53729637  0.87552030  0.34400086  1  -1.107705  0  -0.612095  -0.675079  0  3.181851  0
N  N94  1  0.89678834  0.34004969  0.43651571  1  -1.159809  0  -0.578245  -0.60669  0  3.217109  0
N  N95  1  0.15531915  0.38338020  0.44199613  1  -1.134083  0  -0.567355  -0.607916  0  3.210516  0
N  N96  1  0.88722963  0.28147574  0.65436119  1  -0.996786  0  -0.237552  -0.215067  0  2.728895  0
N  N97  1  0.18212742  0.26383952  0.63321920  1  -0.983371  0  -0.21723  -0.180955  0  2.713087  0
N  N98  1  0.88144787  0.50511175  0.27746431  1  -1.05065  0  -0.293683  -0.311113  0  2.687531  0
N  N99  1  0.17357683  0.62217474  0.31139509  1  -1.072453  0  -0.277862  -0.269473  0  2.706671  0
N  N100  1  0.89769294  0.80657245  0.60744316  1  -1.039468  0  -0.244672  -0.244158  0  2.770175  0
N  N101  1  0.17431215  0.76688892  0.67798942  1  -1.056858  0  -0.247654  -0.262715  0  2.755568  0
N  N102  1  0.80464886  0.51742436  0.72211304  1  -0.974411  0  -0.222095  -0.198338  0  2.716188  0
N  N103  1  0.11503469  0.46126331  0.75485415  1  -1.02027  0  -0.215146  -0.20749  0  2.766096  0
N  N104  1  0.84947270  0.69205540  0.41005005  1  -1.154132  0  -0.606914  -0.652924  0  3.203353  0
N  N105  1  0.07510779  0.73842152  0.47866415  1  -1.124584  0  -0.591127  -0.61457  0  3.24764  0
N  N106  1  0.36791757  0.20592199  0.09849476  1  -1.058854  0  -0.286296  -0.293414  0  2.724496  0
N  N107  1  0.65498060  0.22819279  0.14080206  1  -1.085847  0  -0.287128  -0.300906  0  2.71906  0
N  N108  1  0.73965081  0.47736085  0.05735107  1  -1.12109  0  -0.605219  -0.630382  0  3.177202  0
N  N109  1  0.28568957  0.48084808  0.08420250  1  -1.11845  0  -0.595365  -0.614159  0  3.176827  0
N  N110  1  0.69309655  0.42137673  0.89752853  1  -1.141522  0  -0.585405  -0.6123  0  3.276439  0
N  N111  1  0.25784421  0.52015251  0.91823551  1  -1.200494  0  -0.615607  -0.646526  0  3.255341  0
N  N112  1  0.40146860  0.68090380  0.02759415  1  -1.157753  0  -0.623297  -0.705284  0  3.246451  0
N  N113  1  0.62183269  0.68947981  0.05375720  1  -1.096573  0  -0.602772  -0.671427  0  3.210816  0
N  N114  1  0.39881022  0.75674732  0.82148727  1  -1.114347  0  -0.274713  -0.306807  0  2.763844  0
N  N115  1  0.72983741  0.69219392  0.87464735  1  -1.099952  0  -0.313099  -0.345394  0  2.659923  0
N  N116  1  0.19717712  0.14012274  0.46206602  1  -1.229605  0  -0.363994  -0.455058  0  2.835365  0
N  N117  1  0.85469569  0.10929530  0.51075951  1  -1.134319  0  -0.294174  -0.34036  0  2.805556  0
N  N118  1  0.38941133  0.10222713  0.70441838  1  -1.081701  0  -0.30935  -0.338166  0  2.728152  0
N  N119  1  0.67287719  0.11898547  0.71010562  1  -1.017412  0  -0.25749  -0.261244  0  2.668427  0
N  N120  1  0.43217450  0.85773658  0.64474884  1  -1.308352  0  -0.534167  -0.557149  0  3.359141  0
N  N121  1  0.66017579  0.86465831  0.62288424  1  -1.135273  0  -0.613009  -0.663767  0  3.22182  0
O  O122  1  0.44844887  0.31861774  0.47223151  1  -1.193124  0  -0.305405  -0.56856  0  2.481956  0
O  O123  1  0.65047368  0.30964806  0.49364653  1  -1.154221  0  -0.290196  -0.523151  0  2.299648  0
O  O124  1  0.39319290  0.48500301  0.34499921  1  -1.119543  0  -0.290371  -0.512076  0  2.345555  0
O  O125  1  0.59696436  0.52480548  0.37695681  1  -1.145652  0  -0.312412  -0.554081  0  2.322063  0
O  O126  1  0.40178777  0.68189544  0.45109195  1  -1.176826  0  -0.308974  -0.563583  0  2.234045  0
O  O127  1  0.58804012  0.67102080  0.52365283  1  -1.165993  0  -0.308538  -0.539742  0  2.334931  0
O  O128  1  0.36280133  0.48741493  0.58871565  1  -1.142547  0  -0.304383  -0.560425  0  2.341732  0
O  O129  1  0.56387859  0.45028164  0.61780256  1  -1.115023  0  -0.291788  -0.510473  0  2.327077  0
