# generated using pymatgen
data_MnH20C20N5O4
_symmetry_space_group_name_H-M   'P 1'
_cell_length_a   8.44997988
_cell_length_b   9.79955589
_cell_length_c   13.68560156
_cell_angle_alpha   75.49863784
_cell_angle_beta   72.08336490
_cell_angle_gamma   64.46210994
_symmetry_Int_Tables_number   1
_chemical_formula_structural   MnH20C20N5O4
_chemical_formula_sum   'Mn2 H40 C40 N10 O8'
_cell_volume   963.74599633
_cell_formula_units_Z   2
loop_
 _symmetry_equiv_pos_site_id
 _symmetry_equiv_pos_as_xyz
  1  'x, y, z'
loop_
 _atom_site_type_symbol
 _atom_site_label
 _atom_site_symmetry_multiplicity
 _atom_site_fract_x
 _atom_site_fract_y
 _atom_site_fract_z
 _atom_site_occupancy
 _atom_site_pbe_cm5_charge
 _atom_site_pbe_ddec_charge
 _atom_site_pbe_ddec_spin_density
 _atom_site_pbe_ddec_sum_bond_order
 _atom_site_pbe_magmom
Mn  Mn0  1  0.99999903  0.50000056  0.00000117  1  0.877662  0.866403  0.258017  3.687414  0.165
Mn  Mn1  1  0.49999500  0.00000342  0.50000293  1  0.900509  0.930698  -2.079456  3.600482  -1.891
H  H2  1  0.29812206  0.61151566  0.14033256  1  0.102187  0.10852  0.000129  1.004309  0.0
H  H3  1  0.04881372  0.88840516  0.35967619  1  0.100964  0.106995  -8.4e-05  1.005071  0.0
H  H4  1  0.70187862  0.38848355  0.85966355  1  0.102183  0.108526  0.000129  1.00429  0.0
H  H5  1  0.95119400  0.11159061  0.64031973  1  0.10093  0.106957  -8.4e-05  1.005094  0.0
H  H6  1  0.12138609  0.87120117  0.06325335  1  0.095895  0.095032  -9.9e-05  1.018337  0.0
H  H7  1  0.05553541  0.62837588  0.43643156  1  0.095679  0.09484  -0.000157  1.019529  0.0
H  H8  1  0.87861880  0.12879799  0.93674102  1  0.095928  0.095058  -9.9e-05  1.018294  0.0
H  H9  1  0.94447405  0.37161987  0.56356386  1  0.095683  0.094849  -0.000157  1.01949  0.0
H  H10  1  0.27596620  0.02163123  0.92655164  1  0.10032  0.109363  -0.000113  1.040221  0.0
H  H11  1  0.22425163  0.47809529  0.57325936  1  0.100492  0.109744  0.000259  1.038393  0.0
H  H12  1  0.72404026  0.97837028  0.07344487  1  0.100316  0.109331  -0.000113  1.040229  0.0
H  H13  1  0.77575165  0.52190170  0.42673914  1  0.100511  0.109747  0.000259  1.038408  0.0
H  H14  1  0.46120771  0.08361785  0.76532475  1  0.092485  0.087555  5.8e-05  1.0459  0.0
H  H15  1  0.31097265  0.41592959  0.73437892  1  0.092259  0.087823  -6.7e-05  1.045315  0.0
H  H16  1  0.53879984  0.91637799  0.23467382  1  0.092494  0.087576  5.8e-05  1.045829  0.0
H  H17  1  0.68902770  0.58407206  0.26562248  1  0.092268  0.087832  -6.7e-05  1.045274  0.0
H  H18  1  0.64991627  0.11899739  0.76862658  1  0.100723  0.105939  0.000127  1.024503  0.0
H  H19  1  0.53825666  0.38086043  0.73104277  1  0.100839  0.106699  -4.1e-05  1.022681  0.0
H  H20  1  0.35008997  0.88100299  0.23137078  1  0.100722  0.105957  0.000127  1.024517  0.0
H  H21  1  0.46174318  0.61914236  0.26895850  1  0.100828  0.106651  -4.1e-05  1.022655  0.0
H  H22  1  0.46472048  0.14247498  0.87911949  1  0.09202  0.083955  -7e-05  1.070491  0.0
H  H23  1  0.48670636  0.35769363  0.62041913  1  0.09163  0.084378  -0.000169  1.069738  0.0
H  H24  1  0.53528402  0.85752543  0.12087837  1  0.092034  0.083952  -7e-05  1.070457  0.0
H  H25  1  0.51329501  0.64230574  0.37958251  1  0.091613  0.084343  -0.000169  1.069752  0.0
H  H26  1  0.57411746  0.40075348  0.14654277  1  0.117977  0.082135  -7e-05  0.992843  0.0
H  H27  1  0.12024038  0.09910969  0.35363916  1  0.119068  0.082678  0.00216  0.990083  0.001
H  H28  1  0.42588603  0.59924462  0.85345488  1  0.117985  0.08215  -7e-05  0.992813  0.0
H  H29  1  0.87976604  0.90088604  0.64635558  1  0.119056  0.082647  0.002159  0.990179  0.001
H  H30  1  0.79215785  0.21080200  0.18900113  1  0.099444  0.110379  -5.9e-05  1.005688  0.0
H  H31  1  0.19205508  0.28841892  0.31029083  1  0.100162  0.111203  0.001098  1.005612  0.001
H  H32  1  0.20784593  0.78919613  0.81099748  1  0.09944  0.110368  -5.9e-05  1.005729  0.0
H  H33  1  0.80794595  0.71157923  0.68970804  1  0.100165  0.111215  0.001098  1.005636  0.001
H  H34  1  0.97952693  0.24903005  0.19422014  1  0.107221  0.125512  -0.000245  1.005271  0.0
H  H35  1  0.42301845  0.24954147  0.30479101  1  0.10774  0.125803  -0.000617  1.002924  -0.001
H  H36  1  0.02047764  0.75096697  0.80577955  1  0.107239  0.125527  -0.000245  1.005268  0.0
H  H37  1  0.57697866  0.75045675  0.69521056  1  0.107751  0.125832  -0.000617  1.002969  -0.001
H  H38  1  0.99466496  0.17105076  0.08759869  1  0.106216  0.12232  -0.000652  0.996724  0.0
H  H39  1  0.25436808  0.32862367  0.41126827  1  0.106729  0.122284  -0.00042  0.996927  0.0
H  H40  1  0.00533752  0.82894963  0.91239872  1  0.106217  0.122328  -0.000652  0.996742  0.0
H  H41  1  0.74562786  0.67138131  0.58872943  1  0.10674  0.122299  -0.00042  0.996913  0.0
C  C42  1  0.54172104  0.84655189  0.92450385  1  0.074331  0.141769  -0.008438  4.038863  -0.006
C  C43  1  0.31239230  0.65337875  0.57547445  1  0.072938  0.140768  -0.008904  4.038221  -0.007
C  C44  1  0.45828380  0.15344974  0.07549677  1  0.074379  0.14179  -0.008438  4.03885  -0.006
C  C45  1  0.68760625  0.34662172  0.42452564  1  0.072945  0.140732  -0.008904  4.03826  -0.007
C  C46  1  0.64641028  0.69804105  0.96895178  1  0.091033  0.194895  0.00767  4.079387  0.007
C  C47  1  0.31252805  0.80194615  0.53120581  1  0.090859  0.197113  0.006024  4.081781  0.004
C  C48  1  0.35358911  0.30196179  0.03105118  1  0.091052  0.194914  0.007668  4.07935  0.007
C  C49  1  0.68746583  0.19805670  0.46879770  1  0.090879  0.197146  0.006025  4.08176  0.004
C  C50  1  0.55602624  0.61479873  0.04856803  1  -0.031937  -0.074716  -0.007998  4.095098  -0.006
C  C51  1  0.21769357  0.88535297  0.45197571  1  -0.035691  -0.083339  -0.014178  4.101678  -0.012
C  C52  1  0.44397687  0.38520062  0.95143310  1  -0.031939  -0.074697  -0.007997  4.095063  -0.006
C  C53  1  0.78230549  0.11464635  0.54802451  1  -0.035677  -0.083318  -0.014179  4.101671  -0.012
C  C54  1  0.36594067  0.67797273  0.08041838  1  -0.101219  -0.145666  0.000601  4.047884  0.001
C  C55  1  0.12299629  0.82195972  0.41976591  1  -0.100282  -0.141875  0.005972  4.045224  0.004
C  C56  1  0.63406180  0.32202766  0.91957903  1  -0.101224  -0.14571  0.000601  4.047825  0.001
C  C57  1  0.87700822  0.17803839  0.58023196  1  -0.100229  -0.141806  0.005972  4.04517  0.004
C  C58  1  0.26747241  0.82217410  0.03679207  1  -0.106368  -0.085072  -0.011789  4.068962  -0.008
C  C59  1  0.12573190  0.67763376  0.46309714  1  -0.108149  -0.088408  -0.015171  4.071523  -0.011
C  C60  1  0.73253355  0.17782626  0.96320433  1  -0.106414  -0.085094  -0.011788  4.068908  -0.008
C  C61  1  0.87427307  0.32236202  0.53689906  1  -0.108155  -0.088439  -0.015171  4.071561  -0.011
C  C62  1  0.35489798  0.90702681  0.95859326  1  -0.111512  -0.203558  0.000374  4.019423  0.001
C  C63  1  0.22022120  0.59282077  0.54131781  1  -0.111502  -0.203258  0.007489  4.016649  0.005
C  C64  1  0.64510775  0.09297472  0.04140398  1  -0.111528  -0.203558  0.000375  4.019464  0.001
C  C65  1  0.77978207  0.40717851  0.45868068  1  -0.111509  -0.203233  0.00749  4.016679  0.005
C  C66  1  0.54630181  0.07557934  0.81482814  1  -0.151103  -0.182711  0.000177  3.905529  0.0
C  C67  1  0.43722793  0.42431019  0.68487537  1  -0.151576  -0.186173  -0.000228  3.906516  0.0
C  C68  1  0.45370370  0.92442107  0.18516995  1  -0.151132  -0.182748  0.000177  3.905579  0.0
C  C69  1  0.56277270  0.57568920  0.31512700  1  -0.151563  -0.186109  -0.000228  3.906446  0.0
C  C70  1  0.65476926  0.46578093  0.09682143  1  0.0746  0.082839  0.001243  3.933331  0.002
C  C71  1  0.21610512  0.03402329  0.40350920  1  0.077567  0.090867  0.023116  3.932655  0.014
C  C72  1  0.34523284  0.53421842  0.90317948  1  0.074601  0.082837  0.001243  3.933324  0.002
C  C73  1  0.78389568  0.96597602  0.59649051  1  0.0776  0.090921  0.023121  3.932724  0.014
C  C74  1  0.90072050  0.24983180  0.14350522  1  -0.138569  -0.24817  0.003645  3.932557  0.003
C  C75  1  0.29437162  0.24947380  0.35571265  1  -0.138084  -0.24467  -0.0021  3.930076  -0.002
C  C76  1  0.09928430  0.75016634  0.85649362  1  -0.138576  -0.24817  0.003645  3.932693  0.003
C  C77  1  0.70562396  0.75052556  0.64428857  1  -0.138102  -0.244745  -0.0021  3.930089  -0.002
C  C78  1  0.08863976  0.30951728  0.82482953  1  0.317018  0.429379  -0.009353  4.260557  -0.008
C  C79  1  0.22256735  0.18902481  0.67584767  1  0.32173  0.439856  -6.4e-05  4.262408  0.001
C  C80  1  0.91134927  0.69047998  0.17517828  1  0.316959  0.429218  -0.009353  4.260641  -0.008
C  C81  1  0.77741242  0.81098144  0.32415441  1  0.321815  0.439985  -6.3e-05  4.26246  0.001
N  N82  1  0.82802787  0.40344743  0.08820113  1  -0.353649  -0.156217  -0.002994  3.534788  -0.011
N  N83  1  0.31889335  0.09632295  0.41158423  1  -0.35332  -0.16731  0.009113  3.529078  0.013
N  N84  1  0.17197547  0.59655076  0.91179917  1  -0.353639  -0.156228  -0.002994  3.53476  -0.011
N  N85  1  0.68110150  0.90367643  0.58841773  1  -0.353352  -0.167337  0.00911  3.529022  0.013
N  N86  1  0.09143996  0.24767355  0.75098227  1  -0.305148  -0.389834  -0.012909  3.582282  -0.012
N  N87  1  0.90853201  0.75232278  0.24903332  1  -0.305116  -0.389744  -0.012907  3.582415  -0.012
N  N88  1  0.06727312  0.36806946  0.89587300  1  -0.383782  -0.481891  -0.00712  3.358632  0.001
N  N89  1  0.32944443  0.13311135  0.60354457  1  -0.385161  -0.494473  0.009131  3.340139  0.012
N  N90  1  0.93271649  0.63193454  0.10413044  1  -0.383731  -0.481783  -0.007117  3.358748  0.001
N  N91  1  0.67054457  0.86689277  0.39646320  1  -0.38527  -0.494637  0.00913  3.340133  0.012
O  O92  1  0.82180990  0.64522769  0.93297425  1  -0.30224  -0.407407  0.003249  2.508512  -0.004
O  O93  1  0.40086756  0.85388119  0.56670701  1  -0.306049  -0.420164  -0.062658  2.495031  -0.051
O  O94  1  0.17819128  0.35477633  0.06703001  1  -0.302266  -0.407452  0.003249  2.508469  -0.004
O  O95  1  0.59911731  0.14612858  0.43329801  1  -0.30615  -0.420233  -0.062656  2.495076  -0.051
O  O96  1  0.64106322  0.91983875  0.85215254  1  -0.181756  -0.137768  -0.001256  2.612371  -0.002
O  O97  1  0.41306267  0.58015243  0.64780366  1  -0.182105  -0.136482  -0.002898  2.610071  -0.003
O  O98  1  0.35894387  0.08016172  0.14784770  1  -0.18177  -0.137767  -0.001256  2.612511  -0.002
O  O99  1  0.58693516  0.41984806  0.35219717  1  -0.182092  -0.13646  -0.002897  2.610113  -0.003
