# generated using pymatgen
data_Cu4SiH16C28(N2O)4
_symmetry_space_group_name_H-M   'P 1'
_cell_length_a   21.74739502
_cell_length_b   22.98482673
_cell_length_c   23.95496356
_cell_angle_alpha   89.89813935
_cell_angle_beta   89.38138376
_cell_angle_gamma   89.15868723
_symmetry_Int_Tables_number   1
_chemical_formula_structural   Cu4SiH16C28(N2O)4
_chemical_formula_sum   'Cu12 Si3 H48 C84 N24 O12'
_cell_volume   11972.12623132
_cell_formula_units_Z   3
loop_
 _symmetry_equiv_pos_site_id
 _symmetry_equiv_pos_as_xyz
  1  'x, y, z'
loop_
 _atom_site_type_symbol
 _atom_site_label
 _atom_site_symmetry_multiplicity
 _atom_site_fract_x
 _atom_site_fract_y
 _atom_site_fract_z
 _atom_site_occupancy
 _atom_site_pbe_bader_charge
 _atom_site_pbe_bader_spin_density
 _atom_site_pbe_cm5_charge
 _atom_site_pbe_ddec_charge
 _atom_site_pbe_ddec_spin_density
 _atom_site_pbe_ddec_sum_bond_order
 _atom_site_pbe_magmom
Cu  Cu0  1  0.18774364  0.20904998  0.13825215  1  0.548194  0  0.487486  0.209351  0  2.102084  0
Cu  Cu1  1  0.16623831  0.08594945  0.18788363  1  0.539778  0  0.492823  0.204147  0  2.168338  0
Cu  Cu2  1  0.10017221  0.18704699  0.24881448  1  0.544434  0  0.482208  0.205534  0  2.092586  0
Cu  Cu3  1  0.80003050  0.27581681  0.86310342  1  0.544903  0  0.486267  0.205503  0  2.114959  0
Cu  Cu4  1  0.79908064  0.16196402  0.77998929  1  0.548234  0  0.482939  0.210764  0  2.070718  0
Cu  Cu5  1  0.90259109  0.25599787  0.77645698  1  0.541359  0  0.490743  0.203753  0  2.160996  0
Cu  Cu6  1  0.29603989  0.74550225  0.85328473  1  0.54249  0  0.488679  0.207234  0  2.135615  0
Cu  Cu7  1  0.25960983  0.83785195  0.75950142  1  0.550083  0  0.483573  0.211273  0  2.070025  0
Cu  Cu8  1  0.16827603  0.73737751  0.80156096  1  0.542727  0  0.488016  0.205467  0  2.12834  0
Cu  Cu9  1  0.73025612  0.80890569  0.14156174  1  0.525421  0  0.486366  0.203909  0  2.134509  0
Cu  Cu10  1  0.71784849  0.88120308  0.24681352  1  0.540815  0  0.491446  0.204454  0  2.159783  0
Cu  Cu11  1  0.83373215  0.79419582  0.23838322  1  0.550013  0  0.479831  0.210418  0  2.054871  0
Si  Si12  1  0.99407195  0.96234474  0.52138276  1  2.772368  0  0.143343  0.603317  0  4.112995  0
Si  Si13  1  0.48952097  0.03461138  0.95320288  1  2.757207  0  0.152084  0.6147  0  4.076135  0
Si  Si14  1  0.01819757  0.52139128  0.04763684  1  2.771639  0  0.144109  0.601347  0  4.104573  0
H  H15  1  0.29672163  0.17649375  0.04662546  1  0.098352  0  0.123379  0.116982  0  0.985214  0
H  H16  1  0.23159984  0.00731585  0.09853342  1  0.093056  0  0.122437  0.113274  0  0.987821  0
H  H17  1  0.02636221  0.30523864  0.25027085  1  0.087045  0  0.121736  0.113742  0  0.987736  0
H  H18  1  0.14530702  0.33595269  0.10737682  1  0.111271  0  0.124733  0.118485  0  0.984512  0
H  H19  1  0.15127017  0.98309290  0.27333119  1  0.078666  0  0.122067  0.112716  0  0.987738  0
H  H20  1  0.05907943  0.12198384  0.36515881  1  0.10581  0  0.124591  0.118284  0  0.984549  0
H  H21  1  0.66690377  0.26901352  0.91233341  1  0.109421  0  0.121471  0.112505  0  0.989103  0
H  H22  1  0.67318187  0.10685793  0.82054130  1  0.117928  0  0.124804  0.118655  0  0.982065  0
H  H23  1  0.00147718  0.34658922  0.81361451  1  0.081426  0  0.121606  0.111967  0  0.987783  0
H  H24  1  0.86320284  0.37272272  0.94327244  1  0.121373  0  0.125086  0.119357  0  0.983872  0
H  H25  1  0.85426486  0.07144213  0.68552866  1  0.107266  0  0.124491  0.118107  0  0.985121  0
H  H26  1  0.98203559  0.21414359  0.67587660  1  0.097275  0  0.121182  0.11123  0  0.989184  0
H  H27  1  0.43165771  0.77802290  0.87560718  1  0.115353  0  0.121237  0.112671  0  0.989092  0
H  H28  1  0.37112220  0.92739790  0.77923113  1  0.106363  0  0.126835  0.12116  0  0.977628  0
H  H29  1  0.09798478  0.65711866  0.89197181  1  0.092734  0  0.126082  0.121088  0  0.981703  0
H  H30  1  0.27800174  0.67275003  0.96603625  1  0.096828  0  0.121687  0.112972  0  0.988744  0
H  H31  1  0.17689089  0.89347753  0.66171349  1  0.128943  0  0.125443  0.119874  0  0.983349  0
H  H32  1  0.06583968  0.74710849  0.71212650  1  0.080723  0  0.121864  0.112865  0  0.987145  0
H  H33  1  0.63828667  0.87913640  0.05821808  1  0.105708  0  0.122426  0.115414  0  0.9893  0
H  H34  1  0.61911302  0.97741858  0.21188570  1  0.109104  0  0.121984  0.112692  0  0.986953  0
H  H35  1  0.91444159  0.69007442  0.18336922  1  0.140243  0  0.124436  0.119029  0  0.985258  0
H  H36  1  0.76676380  0.70685264  0.06421982  1  0.087985  0  0.12071  0.111057  0  0.989836  0
H  H37  1  0.73517535  0.93412154  0.36325880  1  0.099176  0  0.120891  0.111267  0  0.98849  0
H  H38  1  0.90735442  0.83783329  0.34846679  1  0.093291  0  0.125397  0.119935  0  0.983845  0
H  H39  1  0.27158160  0.96785930  0.99560369  1  0.089964  0  0.106926  0.133887  0  1.000294  0
H  H40  1  0.37661133  0.94327309  0.93653166  1  0.107282  0  0.106697  0.126153  0  1.021916  0
H  H41  1  0.52978066  0.24908172  0.91123879  1  0.051822  0  0.105478  0.132573  0  1.00353  0
H  H42  1  0.44155362  0.17333507  0.94752239  1  0.074469  0  0.108075  0.126205  0  0.999178  0
H  H43  1  0.55701895  0.83935445  0.86832090  1  0.077408  0  0.106611  0.134314  0  1.00214  0
H  H44  1  0.59681120  0.92895140  0.93334989  1  0.137747  0  0.110743  0.129163  0  0.995715  0
H  H45  1  0.56232798  0.06484927  0.15207551  1  0.07373  0  0.106568  0.132121  0  1.001222  0
H  H46  1  0.50454989  0.11318616  0.06205042  1  0.094917  0  0.109171  0.125775  0  0.998223  0
H  H47  1  0.97503902  0.41753678  0.23259419  1  0.070443  0  0.106225  0.133114  0  1.0016  0
H  H48  1  0.94540486  0.51182644  0.16773173  1  0.119642  0  0.109564  0.129146  0  0.999584  0
H  H49  1  0.80956591  0.61633145  0.00829738  1  0.064869  0  0.105847  0.132515  0  1.003334  0
H  H50  1  0.89505115  0.53525246  0.97379674  1  0.086281  0  0.109198  0.128499  0  1.004931  0
H  H51  1  0.07733375  0.41619718  0.86719122  1  0.086161  0  0.10609  0.132465  0  1.001768  0
H  H52  1  0.11423097  0.49161761  0.94763382  1  0.114621  0  0.109995  0.130352  0  1.003039  0
H  H53  1  0.22697078  0.62059575  0.06441817  1  0.080029  0  0.105971  0.132989  0  1.001996  0
H  H54  1  0.14338764  0.55318514  0.11990206  1  0.083427  0  0.110663  0.129529  0  0.993881  0
H  H55  1  0.16332694  0.92508655  0.37561012  1  0.073364  0  0.106161  0.133549  0  1.002381  0
H  H56  1  0.11052394  0.88519292  0.47248484  1  0.093446  0  0.110352  0.130187  0  0.99484  0
H  H57  1  0.98918015  0.76943583  0.62674151  1  0.064542  0  0.106477  0.133269  0  1.001568  0
H  H58  1  0.93087607  0.83956876  0.55082428  1  0.051314  0  0.110574  0.130014  0  0.997163  0
H  H59  1  0.76879467  0.97507414  0.46220136  1  0.079649  0  0.105591  0.132343  0  1.002605  0
H  H60  1  0.85206068  0.01156780  0.53898731  1  0.102713  0  0.108917  0.128132  0  1.002005  0
H  H61  1  0.04269069  0.16412856  0.59526572  1  0.07114  0  0.105702  0.131969  0  1.003103  0
H  H62  1  0.07701543  0.07779007  0.52243032  1  0.076128  0  0.110006  0.129532  0  0.997884  0
C  C63  1  0.27417562  0.13969355  0.06594508  1  0.443794  0  0.009473  -0.040534  0  3.944656  0
C  C64  1  0.28127069  0.07994268  0.05487930  1  0.021219  0  -0.037511  -0.067376  0  4.142275  0
C  C65  1  0.24006421  0.05324441  0.09201922  1  0.43957  0  0.008454  -0.043769  0  3.965061  0
C  C66  1  0.06066155  0.30391346  0.21706421  1  0.421624  0  0.006814  -0.046664  0  3.954671  0
C  C67  1  0.07305050  0.34494363  0.17503198  1  0.031007  0  -0.038318  -0.067255  0  4.13849  0
C  C68  1  0.12146159  0.31942891  0.14396523  1  0.420859  0  0.008938  -0.039497  0  3.943466  0
C  C69  1  0.13087180  0.02356076  0.28833333  1  0.440759  0  0.008485  -0.042125  0  3.959846  0
C  C70  1  0.10159700  0.03578556  0.33956978  1  0.015073  0  -0.038118  -0.070272  0  4.141359  0
C  C71  1  0.08333241  0.09457178  0.33512544  1  0.435495  0  0.010531  -0.03764  0  3.937027  0
C  C72  1  0.67801643  0.23207264  0.88575624  1  0.376404  0  0.007212  -0.044675  0  3.960112  0
C  C73  1  0.64361267  0.18221882  0.87508438  1  0.068314  0  -0.038608  -0.068447  0  4.136413  0
C  C74  1  0.68167760  0.14882193  0.83937881  1  0.406944  0  0.010583  -0.036794  0  3.940201  0
C  C75  1  0.96115029  0.34655986  0.84066818  1  0.427731  0  0.008444  -0.04196  0  3.957476  0
C  C76  1  0.94960764  0.37715311  0.89047733  1  0.031676  0  -0.038026  -0.069939  0  4.145671  0
C  C77  1  0.89033997  0.35992342  0.90695545  1  0.389949  0  0.009407  -0.040099  0  3.940261  0
C  C78  1  0.87994809  0.11118636  0.69028489  1  0.439146  0  0.009951  -0.039134  0  3.934895  0
C  C79  1  0.93287841  0.12986917  0.66152370  1  0.012382  0  -0.038175  -0.070097  0  4.140952  0
C  C80  1  0.94520707  0.18421717  0.68524525  1  0.446213  0  0.007357  -0.042696  0  3.963724  0
C  C81  1  0.40853590  0.80879033  0.84825090  1  0.36942  0  0.007406  -0.043288  0  3.968478  0
C  C82  1  0.42570470  0.86533391  0.83324589  1  0.087777  0  -0.039189  -0.073032  0  4.129477  0
C  C83  1  0.37716305  0.88560724  0.79972078  1  0.40391  0  0.013153  -0.034209  0  3.936415  0
C  C84  1  0.14537999  0.66623027  0.90202900  1  0.43832  0  0.010509  -0.038363  0  3.93651  0
C  C85  1  0.17874965  0.65140893  0.95009616  1  0.021404  0  -0.038204  -0.070267  0  4.141088  0
C  C86  1  0.23742264  0.67425704  0.94013350  1  0.429873  0  0.007119  -0.043309  0  3.958172  0
C  C87  1  0.15710923  0.85518759  0.68088445  1  0.371084  0  0.009605  -0.039808  0  3.93676  0
C  C88  1  0.10215507  0.82671742  0.66839553  1  0.084424  0  -0.03824  -0.068996  0  4.137852  0
C  C89  1  0.10043897  0.78018168  0.70642258  1  0.417997  0  0.008134  -0.043031  0  3.957133  0
C  C90  1  0.63989711  0.89612222  0.10038003  1  0.407581  0  0.008222  -0.040433  0  3.944702  0
C  C91  1  0.61188369  0.94647621  0.12285656  1  0.03895  0  -0.037781  -0.067331  0  4.145536  0
C  C92  1  0.63008933  0.94654753  0.17893429  1  0.419997  0  0.008145  -0.042716  0  3.954745  0
C  C93  1  0.87396303  0.70177261  0.15953296  1  0.345811  0  0.007818  -0.043544  0  3.938384  0
C  C94  1  0.85211818  0.67771216  0.10970216  1  0.092598  0  -0.038364  -0.06903  0  4.137129  0
C  C95  1  0.79839332  0.71022153  0.09873203  1  0.399629  0  0.006562  -0.044648  0  3.962206  0
C  C96  1  0.77358318  0.90583818  0.35164298  1  0.423458  0  0.006745  -0.043215  0  3.963061  0
C  C97  1  0.83013197  0.89709033  0.37824778  1  0.016003  0  -0.037779  -0.068711  0  4.138262  0
C  C98  1  0.86176621  0.85686002  0.34381411  1  0.463039  0  0.009936  -0.038862  0  3.931892  0
C  C99  1  0.31987258  0.04811306  0.01605868  1  0.442819  0  0.071355  0.205256  0  4.031016  0
C  C100  1  0.31212211  0.99457803  0.99180995  1  -0.053542  0  -0.130255  -0.248153  0  4.037795  0
C  C101  1  0.36667720  0.98208570  0.96076766  1  -0.010223  0  -0.115395  -0.141423  0  4.086757  0
C  C102  1  0.40545276  0.02848633  0.96688481  1  -0.285128  0  0.003251  -0.120616  0  3.909068  0
C  C103  1  0.58335343  0.16864619  0.89680637  1  0.369137  0  0.072971  0.208249  0  4.01831  0
C  C104  1  0.53324171  0.20197658  0.91318942  1  0.062579  0  -0.130783  -0.250801  0  4.031161  0
C  C105  1  0.48708470  0.16250219  0.93126338  1  -0.080386  0  -0.115768  -0.145466  0  4.087005  0
C  C106  1  0.51081538  0.10701251  0.92509595  1  -0.227723  0  0.003345  -0.122135  0  3.939006  0
C  C107  1  0.47627602  0.89656007  0.85737089  1  0.371267  0  0.071329  0.200065  0  4.014054  0
C  C108  1  0.53345843  0.88042805  0.87658975  1  -0.005886  0  -0.129823  -0.251557  0  4.033209  0
C  C109  1  0.55440056  0.92739531  0.90995580  1  -0.05747  0  -0.111859  -0.139705  0  4.071876  0
C  C110  1  0.50971038  0.97042515  0.90918234  1  -0.261131  0  0.009222  -0.102381  0  3.882244  0
C  C111  1  0.57573928  0.99055628  0.09528783  1  0.434821  0  0.069041  0.197856  0  4.033104  0
C  C112  1  0.55562013  0.04510433  0.11152727  1  -0.074191  0  -0.128639  -0.242112  0  4.028776  0
C  C113  1  0.52602183  0.07033135  0.06456189  1  0.003355  0  -0.114334  -0.144525  0  4.081446  0
C  C114  1  0.52874653  0.03020678  0.02190965  1  -0.245629  0  0.005869  -0.111184  0  3.906801  0
C  C115  1  0.04126040  0.39920780  0.16464628  1  0.418026  0  0.071953  0.204261  0  4.023707  0
C  C116  1  0.99549382  0.42954280  0.19279018  1  -0.030759  0  -0.130688  -0.247514  0  4.030726  0
C  C117  1  0.98019088  0.47860155  0.15912505  1  -0.074813  0  -0.113714  -0.146501  0  4.094968  0
C  C118  1  0.01731530  0.47657395  0.11221037  1  -0.225288  0  0.00358  -0.118584  0  3.936185  0
C  C119  1  0.87621335  0.63148335  0.07490514  1  0.390933  0  0.07181  0.204201  0  4.024986  0
C  C120  1  0.85322626  0.60594363  0.02765745  1  0.013711  0  -0.132116  -0.249453  0  4.034753  0
C  C121  1  0.89764098  0.56387218  0.00963992  1  0.000685  0  -0.114442  -0.146629  0  4.091979  0
C  C122  1  0.94574703  0.56514081  0.04645539  1  -0.283001  0  0.006205  -0.112385  0  3.922361  0
C  C123  1  0.99181750  0.41566392  0.91698242  1  0.437965  0  0.071105  0.201615  0  4.034798  0
C  C124  1  0.05098190  0.43124602  0.90318453  1  -0.019035  0  -0.131124  -0.247062  0  4.032953  0
C  C125  1  0.07020677  0.47030876  0.94518745  1  -0.06238  0  -0.112885  -0.145218  0  4.09259  0
C  C126  1  0.02235115  0.47708472  0.98286089  1  -0.249673  0  0.007057  -0.110721  0  3.911487  0
C  C127  1  0.15766922  0.61961160  0.99827153  1  0.40201  0  0.070891  0.201182  0  4.031404  0
C  C128  1  0.18266070  0.60662669  0.04950058  1  0.009268  0  -0.130886  -0.248127  0  4.028887  0
C  C129  1  0.13896109  0.57184763  0.07847448  1  -0.050908  0  -0.114032  -0.147571  0  4.093936  0
C  C130  1  0.08926342  0.56518537  0.04413323  1  -0.253488  0  0.005872  -0.115276  0  3.928821  0
C  C131  1  0.09478829  0.99568202  0.38538559  1  0.375474  0  0.071955  0.204685  0  4.027746  0
C  C132  1  0.12530719  0.94467677  0.39885155  1  0.060373  0  -0.131147  -0.250316  0  4.031221  0
C  C133  1  0.09819020  0.92423098  0.44939192  1  -0.068493  0  -0.113559  -0.148798  0  4.096047  0
C  C134  1  0.05263049  0.96337339  0.46468336  1  -0.227761  0  0.00627  -0.11279  0  3.932074  0
C  C135  1  0.05567662  0.84061604  0.62794291  1  0.374792  0  0.072501  0.204224  0  4.025305  0
C  C136  1  0.00375535  0.81166215  0.61178307  1  0.033691  0  -0.13144  -0.24765  0  4.030263  0
C  C137  1  0.97351749  0.84801487  0.57228111  1  0.010996  0  -0.113199  -0.148057  0  4.100161  0
C  C138  1  0.00810939  0.89727671  0.56562359  1  -0.270658  0  0.004859  -0.118806  0  3.938543  0
C  C139  1  0.84859758  0.92630494  0.42834161  1  0.392623  0  0.071271  0.203461  0  4.030744  0
C  C140  1  0.81709979  0.96293644  0.46448814  1  -0.035234  0  -0.131864  -0.250163  0  4.032731  0
C  C141  1  0.86032979  0.98182416  0.50446655  1  -0.036517  0  -0.115184  -0.147791  0  4.090736  0
C  C142  1  0.91604307  0.95580674  0.49148288  1  -0.245919  0  0.006604  -0.110821  0  3.920578  0
C  C143  1  0.96970034  0.10304333  0.61812061  1  0.32048  0  0.072339  0.204561  0  4.02755  0
C  C144  1  0.02083411  0.12246599  0.58962173  1  0.038853  0  -0.131079  -0.247844  0  4.032431  0
C  C145  1  0.03878960  0.07754769  0.55191111  1  -0.007469  0  -0.113202  -0.147902  0  4.097085  0
C  C146  1  0.99818225  0.03267193  0.55879430  1  -0.267326  0  0.006841  -0.111356  0  3.922854  0
N  N147  1  0.21066229  0.09399158  0.12283367  1  -0.78651  0  -0.34491  -0.141131  0  3.788644  0
N  N148  1  0.23152628  0.14767611  0.10676347  1  -0.781198  0  -0.335939  -0.142029  0  3.751192  0
N  N149  1  0.13656139  0.26710901  0.16591540  1  -0.763527  0  -0.335997  -0.141397  0  3.764488  0
N  N150  1  0.09874901  0.25741465  0.21127830  1  -0.774276  0  -0.333815  -0.13814  0  3.761198  0
N  N151  1  0.10099699  0.11564344  0.28487615  1  -0.765682  0  -0.332932  -0.139442  0  3.748559  0
N  N152  1  0.13022709  0.07149465  0.25602202  1  -0.783967  0  -0.343311  -0.140824  0  3.793738  0
N  N153  1  0.73470279  0.17700758  0.82937339  1  -0.751712  0  -0.332731  -0.141396  0  3.750923  0
N  N154  1  0.73246504  0.22861276  0.85838364  1  -0.774534  0  -0.337286  -0.140364  0  3.767087  0
N  N155  1  0.86856112  0.32172540  0.86950374  1  -0.751215  0  -0.335875  -0.139647  0  3.759663  0
N  N156  1  0.91250578  0.31357636  0.82857903  1  -0.784982  0  -0.342803  -0.141422  0  3.789862  0
N  N157  1  0.90307367  0.19679470  0.72504128  1  -0.782838  0  -0.343066  -0.141843  0  3.794175  0
N  N158  1  0.86245721  0.15169247  0.72839747  1  -0.752839  0  -0.331186  -0.139524  0  3.741947  0
N  N159  1  0.33440089  0.84394995  0.79523722  1  -0.759893  0  -0.331763  -0.137833  0  3.742187  0
N  N160  1  0.35381510  0.79631605  0.82561804  1  -0.774713  0  -0.343287  -0.149122  0  3.75264  0
N  N161  1  0.23872212  0.70067250  0.88987016  1  -0.770773  0  -0.339765  -0.142766  0  3.77966  0
N  N162  1  0.18171573  0.69586365  0.86634993  1  -0.781497  0  -0.337907  -0.139769  0  3.766176  0
N  N163  1  0.15037494  0.78102292  0.73909865  1  -0.776389  0  -0.338643  -0.140323  0  3.77816  0
N  N164  1  0.18571774  0.82749469  0.72334134  1  -0.765611  0  -0.332059  -0.139647  0  3.746987  0
N  N165  1  0.66639958  0.89981346  0.18888888  1  -0.764292  0  -0.343127  -0.141648  0  3.784327  0
N  N166  1  0.67262394  0.86857479  0.14032468  1  -0.780292  0  -0.339023  -0.143092  0  3.767173  0
N  N167  1  0.78908987  0.75049339  0.13874587  1  -0.758844  0  -0.338285  -0.13881  0  3.783689  0
N  N168  1  0.83587982  0.74542707  0.17666294  1  -0.772598  0  -0.329645  -0.1385  0  3.739538  0
N  N169  1  0.82631023  0.84293004  0.29990330  1  -0.778073  0  -0.33055  -0.14022  0  3.739991  0
N  N170  1  0.77171986  0.87346932  0.30496923  1  -0.763322  0  -0.343023  -0.143104  0  3.787948  0
O  O171  1  0.37630713  0.06966905  0.00115569  1  -1.042596  0  -0.12607  -0.118439  0  2.575734  0
O  O172  1  0.57035007  0.11079268  0.90377788  1  -1.044957  0  -0.12279  -0.11709  0  2.594103  0
O  O173  1  0.46217582  0.95183102  0.87550287  1  -1.047126  0  -0.117332  -0.11327  0  2.624223  0
O  O174  1  0.55924310  0.98065246  0.04093296  1  -1.048731  0  -0.122504  -0.111719  0  2.593386  0
O  O175  1  0.05539479  0.42758611  0.11575240  1  -1.049417  0  -0.121974  -0.11066  0  2.582494  0
O  O176  1  0.93249550  0.60692192  0.08711921  1  -1.04422  0  -0.124751  -0.114078  0  2.564509  0
O  O177  1  0.97365763  0.44312286  0.96542293  1  -1.050743  0  -0.122186  -0.11021  0  2.572928  0
O  O178  1  0.10075797  0.59503044  0.99459782  1  -1.038882  0  -0.120045  -0.112321  0  2.601879  0
O  O179  1  0.05050090  0.00772550  0.42509143  1  -1.062276  0  -0.12148  -0.111019  0  2.578285  0
O  O180  1  0.05922768  0.89266243  0.59992701  1  -1.044012  0  -0.12406  -0.111412  0  2.570879  0
O  O181  1  0.90874398  0.92117436  0.44445797  1  -1.046652  0  -0.121946  -0.111804  0  2.578645  0
O  O182  1  0.95522904  0.04838879  0.59983420  1  -1.044185  0  -0.122791  -0.110732  0  2.565172  0
