# generated using pymatgen
data_ErH25C34(N2O3)2
_symmetry_space_group_name_H-M   'P 1'
_cell_length_a   11.66239749
_cell_length_b   12.08156038
_cell_length_c   12.77879352
_cell_angle_alpha   106.79112505
_cell_angle_beta   111.37021417
_cell_angle_gamma   104.56487103
_symmetry_Int_Tables_number   1
_chemical_formula_structural   ErH25C34(N2O3)2
_chemical_formula_sum   'Er2 H50 C68 N8 O12'
_cell_volume   1471.13430258
_cell_formula_units_Z   2
loop_
 _symmetry_equiv_pos_site_id
 _symmetry_equiv_pos_as_xyz
  1  'x, y, z'
loop_
 _atom_site_type_symbol
 _atom_site_label
 _atom_site_symmetry_multiplicity
 _atom_site_fract_x
 _atom_site_fract_y
 _atom_site_fract_z
 _atom_site_occupancy
 _atom_site_hle17_bader_spin_density
 _atom_site_hle17_ddec_charge
 _atom_site_hle17_ddec_spin_density
 _atom_site_hle17_ddec_sum_bond_order
 _atom_site_hle17_magmom
 _atom_site_hse06_10hf_bader_spin_density
 _atom_site_hse06_10hf_ddec_charge
 _atom_site_hse06_10hf_ddec_spin_density
 _atom_site_hse06_10hf_ddec_sum_bond_order
 _atom_site_hse06_10hf_magmom
 _atom_site_hse06_bader_spin_density
 _atom_site_hse06_ddec_charge
 _atom_site_hse06_ddec_spin_density
 _atom_site_hse06_ddec_sum_bond_order
 _atom_site_hse06_magmom
 _atom_site_pbe_bader_spin_density
 _atom_site_pbe_cm5_charge
 _atom_site_pbe_ddec_charge
 _atom_site_pbe_ddec_spin_density
 _atom_site_pbe_ddec_sum_bond_order
 _atom_site_pbe_magmom
Er  Er0  1  0.45626081  0.01268264  0.12248380  1  0  2.196654  0  1.744261  0  0  2.040639  0  2.23782  0  0  2.093708  0  2.190033  0  0  1.473278  2.000941  0  2.274003  0
Er  Er1  1  0.54373482  0.98731666  0.87751428  1  0  2.19662  0  1.74434  0  0  2.040607  0  2.237923  0  0  2.09354  0  2.190233  0  0  1.473287  2.000914  0  2.274095  0
H  H2  1  0.44290776  0.33852615  0.42841941  1  0  0.095634  0  0.96785  0  0  0.106581  0  1.031458  0  0  0.109941  0  1.030127  0  0  0.097209  0.104169  0  1.032695  0
H  H3  1  0.55708354  0.66147596  0.57157801  1  0  0.0957  0  0.967881  0  0  0.106673  0  1.031446  0  0  0.110014  0  1.030147  0  0  0.097232  0.104257  0  1.032688  0
H  H4  1  0.47508065  0.14120423  0.53188669  1  0  0.119668  0  0.925273  0  0  0.130215  0  0.98164  0  0  0.13422  0  0.977842  0  0  0.114046  0.127201  0  0.98462  0
H  H5  1  0.52491444  0.85879600  0.46810599  1  0  0.119626  0  0.925275  0  0  0.130199  0  0.981618  0  0  0.134205  0  0.977818  0  0  0.114015  0.127186  0  0.984593  0
H  H6  1  0.57106323  0.48507830  0.60776590  1  0  0.081915  0  0.973245  0  0  0.091652  0  1.039922  0  0  0.094645  0  1.038573  0  0  0.096202  0.089497  0  1.041077  0
H  H7  1  0.42893369  0.51491535  0.39222793  1  0  0.081848  0  0.973205  0  0  0.09161  0  1.039856  0  0  0.094604  0  1.038503  0  0  0.096183  0.089455  0  1.041012  0
H  H8  1  0.60083497  0.64934455  0.79660463  1  0  0.113366  0  0.987944  0  0  0.120598  0  1.051413  0  0  0.125233  0  1.047643  0  0  0.102187  0.117224  0  1.054242  0
H  H9  1  0.39917000  0.35065289  0.20339290  1  0  0.113419  0  0.987866  0  0  0.120604  0  1.051379  0  0  0.125249  0  1.047603  0  0  0.102203  0.117232  0  1.054203  0
H  H10  1  0.57989467  0.59057073  0.96259852  1  0  0.072973  0  0.997493  0  0  0.083141  0  1.064703  0  0  0.085437  0  1.064032  0  0  0.093392  0.081497  0  1.065269  0
H  H11  1  0.42011478  0.40942860  0.03739944  1  0  0.072894  0  0.997523  0  0  0.083083  0  1.064733  0  0  0.085377  0  1.064069  0  0  0.093365  0.08144  0  1.06529  0
H  H12  1  0.51568847  0.36588533  0.93101086  1  0  0.084735  0  0.981464  0  0  0.095376  0  1.047329  0  0  0.098435  0  1.045088  0  0  0.099159  0.093161  0  1.049045  0
H  H13  1  0.48431349  0.63411587  0.06898826  1  0  0.084743  0  0.981404  0  0  0.095393  0  1.047258  0  0  0.098451  0  1.045018  0  0  0.099163  0.093184  0  1.048972  0
H  H14  1  0.41416366  0.20221599  0.97793998  1  0  0.085912  0  0.951396  0  0  0.092193  0  1.018999  0  0  0.095507  0  1.015374  0  0  0.124701  0.089737  0  1.021645  0
H  H15  1  0.58582987  0.79778049  0.02205977  1  0  0.085994  0  0.951392  0  0  0.092221  0  1.019041  0  0  0.09554  0  1.015408  0  0  0.124704  0.089763  0  1.021687  0
H  H16  1  0.24195761  0.24652696  0.82608104  1  0  0.093382  0  0.961715  0  0  0.103207  0  1.025367  0  0  0.105651  0  1.025766  0  0  0.103017  0.10148  0  1.025232  0
H  H17  1  0.75803764  0.75347140  0.17391900  1  0  0.093364  0  0.961745  0  0  0.1032  0  1.025381  0  0  0.105644  0  1.025779  0  0  0.103029  0.101471  0  1.025245  0
H  H18  1  0.99730802  0.10857848  0.73365676  1  0  0.099655  0  0.926957  0  0  0.115362  0  0.978054  0  0  0.118298  0  0.976148  0  0  0.111959  0.113166  0  0.979598  0
H  H19  1  0.00268774  0.89141894  0.26633928  1  0  0.099636  0  0.927039  0  0  0.115337  0  0.978135  0  0  0.11828  0  0.976223  0  0  0.111976  0.113142  0  0.979678  0
H  H20  1  0.82323538  0.92312188  0.71594083  1  0  0.108025  0  0.947714  0  0  0.120028  0  1.005893  0  0  0.122289  0  1.00584  0  0  0.109125  0.118369  0  1.006059  0
H  H21  1  0.17675790  0.07687835  0.28405829  1  0  0.108077  0  0.947695  0  0  0.120133  0  1.005804  0  0  0.122385  0  1.005759  0  0  0.109175  0.118456  0  1.005992  0
H  H22  1  0.76742645  0.74732643  0.77541640  1  0  0.100451  0  0.969597  0  0  0.11177  0  1.031949  0  0  0.113854  0  1.031567  0  0  0.105254  0.110295  0  1.032212  0
H  H23  1  0.23256534  0.25266814  0.22457678  1  0  0.100404  0  0.969671  0  0  0.111739  0  1.032002  0  0  0.113827  0  1.031621  0  0  0.105249  0.110263  0  1.032263  0
H  H24  1  0.84264332  0.62773315  0.89941528  1  0  0.093735  0  0.956996  0  0  0.106618  0  1.016067  0  0  0.108491  0  1.015725  0  0  0.104399  0.105279  0  1.016256  0
H  H25  1  0.15735281  0.37225861  0.10057935  1  0  0.093702  0  0.957116  0  0  0.1066  0  1.016175  0  0  0.10847  0  1.015836  0  0  0.104402  0.105274  0  1.016351  0
H  H26  1  0.03355653  0.60960197  0.05817171  1  0  0.092843  0  0.967837  0  0  0.104725  0  1.026558  0  0  0.107433  0  1.026623  0  0  0.10176  0.102741  0  1.026703  0
H  H27  1  0.96643854  0.39039166  0.94182073  1  0  0.092781  0  0.967951  0  0  0.104709  0  1.026629  0  0  0.107419  0  1.026686  0  0  0.101734  0.102723  0  1.026774  0
H  H28  1  0.26883930  0.76541796  0.14268529  1  0  0.087104  0  0.942035  0  0  0.09509  0  1.002831  0  0  0.097661  0  1.000562  0  0  0.122664  0.093069  0  1.004676  0
H  H29  1  0.73115612  0.23458513  0.85732080  1  0  0.087209  0  0.942001  0  0  0.095151  0  1.002831  0  0  0.097727  0  1.000557  0  0  0.122714  0.09312  0  1.004682  0
H  H30  1  0.75569111  0.16128199  0.31173075  1  0  0.406383  0  0.90926  0  0  0.364186  0  0.993031  0  0  0.376311  0  0.975479  0  0  0.28656  0.355684  0  1.005305  0
H  H31  1  0.24430625  0.83871920  0.68826920  1  0  0.406426  0  0.909195  0  0  0.364242  0  0.992946  0  0  0.376344  0  0.975427  0  0  0.286582  0.355735  0  1.005226  0
H  H32  1  0.67599702  0.04937857  0.33676834  1  0  0.416393  0  0.89542  0  0  0.384429  0  0.961488  0  0  0.396455  0  0.943848  0  0  0.285948  0.375966  0  0.973868  0
H  H33  1  0.32399797  0.95062356  0.66323030  1  0  0.416368  0  0.895447  0  0  0.384406  0  0.961519  0  0  0.396414  0  0.943908  0  0  0.285917  0.37594  0  0.973903  0
H  H34  1  0.66921902  0.18924793  0.12580289  1  0  0.413199  0  0.899724  0  0  0.377694  0  0.974573  0  0  0.388763  0  0.958258  0  0  0.278525  0.369904  0  0.985979  0
H  H35  1  0.33077858  0.81074950  0.87419533  1  0  0.413165  0  0.899768  0  0  0.37768  0  0.974585  0  0  0.388685  0  0.958362  0  0  0.278507  0.369883  0  0.986004  0
H  H36  1  0.67987261  0.35864207  0.08421056  1  0  0.077096  0  0.944333  0  0  0.085604  0  1.009415  0  0  0.088122  0  1.006996  0  0  0.115899  0.083592  0  1.011498  0
H  H37  1  0.32013595  0.64136386  0.91579204  1  0  0.077018  0  0.944327  0  0  0.085551  0  1.009383  0  0  0.088073  0  1.006957  0  0  0.115839  0.083541  0  1.011465  0
H  H38  1  0.81665513  0.57351278  0.11592327  1  0  0.092187  0  0.965948  0  0  0.104444  0  1.025291  0  0  0.106626  0  1.026042  0  0  0.101043  0.102888  0  1.024889  0
H  H39  1  0.18336041  0.42649223  0.88408060  1  0  0.092227  0  0.965763  0  0  0.104501  0  1.02511  0  0  0.10669  0  1.025851  0  0  0.10108  0.102947  0  1.024708  0
H  H40  1  0.05601293  0.68620387  0.28806396  1  0  0.094019  0  0.93312  0  0  0.108968  0  0.986966  0  0  0.111686  0  0.98525  0  0  0.108758  0.107015  0  0.988228  0
H  H41  1  0.94400062  0.31379644  0.71194032  1  0  0.094002  0  0.933128  0  0  0.108965  0  0.98696  0  0  0.111655  0  0.98528  0  0  0.108767  0.107012  0  0.988221  0
H  H42  1  0.24255628  0.68767627  0.46292067  1  0  0.108619  0  0.93632  0  0  0.121423  0  0.991931  0  0  0.123952  0  0.991461  0  0  0.108423  0.119447  0  0.992564  0
H  H43  1  0.75745306  0.31232497  0.53708325  1  0  0.108666  0  0.936311  0  0  0.121424  0  0.991961  0  0  0.123983  0  0.99146  0  0  0.108393  0.119449  0  0.992592  0
H  H44  1  0.33226834  0.58007089  0.58963948  1  0  0.110871  0  0.942182  0  0  0.121935  0  1.002524  0  0  0.124495  0  1.002098  0  0  0.108567  0.119984  0  1.003143  0
H  H45  1  0.66773998  0.41993224  0.41036931  1  0  0.110711  0  0.942236  0  0  0.121835  0  1.002549  0  0  0.124391  0  1.002121  0  0  0.108519  0.119887  0  1.003166  0
H  H46  1  0.30203082  0.38920794  0.63108921  1  0  0.089866  0  0.98524  0  0  0.100739  0  1.048177  0  0  0.101341  0  1.050422  0  0  0.102124  0.100221  0  1.046737  0
H  H47  1  0.69797237  0.61079612  0.36891814  1  0  0.089734  0  0.985297  0  0  0.100668  0  1.04817  0  0  0.10127  0  1.050412  0  0  0.102086  0.100159  0  1.046719  0
H  H48  1  0.15406446  0.17059611  0.58062278  1  0  0.108565  0  0.960458  0  0  0.116746  0  1.022994  0  0  0.120137  0  1.021818  0  0  0.103998  0.114252  0  1.024029  0
H  H49  1  0.84593988  0.82940416  0.41937923  1  0  0.108604  0  0.960425  0  0  0.116783  0  1.022967  0  0  0.120165  0  1.021802  0  0  0.104004  0.114288  0  1.024004  0
H  H50  1  0.91048563  0.08245349  0.42085379  1  0  0.073776  0  0.936291  0  0  0.084964  0  0.995689  0  0  0.087389  0  0.993848  0  0  0.113782  0.083126  0  0.997149  0
H  H51  1  0.08952001  0.91754772  0.57914577  1  0  0.073808  0  0.936259  0  0  0.084981  0  0.995679  0  0  0.087401  0  0.993842  0  0  0.113788  0.083145  0  0.997134  0
C  C52  1  0.42935890  0.15630172  0.31612291  1  0  0.662957  0  3.984499  0  0  0.623489  0  4.271882  0  0  0.658216  0  4.26302  0  0  0.174913  0.600136  0  4.276746  0
C  C53  1  0.57063966  0.84370231  0.68387821  1  0  0.662937  0  3.984825  0  0  0.623452  0  4.272223  0  0  0.658201  0  4.263316  0  0  0.17489  0.600107  0  4.277079  0
C  C54  1  0.44781858  0.25032828  0.43126593  1  0  -0.22135  0  3.679568  0  0  -0.233921  0  3.935097  0  0  -0.244046  0  3.9511  0  0  -0.098859  -0.22747  0  3.924417  0
C  C55  1  0.55217680  0.74967477  0.56872996  1  0  -0.221526  0  3.679648  0  0  -0.23411  0  3.935189  0  0  -0.244237  0  3.95121  0  0  -0.098936  -0.227657  0  3.924511  0
C  C56  1  0.47603238  0.23294805  0.53573688  1  0  -0.034175  0  3.70528  0  0  -0.061116  0  3.956555  0  0  -0.056884  0  3.971903  0  0  -0.070103  -0.063768  0  3.946198  0
C  C57  1  0.52396179  0.76705217  0.46425628  1  0  -0.03414  0  3.705307  0  0  -0.061091  0  3.956589  0  0  -0.056864  0  3.971938  0  0  -0.07007  -0.063747  0  3.946232  0
C  C58  1  0.50685770  0.32972346  0.65325894  1  0  0.06579  0  3.79052  0  0  0.079664  0  4.0195  0  0  0.080451  0  4.042247  0  0  -0.005712  0.079107  0  4.004109  0
C  C59  1  0.49313937  0.67027489  0.34673623  1  0  0.065798  0  3.790586  0  0  0.079684  0  4.019652  0  0  0.080472  0  4.042409  0  0  -0.005684  0.079124  0  4.004262  0
C  C60  1  0.55268792  0.45847839  0.67666549  1  0  -0.116065  0  3.735097  0  0  -0.134637  0  3.98353  0  0  -0.136986  0  4.002523  0  0  -0.090405  -0.133098  0  3.970698  0
C  C61  1  0.44731376  0.54151998  0.32333199  1  0  -0.115962  0  3.734999  0  0  -0.134545  0  3.983431  0  0  -0.136895  0  4.002428  0  0  -0.090418  -0.133006  0  3.970601  0
C  C62  1  0.57511873  0.55164854  0.78481764  1  0  -0.083144  0  3.777374  0  0  -0.09907  0  4.031693  0  0  -0.098978  0  4.047902  0  0  -0.097549  -0.099044  0  4.020788  0
C  C63  1  0.42488808  0.44834890  0.21517971  1  0  -0.083171  0  3.777315  0  0  -0.099051  0  4.031644  0  0  -0.098966  0  4.047855  0  0  -0.09752  -0.099028  0  4.020744  0
C  C64  1  0.56038492  0.51834829  0.87669151  1  0  -0.080733  0  3.801354  0  0  -0.094108  0  4.052166  0  0  -0.096194  0  4.07309  0  0  -0.100652  -0.092651  0  4.038026  0
C  C65  1  0.43962454  0.48165105  0.12330802  1  0  -0.08068  0  3.801362  0  0  -0.094068  0  4.052143  0  0  -0.096157  0  4.073075  0  0  -0.100628  -0.09261  0  4.038009  0
C  C66  1  0.52299577  0.39293413  0.85871374  1  0  -0.092314  0  3.782107  0  0  -0.11472  0  4.029169  0  0  -0.115425  0  4.049649  0  0  -0.094404  -0.114209  0  4.015378  0
C  C67  1  0.47701041  0.60706614  0.14128731  1  0  -0.092339  0  3.782176  0  0  -0.114703  0  4.029271  0  0  -0.115417  0  4.049759  0  0  -0.094404  -0.114208  0  4.015484  0
C  C68  1  0.49260877  0.29781485  0.74714903  1  0  -0.091715  0  3.696025  0  0  -0.072941  0  3.9248  0  0  -0.078954  0  3.944957  0  0  -0.010176  -0.069171  0  3.911366  0
C  C69  1  0.50739120  0.70218164  0.25284815  1  0  -0.091683  0  3.696134  0  0  -0.073076  0  3.925137  0  0  -0.079093  0  3.945306  0  0  -0.01022  -0.069292  0  3.911692  0
C  C70  1  0.44275069  0.16402016  0.73331634  1  0  0.677501  0  3.898362  0  0  0.627645  0  4.196438  0  0  0.661372  0  4.188125  0  0  0.217503  0.604816  0  4.201104  0
C  C71  1  0.55724784  0.83597727  0.26668297  1  0  0.677537  0  3.898187  0  0  0.627758  0  4.196222  0  0  0.661497  0  4.187906  0  0  0.217557  0.604926  0  4.20089  0
C  C72  1  0.30666797  0.14647131  0.93651686  1  0  0.15821  0  3.688992  0  0  0.128942  0  3.945452  0  0  0.1363  0  3.960858  0  0  0.068527  0.124235  0  3.93486  0
C  C73  1  0.69332647  0.85352516  0.06348162  1  0  0.158123  0  3.68901  0  0  0.128883  0  3.945483  0  0  0.136232  0  3.960888  0  0  0.068546  0.124176  0  3.934888  0
C  C74  1  0.20988295  0.17010850  0.85158014  1  0  -0.124792  0  3.748627  0  0  -0.138703  0  4.007008  0  0  -0.145686  0  4.029425  0  0  -0.086359  -0.13422  0  3.99193  0
C  C75  1  0.79011282  0.82988892  0.14841982  1  0  -0.124698  0  3.748703  0  0  -0.138602  0  4.007039  0  0  -0.145591  0  4.02946  0  0  -0.086334  -0.134121  0  3.991962  0
C  C76  1  0.07557154  0.09399722  0.80037941  1  0  -0.056962  0  3.713196  0  0  -0.081576  0  3.962441  0  0  -0.079469  0  3.980748  0  0  -0.065276  -0.082725  0  3.949954  0
C  C77  1  0.92442343  0.90599831  0.19961821  1  0  -0.057042  0  3.71324  0  0  -0.0816  0  3.962533  0  0  -0.079489  0  3.980826  0  0  -0.06535  -0.082751  0  3.95005  0
C  C78  1  0.03866361  0.99370008  0.83331560  1  0  0.029353  0  3.788783  0  0  0.043795  0  4.024222  0  0  0.041585  0  4.048248  0  0  -0.001662  0.045107  0  4.008034  0
C  C79  1  0.96132979  0.00629827  0.16668148  1  0  0.029587  0  3.788562  0  0  0.043851  0  4.024245  0  0  0.041638  0  4.048271  0  0  -0.001579  0.045166  0  4.008053  0
C  C80  1  0.90225936  0.90863720  0.78181353  1  0  -0.08882  0  3.721654  0  0  -0.114639  0  3.979866  0  0  -0.117628  0  4.002899  0  0  -0.080453  -0.112579  0  3.964253  0
C  C81  1  0.09773179  0.09136020  0.21818255  1  0  -0.088895  0  3.721654  0  0  -0.114704  0  3.979916  0  0  -0.11768  0  4.00294  0  0  -0.080482  -0.112631  0  3.964311  0
C  C82  1  0.87154023  0.81113375  0.81422653  1  0  -0.091618  0  3.718603  0  0  -0.116004  0  3.974501  0  0  -0.118634  0  3.997349  0  0  -0.083613  -0.114119  0  3.958993  0
C  C83  1  0.12845276  0.18886366  0.18577017  1  0  -0.091622  0  3.718758  0  0  -0.116069  0  3.974633  0  0  -0.118698  0  3.997461  0  0  -0.083648  -0.114188  0  3.959118  0
C  C84  1  0.97419484  0.79225090  0.90189005  1  0  0.028507  0  3.778338  0  0  0.04425  0  4.009801  0  0  0.041734  0  4.033695  0  0  -0.001809  0.045684  0  3.993794  0
C  C85  1  0.02579736  0.20774462  0.09810587  1  0  0.028442  0  3.778376  0  0  0.044328  0  4.009658  0  0  0.041824  0  4.033547  0  0  -0.001739  0.045776  0  3.993635  0
C  C86  1  0.94640339  0.69381398  0.93932083  1  0  -0.04667  0  3.696687  0  0  -0.070096  0  3.940644  0  0  -0.067465  0  3.959491  0  0  -0.066436  -0.071534  0  3.927671  0
C  C87  1  0.05359209  0.30618060  0.06067435  1  0  -0.046572  0  3.6967  0  0  -0.070085  0  3.94067  0  0  -0.067464  0  3.95952  0  0  -0.066496  -0.07154  0  3.927686  0
C  C88  1  0.05126003  0.68370985  0.02638887  1  0  -0.133996  0  3.764304  0  0  -0.146196  0  4.016665  0  0  -0.15332  0  4.038079  0  0  -0.090442  -0.141519  0  4.002174  0
C  C89  1  0.94873481  0.31628756  0.97360765  1  0  -0.133984  0  3.764089  0  0  -0.146234  0  4.016446  0  0  -0.153348  0  4.037843  0  0  -0.090415  -0.141553  0  4.001953  0
C  C90  1  0.18330698  0.77091952  0.07472939  1  0  0.157487  0  3.703082  0  0  0.128521  0  3.960369  0  0  0.136846  0  3.975136  0  0  0.062221  0.123123  0  3.95024  0
C  C91  1  0.81668630  0.22908072  0.92527052  1  0  0.157491  0  3.70288  0  0  0.128586  0  3.960137  0  0  0.136912  0  3.974895  0  0  0.062243  0.123191  0  3.950008  0
C  C92  1  0.11092377  0.87543042  0.95541388  1  0  0.148176  0  3.738696  0  0  0.142258  0  3.980639  0  0  0.147075  0  4.000397  0  0  0.127596  0.139044  0  3.967273  0
C  C93  1  0.88906844  0.12456511  0.04458518  1  0  0.1482  0  3.738673  0  0  0.142241  0  3.980601  0  0  0.14705  0  4.000364  0  0  0.127602  0.139025  0  3.967231  0
C  C94  1  0.14367268  0.97697781  0.91939788  1  0  0.149028  0  3.734143  0  0  0.142186  0  3.97623  0  0  0.146978  0  3.995406  0  0  0.128428  0.138997  0  3.96322  0
C  C95  1  0.85631952  0.02301771  0.08059882  1  0  0.149008  0  3.734309  0  0  0.142222  0  3.976432  0  0  0.147007  0  3.995618  0  0  0.128394  0.139023  0  3.963428  0
C  C96  1  0.78333716  0.41105485  0.15876326  1  0  0.126238  0  3.722262  0  0  0.101529  0  3.97646  0  0  0.107036  0  3.994292  0  0  0.052182  0.098013  0  3.96445  0
C  C97  1  0.21666824  0.58895013  0.84123724  1  0  0.126313  0  3.72226  0  0  0.101605  0  3.976473  0  0  0.107115  0  3.994294  0  0  0.052243  0.09809  0  3.964461  0
C  C98  1  0.86057662  0.53141888  0.17640201  1  0  -0.135345  0  3.788801  0  0  -0.148619  0  4.042218  0  0  -0.15546  0  4.066  0  0  -0.094207  -0.144013  0  4.025906  0
C  C99  1  0.13943128  0.46858329  0.82360091  1  0  -0.135432  0  3.788497  0  0  -0.148736  0  4.041946  0  0  -0.155577  0  4.065712  0  0  -0.094254  -0.144135  0  4.025637  0
C  C100  1  0.99171757  0.59263378  0.27028264  1  0  -0.064565  0  3.736389  0  0  -0.088689  0  3.985487  0  0  -0.087546  0  4.005149  0  0  -0.070857  -0.089092  0  3.971808  0
C  C101  1  0.00829309  0.40736840  0.72972197  1  0  -0.064527  0  3.736214  0  0  -0.088636  0  3.985314  0  0  -0.087474  0  4.004987  0  0  -0.070892  -0.089036  0  3.971631  0
C  C102  1  0.04462946  0.53332714  0.34505504  1  0  0.020112  0  3.796579  0  0  0.035672  0  4.028896  0  0  0.033345  0  4.054117  0  0  -0.005384  0.03714  0  4.011728  0
C  C103  1  0.95537740  0.46667692  0.65495040  1  0  0.02024  0  3.796461  0  0  0.035743  0  4.028803  0  0  0.033413  0  4.054032  0  0  -0.005285  0.037214  0  4.011631  0
C  C104  1  0.17997784  0.59279492  0.44334597  1  0  -0.091583  0  3.734432  0  0  -0.11535  0  3.989005  0  0  -0.118605  0  4.012291  0  0  -0.083386  -0.112852  0  3.973132  0
C  C105  1  0.82003167  0.40721103  0.55666242  1  0  -0.091804  0  3.734548  0  0  -0.115519  0  3.98917  0  0  -0.118808  0  4.012461  0  0  -0.083398  -0.11302  0  3.973294  0
C  C106  1  0.22975467  0.53319288  0.51336306  1  0  -0.093055  0  3.723675  0  0  -0.115655  0  3.977209  0  0  -0.118719  0  3.999875  0  0  -0.08286  -0.113488  0  3.961892  0
C  C107  1  0.77024865  0.46680930  0.48664617  1  0  -0.092737  0  3.723659  0  0  -0.115385  0  3.977194  0  0  -0.118451  0  3.999873  0  0  -0.082862  -0.113224  0  3.961873  0
C  C108  1  0.14766127  0.40955323  0.48984533  1  0  0.01987  0  3.791608  0  0  0.037583  0  4.021133  0  0  0.035146  0  4.04567  0  0  -0.003  0.039116  0  4.004501  0
C  C109  1  0.85234273  0.59045271  0.51016514  1  0  0.019796  0  3.791388  0  0  0.037494  0  4.021044  0  0  0.035055  0  4.045576  0  0  -0.002918  0.039029  0  4.004412  0
C  C110  1  0.19793408  0.34429065  0.55850006  1  0  -0.047958  0  3.702785  0  0  -0.071595  0  3.946808  0  0  -0.070499  0  3.96862  0  0  -0.067107  -0.071923  0  3.931762  0
C  C111  1  0.80207054  0.65571246  0.44150673  1  0  -0.047814  0  3.702626  0  0  -0.071463  0  3.946609  0  0  -0.070364  0  3.968419  0  0  -0.067078  -0.071799  0  3.931557  0
C  C112  1  0.11563324  0.22476265  0.53233219  1  0  -0.126935  0  3.755261  0  0  -0.138972  0  4.007809  0  0  -0.14587  0  4.029715  0  0  -0.088853  -0.134401  0  3.992853  0
C  C113  1  0.88437178  0.77524140  0.46767263  1  0  -0.126979  0  3.755198  0  0  -0.139015  0  4.007749  0  0  -0.145908  0  4.029659  0  0  -0.088852  -0.134444  0  3.992797  0
C  C114  1  0.98091412  0.17446367  0.44094935  1  0  0.122579  0  3.731315  0  0  0.094944  0  3.984739  0  0  0.100927  0  4.002542  0  0  0.049764  0.091158  0  3.972521  0
C  C115  1  0.01909102  0.82553850  0.55905343  1  0  0.12249  0  3.731235  0  0  0.094864  0  3.984657  0  0  0.100847  0  4.002455  0  0  0.049722  0.091076  0  3.972442  0
C  C116  1  0.01097021  0.34806925  0.39498444  1  0  0.133208  0  3.733562  0  0  0.123707  0  3.979925  0  0  0.127915  0  4.000513  0  0  0.119781  0.120877  0  3.966008  0
C  C117  1  0.98903417  0.65193763  0.60502329  1  0  0.133322  0  3.733486  0  0  0.123693  0  3.980034  0  0  0.127908  0  4.000614  0  0  0.119792  0.120867  0  3.966113  0
C  C118  1  0.95799434  0.41096697  0.31969174  1  0  0.125247  0  3.733564  0  0  0.121308  0  3.979312  0  0  0.125034  0  3.999885  0  0  0.119245  0.118873  0  3.965398  0
C  C119  1  0.04201002  0.58903332  0.68031419  1  0  0.125108  0  3.733684  0  0  0.121271  0  3.979401  0  0  0.124988  0  3.999997  0  0  0.119239  0.118834  0  3.965489  0
N  N120  1  0.27505850  0.05308660  0.96965019  1  0  -0.40305  0  3.236016  0  0  -0.35168  0  3.498274  0  0  -0.365039  0  3.51434  0  0  -0.351987  -0.342477  0  3.487136  0
N  N121  1  0.72493567  0.94690704  0.03034665  1  0  -0.403171  0  3.23609  0  0  -0.351803  0  3.498336  0  0  -0.365144  0  3.514403  0  0  -0.352034  -0.342583  0  3.487183  0
N  N122  1  0.21294288  0.86345751  0.03987613  1  0  -0.409878  0  3.229022  0  0  -0.361528  0  3.497543  0  0  -0.375976  0  3.514544  0  0  -0.357122  -0.351686  0  3.485872  0
N  N123  1  0.78705080  0.13654368  0.96012495  1  0  -0.409965  0  3.229048  0  0  -0.361607  0  3.497535  0  0  -0.37604  0  3.514541  0  0  -0.3572  -0.351762  0  3.485853  0
N  N124  1  0.82927546  0.35211231  0.22713934  1  0  -0.305229  0  3.092091  0  0  -0.263506  0  3.348727  0  0  -0.274294  0  3.363904  0  0  -0.293219  -0.256198  0  3.338511  0
N  N125  1  0.17073232  0.64789174  0.77286483  1  0  -0.305185  0  3.092314  0  0  -0.263513  0  3.348977  0  0  -0.274299  0  3.364165  0  0  -0.293236  -0.256206  0  3.33876  0
N  N126  1  0.92990995  0.23333155  0.37460434  1  0  -0.325266  0  3.165968  0  0  -0.275078  0  3.421393  0  0  -0.288129  0  3.437847  0  0  -0.299108  -0.266292  0  3.410247  0
N  N127  1  0.07009520  0.76667063  0.62540236  1  0  -0.325239  0  3.165984  0  0  -0.275016  0  3.421443  0  0  -0.28805  0  3.437889  0  0  -0.299099  -0.266226  0  3.410297  0
O  O128  1  0.43702543  0.19563593  0.23416889  1  0  -0.722773  0  1.970073  0  0  -0.671879  0  2.210048  0  0  -0.698136  0  2.201363  0  0  -0.392773  -0.653105  0  2.215107  0
O  O129  1  0.56295950  0.80435768  0.76582097  1  0  -0.722789  0  1.970304  0  0  -0.671906  0  2.210295  0  0  -0.698139  0  2.201581  0  0  -0.392834  -0.65314  0  2.215351  0
O  O130  1  0.41027371  0.04301855  0.29983397  1  0  -0.685915  0  1.92962  0  0  -0.641042  0  2.154855  0  0  -0.665514  0  2.146475  0  0  -0.376674  -0.623898  0  2.16003  0
O  O131  1  0.58973804  0.95698835  0.70017463  1  0  -0.685786  0  1.929704  0  0  -0.640901  0  2.154936  0  0  -0.66535  0  2.146542  0  0  -0.376575  -0.623765  0  2.160106  0
O  O132  1  0.33830175  0.08085719  0.63634629  1  0  -0.612236  0  1.89756  0  0  -0.564068  0  2.109058  0  0  -0.587381  0  2.098692  0  0  -0.314174  -0.547702  0  2.115774  0
O  O133  1  0.66169664  0.91914211  0.36364957  1  0  -0.612215  0  1.897491  0  0  -0.564062  0  2.108967  0  0  -0.58736  0  2.098574  0  0  -0.314154  -0.547697  0  2.115687  0
O  O134  1  0.51150777  0.14849818  0.82794011  1  0  -0.749105  0  2.08114  0  0  -0.693927  0  2.345764  0  0  -0.721075  0  2.336252  0  0  -0.40572  -0.674313  0  2.351368  0
O  O135  1  0.48848668  0.85149829  0.17205838  1  0  -0.749173  0  2.081084  0  0  -0.694011  0  2.345665  0  0  -0.721177  0  2.336142  0  0  -0.405775  -0.674398  0  2.351297  0
O  O136  1  0.66546777  0.11135226  0.29978254  1  0  -0.931001  0  1.937588  0  0  -0.871937  0  2.141162  0  0  -0.892693  0  2.10801  0  0  -0.659243  -0.856893  0  2.164116  0
O  O137  1  0.33453102  0.88864798  0.70021371  1  0  -0.93104  0  1.937493  0  0  -0.871992  0  2.141085  0  0  -0.892744  0  2.107982  0  0  -0.659244  -0.856944  0  2.164046  0
O  O138  1  0.58177829  0.12107483  0.06231389  1  0  -1.175015  0  1.780064  0  0  -1.112515  0  2.034427  0  0  -1.141333  0  2.007454  0  0  -0.802552  -1.090841  0  2.052466  0
O  O139  1  0.41821774  0.87892541  0.93768380  1  0  -1.174999  0  1.78012  0  0  -1.112519  0  2.034452  0  0  -1.141276  0  2.007536  0  0  -0.802531  -1.090827  0  2.052507  0
