# generated using pymatgen
data_CuH28C27N4O7
_symmetry_space_group_name_H-M   'P 1'
_cell_length_a   8.34154500
_cell_length_b   12.48778024
_cell_length_c   13.44844100
_cell_angle_alpha   74.79744391
_cell_angle_beta   84.49863489
_cell_angle_gamma   85.21006254
_symmetry_Int_Tables_number   1
_chemical_formula_structural   CuH28C27N4O7
_chemical_formula_sum   'Cu2 H56 C54 N8 O14'
_cell_volume   1343.15155909
_cell_formula_units_Z   2
loop_
 _symmetry_equiv_pos_site_id
 _symmetry_equiv_pos_as_xyz
  1  'x, y, z'
loop_
 _atom_site_type_symbol
 _atom_site_label
 _atom_site_symmetry_multiplicity
 _atom_site_fract_x
 _atom_site_fract_y
 _atom_site_fract_z
 _atom_site_occupancy
 _atom_site_pbe_cm5_charge
 _atom_site_pbe_ddec_charge
 _atom_site_pbe_ddec_spin_density
 _atom_site_pbe_ddec_sum_bond_order
 _atom_site_pbe_magmom
Cu  Cu0  1  0.00000329  0.50000137  0.49999957  1  0.72684  0.72044  0.716754  2.188407  0.554
Cu  Cu1  1  0.50000237  0.99999936  0.99999773  1  0.723215  0.792643  0.735143  2.186872  0.57
H  H2  1  0.79958142  0.71243774  0.48015876  1  0.120205  0.093278  0.000634  1.030281  0.001
H  H3  1  0.20041006  0.28755867  0.51985260  1  0.120201  0.093295  0.000634  1.030321  0.001
H  H4  1  0.44655627  0.18054716  0.86095411  1  0.280022  0.354526  -0.000242  0.993864  0.0
H  H5  1  0.55344054  0.81944811  0.13904691  1  0.280023  0.354509  -0.000242  0.993846  0.0
H  H6  1  0.29809282  0.24555048  0.90429595  1  0.278845  0.38398  1.8e-05  0.957034  0.0
H  H7  1  0.70190520  0.75444317  0.09570767  1  0.278836  0.383927  1.8e-05  0.957103  0.0
H  H8  1  0.55509034  0.80439562  0.39022675  1  0.105915  0.108523  0.000542  1.037648  0.001
H  H9  1  0.44489233  0.19560030  0.60979480  1  0.10586  0.108437  0.000542  1.037702  0.001
H  H10  1  0.29413035  0.55936952  0.29511231  1  0.298775  0.270337  -2.6e-05  1.024027  0.0
H  H11  1  0.70586973  0.44062911  0.70489066  1  0.298792  0.270397  -2.6e-05  1.023994  0.0
H  H12  1  0.42095654  0.70356621  0.28672249  1  0.110813  0.106296  7.2e-05  1.045756  0.0
H  H13  1  0.57903344  0.29643278  0.71329124  1  0.110791  0.106334  7.2e-05  1.04573  0.0
H  H14  1  0.25402848  0.62060333  0.06237373  1  0.331125  0.289585  1.3e-05  0.911058  0.0
H  H15  1  0.74596420  0.37939708  0.93763058  1  0.331121  0.289649  1.3e-05  0.910924  0.0
H  H16  1  0.78248595  0.43561294  0.36658034  1  0.122743  0.098266  0.000701  1.040376  0.002
H  H17  1  0.21752112  0.56439455  0.63341182  1  0.122736  0.098261  0.000701  1.040381  0.002
H  H18  1  0.34137426  0.42766838  0.13980684  1  0.117762  0.075369  -0.0  0.942527  0.0
H  H19  1  0.65862453  0.57233191  0.86019501  1  0.117771  0.075415  -0.0  0.942586  0.0
H  H20  1  0.17559079  0.34575454  0.35604326  1  0.085192  0.081759  -0.000179  1.039266  0.0
H  H21  1  0.82440732  0.65424306  0.64395114  1  0.085176  0.0817  -0.000179  1.039233  0.0
H  H22  1  0.35511167  0.28606945  0.30305032  1  0.094042  0.100349  -1e-06  0.996322  0.0
H  H23  1  0.64487738  0.71393020  0.69695584  1  0.094029  0.100324  -1e-06  0.996353  0.0
H  H24  1  0.20210630  0.23821112  0.17509958  1  0.08663  0.084448  -1.2e-05  1.00422  0.0
H  H25  1  0.79788918  0.76178503  0.82490275  1  0.086638  0.08445  -1.2e-05  1.004283  0.0
H  H26  1  0.11190476  0.18124015  0.29961330  1  0.082365  0.075482  -7e-06  1.011044  0.0
H  H27  1  0.88808687  0.81875778  0.70039171  1  0.082381  0.075467  -7e-06  1.011145  0.0
H  H28  1  0.90311922  0.33937671  0.27873571  1  0.084431  0.076562  3.8e-05  1.030139  0.0
H  H29  1  0.09687566  0.66062539  0.72127030  1  0.084461  0.07659  3.8e-05  1.030201  0.0
H  H30  1  0.89929731  0.27587726  0.17755259  1  0.086418  0.086696  -2.8e-05  0.996782  0.0
H  H31  1  0.10069541  0.72412392  0.82244929  1  0.086426  0.086709  -2.8e-05  0.996876  0.0
H  H32  1  0.88922238  0.48169442  0.11292029  1  0.093457  0.101543  6e-06  1.00976  0.0
H  H33  1  0.11077397  0.51830592  0.88708240  1  0.093467  0.101539  6e-06  1.009875  0.0
H  H34  1  0.06732808  0.42089401  0.06070390  1  0.088725  0.085276  -4e-06  1.010904  0.0
H  H35  1  0.93267208  0.57910618  0.93929420  1  0.088708  0.085236  -4e-06  1.010964  0.0
H  H36  1  0.04118576  0.52731287  0.24262838  1  0.113716  0.072259  -0.000135  0.97089  0.0
H  H37  1  0.95880796  0.47269002  0.75737524  1  0.113671  0.072195  -0.000135  0.970804  0.0
H  H38  1  0.87350650  0.84876427  0.93135727  1  0.120296  0.122611  -8e-06  0.989113  0.0
H  H39  1  0.12649273  0.15123256  0.06864025  1  0.120301  0.122684  -7e-06  0.989022  0.0
H  H40  1  0.97829918  0.02642140  0.81704572  1  0.110317  0.118613  0.000564  1.00711  0.001
H  H41  1  0.02170614  0.97357533  0.18295008  1  0.110339  0.118637  0.000564  1.00706  0.001
H  H42  1  0.24507066  0.08359445  0.84749128  1  0.120421  0.083579  0.001001  1.013842  0.001
H  H43  1  0.75493341  0.91640313  0.15250436  1  0.120465  0.083639  0.001002  1.013984  0.001
H  H44  1  0.32270729  0.79543606  0.07779504  1  0.12243  0.104298  0.001051  1.024238  0.002
H  H45  1  0.67729541  0.20456162  0.92220434  1  0.122489  0.104376  0.001051  1.024166  0.002
H  H46  1  0.12715523  0.80707886  0.57914587  1  0.107714  0.11938  0.000354  1.014924  0.0
H  H47  1  0.87284933  0.19292632  0.42085296  1  0.107747  0.11939  0.000354  1.014881  0.0
H  H48  1  0.31145817  0.07758716  0.56833708  1  0.085931  0.11766  2.3e-05  1.036189  0.0
H  H49  1  0.68854579  0.92241208  0.43165812  1  0.085943  0.117669  2.3e-05  1.036218  0.0
H  H50  1  0.29397214  0.94313892  0.65393986  1  0.097126  0.146261  5.1e-05  0.994316  0.0
H  H51  1  0.70603046  0.05686362  0.34605305  1  0.097152  0.146265  5.1e-05  0.994256  0.0
H  H52  1  0.11773204  0.02611843  0.61135486  1  0.089011  0.127803  1.7e-05  1.014205  0.0
H  H53  1  0.88227419  0.97388486  0.38863620  1  0.089018  0.127877  1.7e-05  1.014143  0.0
H  H54  1  0.38041776  0.08649109  0.39003449  1  0.107514  0.113478  -2e-05  1.00997  0.0
H  H55  1  0.61959067  0.91351150  0.60996262  1  0.10746  0.113483  -2e-05  1.009958  0.0
H  H56  1  0.24457671  0.83496745  0.25584652  1  0.102092  0.104879  0.000184  1.042132  0.0
H  H57  1  0.75542366  0.16503341  0.74414544  1  0.102074  0.104798  0.000184  1.042116  0.0
C  C58  1  0.73753730  0.67203504  0.43378707  1  0.046286  0.090507  -0.000885  3.922261  0.0
C  C59  1  0.26246745  0.32796682  0.56621336  1  0.046215  0.090321  -0.000885  3.92248  0.0
C  C60  1  0.60255894  0.72245349  0.38348746  1  -0.083834  -0.121075  0.003774  3.967253  0.004
C  C61  1  0.39742888  0.27754219  0.61652649  1  -0.083717  -0.120792  0.003774  3.967164  0.004
C  C62  1  0.52828480  0.66643112  0.32543129  1  -0.060544  -0.048191  -0.004191  3.930735  -0.002
C  C63  1  0.47171751  0.33356919  0.67457263  1  -0.060483  -0.048195  -0.004191  3.930687  -0.002
C  C64  1  0.59239675  0.56168785  0.31828243  1  0.001475  -0.040252  0.003989  3.938445  0.005
C  C65  1  0.40760310  0.43831331  0.68172138  1  0.001363  -0.040469  0.003989  3.938686  0.005
C  C66  1  0.72914400  0.51708326  0.37022395  1  0.059704  0.081513  -0.001379  3.873667  0.0
C  C67  1  0.27086434  0.48292178  0.62977103  1  0.059776  0.081577  -0.00138  3.87368  0.0
C  C68  1  0.52133965  0.49409056  0.25793842  1  0.233683  0.469251  0.000618  4.176441  0.001
C  C69  1  0.47866126  0.50591707  0.74205695  1  0.233764  0.469383  0.000617  4.176549  0.001
C  C70  1  0.26804885  0.44273343  0.20819099  1  0.01772  0.111726  9.5e-05  3.830972  0.0
C  C71  1  0.73195094  0.55726857  0.79181260  1  0.017686  0.111495  9.4e-05  3.831336  0.0
C  C72  1  0.23750891  0.32986568  0.28483204  1  -0.166841  -0.203329  -9.6e-05  3.900467  0.0
C  C73  1  0.76248748  0.67013704  0.71516556  1  -0.16679  -0.203177  -9.5e-05  3.900337  0.0
C  C74  1  0.13352501  0.26023547  0.24178259  1  -0.172103  -0.145875  2.5e-05  3.958916  0.0
C  C75  1  0.86646895  0.73976408  0.75822115  1  -0.172097  -0.1458  2.5e-05  3.959078  0.0
C  C76  1  0.97478112  0.32413800  0.21020639  1  -0.171781  -0.145404  -5.5e-05  3.956386  0.0
C  C77  1  0.02521496  0.67586569  0.78979691  1  -0.171845  -0.14551  -5.5e-05  3.956712  0.0
C  C78  1  0.00457870  0.43536795  0.13230223  1  -0.168925  -0.210503  2.4e-05  3.911612  0.0
C  C79  1  0.99542339  0.56463729  0.86769817  1  -0.168921  -0.210455  2.5e-05  3.911622  0.0
C  C80  1  0.10852806  0.50623097  0.17492960  1  0.018657  0.113077  -3e-06  3.80565  0.0
C  C81  1  0.89146816  0.49377104  0.82507339  1  0.018662  0.113249  -3e-06  3.805336  0.0
C  C82  1  0.03418715  0.70020353  0.08211532  1  0.247726  0.48541  0.000604  4.142526  0.001
C  C83  1  0.96581897  0.29979663  0.91788401  1  0.247793  0.485502  0.000604  4.142412  0.001
C  C84  1  0.09227295  0.80656957  0.01165681  1  -0.002577  -0.076232  0.003909  3.973209  0.005
C  C85  1  0.90772595  0.19342906  0.98834547  1  -0.002559  -0.076217  0.00391  3.973109  0.005
C  C86  1  0.99286204  0.87395195  0.93877363  1  -0.051515  -0.037108  -0.004499  3.916451  -0.003
C  C87  1  0.00713562  0.12604670  0.06122944  1  -0.051564  -0.037186  -0.0045  3.916425  -0.003
C  C88  1  0.04989029  0.97283239  0.87643526  1  -0.076392  -0.115941  0.003774  3.947854  0.004
C  C89  1  0.95011518  0.02716266  0.12356023  1  -0.076411  -0.11596  0.003775  3.948005  0.004
C  C90  1  0.19917878  0.00502015  0.89275211  1  0.057937  0.101174  -0.00167  3.929104  -0.001
C  C91  1  0.80082930  0.99497315  0.10724149  1  0.057905  0.101043  -0.001671  3.929507  -0.001
C  C92  1  0.24113643  0.84445690  0.02222682  1  0.057861  0.074694  -0.001924  3.875021  -0.001
C  C93  1  0.75886402  0.15553832  0.97777331  1  0.057763  0.074571  -0.001926  3.874964  -0.001
C  C94  1  0.12333548  0.69692915  0.42713067  1  0.199885  0.556411  -0.002429  4.203065  -0.004
C  C95  1  0.87665585  0.30307776  0.57286531  1  0.199812  0.556552  -0.002429  4.20285  -0.004
C  C96  1  0.17994127  0.80950724  0.41869228  1  -0.026032  -0.040943  0.005557  4.031375  0.006
C  C97  1  0.82007360  0.19049185  0.58130100  1  -0.025972  -0.041113  0.005558  4.031485  0.006
C  C98  1  0.17922664  0.85347650  0.50438668  1  -0.07932  -0.144551  -0.000808  3.886479  -0.001
C  C99  1  0.82078074  0.14652521  0.49560847  1  -0.079406  -0.144426  -0.000808  3.886459  -0.001
C  C100  1  0.24740869  0.95498662  0.49530653  1  -0.006873  0.169164  0.00064  3.977598  0.001
C  C101  1  0.75260104  0.04501510  0.50469000  1  -0.00686  0.169031  0.00064  3.977543  0.001
C  C102  1  0.24279658  0.00279654  0.58729816  1  -0.240144  -0.416192  0.000154  3.945368  0.0
C  C103  1  0.75720855  0.99720431  0.41269508  1  -0.240201  -0.416264  0.000154  3.945215  0.0
C  C104  1  0.32092996  0.00950225  0.39929566  1  -0.077578  -0.152964  -4.2e-05  3.920362  0.001
C  C105  1  0.67907494  0.99049873  0.60070276  1  -0.077579  -0.153025  -4.2e-05  3.920347  0.001
C  C106  1  0.32172286  0.96650345  0.31283374  1  -0.022928  -0.037164  0.008385  4.006849  0.009
C  C107  1  0.67827992  0.03349259  0.68716681  1  -0.022872  -0.037022  0.008383  4.006634  0.009
C  C108  1  0.24675431  0.86826128  0.32266479  1  -0.091273  -0.13781  9.6e-05  4.002279  0.0
C  C109  1  0.75324495  0.13173954  0.67732499  1  -0.09127  -0.137733  9.6e-05  4.002155  0.0
C  C110  1  0.41042473  0.02194054  0.21138697  1  0.198209  0.556127  0.00041  4.226969  -0.001
C  C111  1  0.58957781  0.97806204  0.78860741  1  0.19817  0.556099  0.000411  4.226988  -0.001
N  N112  1  0.79935131  0.57024118  0.42794980  1  -0.341096  -0.223079  0.058593  3.59736  0.077
N  N113  1  0.20064991  0.42975827  0.57205290  1  -0.341104  -0.22302  0.058591  3.597309  0.077
N  N114  1  0.29162870  0.94325417  0.96589096  1  -0.326969  -0.206108  0.058877  3.581005  0.077
N  N115  1  0.70837277  0.05674193  0.03411186  1  -0.326958  -0.205994  0.058881  3.581042  0.077
N  N116  1  0.35931983  0.51039244  0.25322257  1  -0.426488  -0.410583  0.00041  3.563758  0.001
N  N117  1  0.64067675  0.48960296  0.74678363  1  -0.426502  -0.410606  0.00041  3.563849  0.001
N  N118  1  0.14288865  0.61265343  0.10081768  1  -0.404593  -0.37085  0.000117  3.526462  0.0
N  N119  1  0.85710561  0.38734434  0.89918204  1  -0.404556  -0.370972  0.000117  3.526222  0.0
O  O120  1  0.05049356  0.64723394  0.51459728  1  -0.322325  -0.536649  0.072797  2.382352  0.102
O  O121  1  0.94950775  0.35276706  0.48540055  1  -0.322273  -0.536638  0.072799  2.382218  0.102
O  O122  1  0.40886375  0.21328088  0.91812185  1  -0.609764  -0.792069  -0.001538  1.976227  -0.001
O  O123  1  0.59112989  0.78670697  0.08188200  1  -0.609763  -0.791954  -0.001537  1.976297  -0.001
O  O124  1  0.41717774  0.96136444  0.14438354  1  -0.348984  -0.596864  0.062975  2.444489  0.089
O  O125  1  0.58283599  0.03863301  0.85561095  1  -0.348959  -0.596881  0.062965  2.444513  0.089
O  O126  1  0.14936654  0.65334813  0.35219264  1  -0.321909  -0.569453  -0.000751  2.224721  0.001
O  O127  1  0.85063337  0.34665539  0.64780533  1  -0.321873  -0.569508  -0.000751  2.224668  0.001
O  O128  1  0.46932803  0.11269113  0.19876358  1  -0.312028  -0.508911  0.002157  2.102869  0.004
O  O129  1  0.53068433  0.88730724  0.80123371  1  -0.312029  -0.508902  0.002156  2.102772  0.004
O  O130  1  0.60736459  0.42838344  0.21776169  1  -0.302102  -0.484149  0.000682  2.081356  0.001
O  O131  1  0.39263634  0.57162018  0.78224068  1  -0.302159  -0.484206  0.000682  2.081301  0.001
O  O132  1  0.89260601  0.69493803  0.12217116  1  -0.293257  -0.496491  0.001057  2.161261  0.001
O  O133  1  0.10739905  0.30506046  0.87782791  1  -0.293316  -0.496549  0.001056  2.161236  0.001
