# generated using pymatgen
data_AgH8C12SN5O3
_symmetry_space_group_name_H-M   'P 1'
_cell_length_a   7.01015202
_cell_length_b   13.12222011
_cell_length_c   14.73558522
_cell_angle_alpha   90.00029284
_cell_angle_beta   90.00006973
_cell_angle_gamma   102.13561733
_symmetry_Int_Tables_number   1
_chemical_formula_structural   AgH8C12SN5O3
_chemical_formula_sum   'Ag4 H32 C48 S4 N20 O12'
_cell_volume   1325.21628721
_cell_formula_units_Z   4
loop_
 _symmetry_equiv_pos_site_id
 _symmetry_equiv_pos_as_xyz
  1  'x, y, z'
loop_
 _atom_site_type_symbol
 _atom_site_label
 _atom_site_symmetry_multiplicity
 _atom_site_fract_x
 _atom_site_fract_y
 _atom_site_fract_z
 _atom_site_occupancy
 _atom_site_hle17_bader_spin_density
 _atom_site_hle17_ddec_charge
 _atom_site_hle17_ddec_spin_density
 _atom_site_hle17_ddec_sum_bond_order
 _atom_site_hle17_magmom
 _atom_site_hse06_10hf_bader_spin_density
 _atom_site_hse06_10hf_ddec_charge
 _atom_site_hse06_10hf_ddec_spin_density
 _atom_site_hse06_10hf_ddec_sum_bond_order
 _atom_site_hse06_10hf_magmom
 _atom_site_hse06_bader_spin_density
 _atom_site_hse06_ddec_charge
 _atom_site_hse06_ddec_spin_density
 _atom_site_hse06_ddec_sum_bond_order
 _atom_site_hse06_magmom
 _atom_site_pbe_bader_spin_density
 _atom_site_pbe_cm5_charge
 _atom_site_pbe_ddec_charge
 _atom_site_pbe_ddec_spin_density
 _atom_site_pbe_ddec_sum_bond_order
 _atom_site_pbe_magmom
Ag  Ag0  1  0.75267339  0.75537756  0.47445478  1  0  0.526806  0  1.435781  0  0  0.377952  0  1.875226  0  0  0.40463  0  1.831813  0  0  0.471461  0.36072  0  1.904817  0
Ag  Ag1  1  0.25267798  0.25537773  0.02554427  1  0  0.526767  0  1.435807  0  0  0.377907  0  1.875271  0  0  0.404594  0  1.831856  0  0  0.471442  0.360666  0  1.904856  0
Ag  Ag2  1  0.24733405  0.24462794  0.52554610  1  0  0.526773  0  1.435823  0  0  0.37781  0  1.87534  0  0  0.404633  0  1.831856  0  0  0.471491  0.360723  0  1.904849  0
Ag  Ag3  1  0.74733024  0.74462232  0.97445593  1  0  0.526801  0  1.435776  0  0  0.377979  0  1.875215  0  0  0.404658  0  1.831801  0  0  0.471486  0.360747  0  1.904804  0
H  H4  1  0.68835017  0.46552206  0.73012633  1  0  0.120834  0  0.987833  0  0  0.123393  0  1.05777  0  0  0.12792  0  1.055  0  0  0.102509  0.120101  0  1.059847  0
H  H5  1  0.18834796  0.96551995  0.76986989  1  0  0.120805  0  0.987805  0  0  0.123386  0  1.057732  0  0  0.127913  0  1.054964  0  0  0.1025  0.120093  0  1.059814  0
H  H6  1  0.31165121  0.53447875  0.26987183  1  0  0.120817  0  0.987876  0  0  0.123393  0  1.057796  0  0  0.12792  0  1.055029  0  0  0.102494  0.1201  0  1.059873  0
H  H7  1  0.81165169  0.03448007  0.23012827  1  0  0.120797  0  0.987878  0  0  0.12333  0  1.057874  0  0  0.127902  0  1.055026  0  0  0.102492  0.120082  0  1.059874  0
H  H8  1  0.72793322  0.31919801  0.62899395  1  0  0.089156  0  0.963167  0  0  0.098342  0  1.02601  0  0  0.099756  0  1.026936  0  0  0.101586  0.09729  0  1.025531  0
H  H9  1  0.22792519  0.81919495  0.87100569  1  0  0.089136  0  0.963162  0  0  0.098323  0  1.026008  0  0  0.099738  0  1.026932  0  0  0.101584  0.097271  0  1.025535  0
H  H10  1  0.27206703  0.68080357  0.37100557  1  0  0.089164  0  0.963145  0  0  0.098355  0  1.025988  0  0  0.099769  0  1.026916  0  0  0.101594  0.097302  0  1.025509  0
H  H11  1  0.77207130  0.18080428  0.12899315  1  0  0.089168  0  0.96319  0  0  0.098349  0  1.026034  0  0  0.099764  0  1.026961  0  0  0.101602  0.097298  0  1.02556  0
H  H12  1  0.76532970  0.34939079  0.46182117  1  0  0.11759  0  0.971584  0  0  0.122296  0  1.041214  0  0  0.126537  0  1.03789  0  0  0.104632  0.119279  0  1.043629  0
H  H13  1  0.26531842  0.84939264  0.03817628  1  0  0.117643  0  0.971718  0  0  0.122298  0  1.041369  0  0  0.126509  0  1.038109  0  0  0.10463  0.119252  0  1.043832  0
H  H14  1  0.23466911  0.65061079  0.53817835  1  0  0.11759  0  0.971574  0  0  0.122307  0  1.041168  0  0  0.126518  0  1.037907  0  0  0.104632  0.119262  0  1.043629  0
H  H15  1  0.73467409  0.15060735  0.96182120  1  0  0.117621  0  0.97163  0  0  0.12234  0  1.041218  0  0  0.126552  0  1.037956  0  0  0.104651  0.119292  0  1.043679  0
H  H16  1  0.76304017  0.52967819  0.40174117  1  0  0.071812  0  0.933502  0  0  0.081653  0  0.998184  0  0  0.083632  0  0.996739  0  0  0.110078  0.08023  0  0.999287  0
H  H17  1  0.26302654  0.02967874  0.09825617  1  0  0.071844  0  0.933536  0  0  0.08171  0  0.998197  0  0  0.083677  0  0.996764  0  0  0.110095  0.080283  0  0.999299  0
H  H18  1  0.23696865  0.47032343  0.59825767  1  0  0.071832  0  0.933489  0  0  0.08169  0  0.998159  0  0  0.083657  0  0.996725  0  0  0.110081  0.080268  0  0.99926  0
H  H19  1  0.73696394  0.97031969  0.90174199  1  0  0.071787  0  0.933545  0  0  0.081632  0  0.998212  0  0  0.083612  0  0.996764  0  0  0.110052  0.080204  0  0.999314  0
H  H20  1  0.07531938  0.62698250  0.68494134  1  0  0.1131  0  0.955562  0  0  0.122745  0  1.017187  0  0  0.125546  0  1.017007  0  0  0.106978  0.120715  0  1.017438  0
H  H21  1  0.57532601  0.12698439  0.81506073  1  0  0.113055  0  0.955577  0  0  0.12272  0  1.017191  0  0  0.125514  0  1.017026  0  0  0.10695  0.120691  0  1.017424  0
H  H22  1  0.92467479  0.37301438  0.31505682  1  0  0.113038  0  0.955678  0  0  0.12274  0  1.017253  0  0  0.125549  0  1.017054  0  0  0.106962  0.120726  0  1.017467  0
H  H23  1  0.42467192  0.87301485  0.18494151  1  0  0.113007  0  0.955657  0  0  0.122721  0  1.017212  0  0  0.125511  0  1.01706  0  0  0.106958  0.120699  0  1.017433  0
H  H24  1  0.32394641  0.54992926  0.76949234  1  0  0.096921  0  0.941831  0  0  0.108463  0  1.001208  0  0  0.11072  0  1.000099  0  0  0.104641  0.106792  0  1.002076  0
H  H25  1  0.82394655  0.04992592  0.73050816  1  0  0.09694  0  0.941797  0  0  0.108475  0  1.001176  0  0  0.11073  0  1.00007  0  0  0.10465  0.1068  0  1.002046  0
H  H26  1  0.67605062  0.45006764  0.23050378  1  0  0.096943  0  0.941808  0  0  0.108478  0  1.001186  0  0  0.110737  0  1.000082  0  0  0.104644  0.106805  0  1.00206  0
H  H27  1  0.17604501  0.95006785  0.26949407  1  0  0.09692  0  0.941752  0  0  0.108447  0  1.001159  0  0  0.110711  0  1.00004  0  0  0.104623  0.10678  0  1.002016  0
H  H28  1  0.30722780  0.54145377  0.93810931  1  0  0.119064  0  0.948118  0  0  0.129338  0  1.006212  0  0  0.132645  0  1.004456  0  0  0.111136  0.126813  0  1.007857  0
H  H29  1  0.80722199  0.04145091  0.56189251  1  0  0.119022  0  0.948141  0  0  0.129297  0  1.006247  0  0  0.132616  0  1.00447  0  0  0.111149  0.126784  0  1.007871  0
H  H30  1  0.69277525  0.45854393  0.06188818  1  0  0.119046  0  0.948083  0  0  0.129328  0  1.006157  0  0  0.132635  0  1.004402  0  0  0.11113  0.126803  0  1.007804  0
H  H31  1  0.19277624  0.95854910  0.43811040  1  0  0.119008  0  0.948192  0  0  0.129268  0  1.006314  0  0  0.1326  0  1.004519  0  0  0.111132  0.126764  0  1.007921  0
H  H32  1  0.05115115  0.61524399  0.01802989  1  0  0.082759  0  0.962412  0  0  0.087245  0  1.033929  0  0  0.089995  0  1.031443  0  0  0.112628  0.085062  0  1.036027  0
H  H33  1  0.55114682  0.11524220  0.48197178  1  0  0.082814  0  0.962368  0  0  0.087231  0  1.033951  0  0  0.090031  0  1.0314  0  0  0.112634  0.085079  0  1.035998  0
H  H34  1  0.94885594  0.38475683  0.98197099  1  0  0.08294  0  0.962402  0  0  0.087411  0  1.033893  0  0  0.090176  0  1.031398  0  0  0.112718  0.085226  0  1.035994  0
H  H35  1  0.44885718  0.88476173  0.51802977  1  0  0.082768  0  0.962419  0  0  0.087282  0  1.033914  0  0  0.090014  0  1.031454  0  0  0.112647  0.085098  0  1.03602  0
C  C36  1  0.68170460  0.66392896  0.67518767  1  0  0.110229  0  3.719968  0  0  0.100807  0  3.981591  0  0  0.10551  0  3.997185  0  0  0.11595  0.097536  0  3.971168  0
C  C37  1  0.18170376  0.16392786  0.82481056  1  0  0.11027  0  3.719773  0  0  0.100829  0  3.98145  0  0  0.105539  0  3.997045  0  0  0.115962  0.097562  0  3.971019  0
C  C38  1  0.31829678  0.33607185  0.32481050  1  0  0.110244  0  3.71988  0  0  0.100773  0  3.981556  0  0  0.105486  0  3.997134  0  0  0.115882  0.097512  0  3.97112  0
C  C39  1  0.81829160  0.83607215  0.17518964  1  0  0.11022  0  3.719853  0  0  0.100831  0  3.98154  0  0  0.105536  0  3.997136  0  0  0.115935  0.097563  0  3.971115  0
C  C40  1  0.77241346  0.69603970  0.76084504  1  0  0.121424  0  3.710455  0  0  0.109921  0  3.966966  0  0  0.114334  0  3.983092  0  0  0.11471  0.106774  0  3.9563  0
C  C41  1  0.27241768  0.19604119  0.73915543  1  0  0.121339  0  3.710533  0  0  0.109887  0  3.966985  0  0  0.114278  0  3.983146  0  0  0.114747  0.106739  0  3.956321  0
C  C42  1  0.22758560  0.30395877  0.23915380  1  0  0.12142  0  3.710501  0  0  0.109843  0  3.967079  0  0  0.114271  0  3.983179  0  0  0.114706  0.106704  0  3.956397  0
C  C43  1  0.72758144  0.80396116  0.26084545  1  0  0.121417  0  3.710542  0  0  0.109885  0  3.96706  0  0  0.114296  0  3.983189  0  0  0.114758  0.106739  0  3.956395  0
C  C44  1  0.70823108  0.57499276  0.61828101  1  0  0.179271  0  3.77307  0  0  0.179294  0  4.008285  0  0  0.183811  0  4.030852  0  0  0.115895  0.17625  0  3.993029  0
C  C45  1  0.20822738  0.07499122  0.88171886  1  0  0.179415  0  3.773021  0  0  0.179361  0  4.008356  0  0  0.18388  0  4.030918  0  0  0.115911  0.176312  0  3.993094  0
C  C46  1  0.29177487  0.42500884  0.38171987  1  0  0.179215  0  3.773135  0  0  0.179341  0  4.008288  0  0  0.183862  0  4.03085  0  0  0.115914  0.176303  0  3.993031  0
C  C47  1  0.79176626  0.92500799  0.11827998  1  0  0.179314  0  3.772998  0  0  0.179198  0  4.008463  0  0  0.183715  0  4.031034  0  0  0.115874  0.176151  0  3.993211  0
C  C48  1  0.70590517  0.47746226  0.65701288  1  0  -0.15071  0  3.698928  0  0  -0.168825  0  3.945277  0  0  -0.175918  0  3.96641  0  0  -0.085403  -0.164101  0  3.931121  0
C  C49  1  0.20590159  0.97745982  0.84298409  1  0  -0.150771  0  3.698998  0  0  -0.168874  0  3.945342  0  0  -0.175967  0  3.966477  0  0  -0.085431  -0.164158  0  3.931191  0
C  C50  1  0.29409650  0.52253933  0.34298597  1  0  -0.150809  0  3.698987  0  0  -0.168937  0  3.945269  0  0  -0.176031  0  3.966407  0  0  -0.085438  -0.164213  0  3.931112  0
C  C51  1  0.79409776  0.02253942  0.15701407  1  0  -0.150725  0  3.698993  0  0  -0.168796  0  3.945366  0  0  -0.175876  0  3.966462  0  0  -0.085412  -0.164067  0  3.931174  0
C  C52  1  0.72806715  0.39572183  0.60037836  1  0  -0.003831  0  3.71391  0  0  -0.021806  0  3.968391  0  0  -0.018935  0  3.986651  0  0  -0.07202  -0.023634  0  3.956081  0
C  C53  1  0.22806248  0.89572363  0.89961960  1  0  -0.00377  0  3.714039  0  0  -0.021731  0  3.968491  0  0  -0.018864  0  3.986752  0  0  -0.071989  -0.023574  0  3.9562  0
C  C54  1  0.27193423  0.60427898  0.39962116  1  0  -0.003785  0  3.713874  0  0  -0.021762  0  3.968357  0  0  -0.018894  0  3.986622  0  0  -0.072025  -0.023595  0  3.956057  0
C  C55  1  0.77193348  0.10427793  0.10037857  1  0  -0.003846  0  3.714013  0  0  -0.021806  0  3.968459  0  0  -0.018937  0  3.986723  0  0  -0.072027  -0.023646  0  3.956166  0
C  C56  1  0.74936467  0.41252615  0.50719039  1  0  -0.104525  0  3.704639  0  0  -0.123385  0  3.964702  0  0  -0.1285  0  3.983636  0  0  -0.082339  -0.120142  0  3.952137  0
C  C57  1  0.24936159  0.91252776  0.99280630  1  0  -0.104598  0  3.704888  0  0  -0.123387  0  3.964939  0  0  -0.128512  0  3.983886  0  0  -0.082414  -0.120157  0  3.952392  0
C  C58  1  0.25063873  0.58747622  0.49280777  1  0  -0.104532  0  3.704647  0  0  -0.123369  0  3.964681  0  0  -0.128496  0  3.983634  0  0  -0.082335  -0.120136  0  3.952134  0
C  C59  1  0.75063491  0.08747147  0.00719254  1  0  -0.104586  0  3.704732  0  0  -0.123419  0  3.96475  0  0  -0.128546  0  3.983704  0  0  -0.082386  -0.120185  0  3.952196  0
C  C60  1  0.74816621  0.51184638  0.47411015  1  0  0.12724  0  3.705216  0  0  0.096087  0  3.958127  0  0  0.101517  0  3.978325  0  0  0.041923  0.092549  0  3.944385  0
C  C61  1  0.24816484  0.01184964  0.02588981  1  0  0.127117  0  3.705194  0  0  0.095924  0  3.958109  0  0  0.101367  0  3.978302  0  0  0.041885  0.092386  0  3.944355  0
C  C62  1  0.25184088  0.48815444  0.52589005  1  0  0.127083  0  3.705162  0  0  0.095956  0  3.9581  0  0  0.1014  0  3.978298  0  0  0.041867  0.092421  0  3.944358  0
C  C63  1  0.75183136  0.98814881  0.97410971  1  0  0.127218  0  3.705092  0  0  0.096102  0  3.958005  0  0  0.101533  0  3.978197  0  0  0.041952  0.092564  0  3.944253  0
C  C64  1  0.92460341  0.65350489  0.80739013  1  0  0.192851  0  3.750708  0  0  0.191165  0  3.989252  0  0  0.197568  0  4.009343  0  0  0.118141  0.186699  0  3.975941  0
C  C65  1  0.42460715  0.15350921  0.69261159  1  0  0.192949  0  3.750712  0  0  0.191237  0  3.989241  0  0  0.197652  0  4.009339  0  0  0.118129  0.186769  0  3.975938  0
C  C66  1  0.07539619  0.34649124  0.19260871  1  0  0.192966  0  3.750691  0  0  0.191389  0  3.989101  0  0  0.1978  0  4.00919  0  0  0.118175  0.186922  0  3.97579  0
C  C67  1  0.57539339  0.84649315  0.30738997  1  0  0.192789  0  3.750876  0  0  0.191163  0  3.989328  0  0  0.197573  0  4.009411  0  0  0.118087  0.186698  0  3.97601  0
C  C68  1  0.07049324  0.61935677  0.75850542  1  0  -0.145156  0  3.70435  0  0  -0.166958  0  3.957311  0  0  -0.173618  0  3.978642  0  0  -0.083612  -0.162631  0  3.943352  0
C  C69  1  0.57050122  0.11935898  0.74149729  1  0  -0.145076  0  3.704363  0  0  -0.166902  0  3.957295  0  0  -0.173563  0  3.978621  0  0  -0.08358  -0.162568  0  3.943328  0
C  C70  1  0.92950237  0.38064012  0.24149410  1  0  -0.145223  0  3.704408  0  0  -0.167115  0  3.957345  0  0  -0.17377  0  3.978666  0  0  -0.083628  -0.16278  0  3.943381  0
C  C71  1  0.42949730  0.88064182  0.25850494  1  0  -0.145098  0  3.704591  0  0  -0.166973  0  3.957489  0  0  -0.173635  0  3.978817  0  0  -0.083608  -0.162636  0  3.943524  0
C  C72  1  0.20979941  0.57842834  0.80547194  1  0  -0.015316  0  3.747493  0  0  -0.037169  0  4.006013  0  0  -0.033892  0  4.024925  0  0  -0.074407  -0.039285  0  3.9935  0
C  C73  1  0.70979800  0.07842866  0.69452863  1  0  -0.015405  0  3.747683  0  0  -0.037227  0  4.006177  0  0  -0.033949  0  4.025097  0  0  -0.074416  -0.039342  0  3.99366  0
C  C74  1  0.79020078  0.42156934  0.19452486  1  0  -0.015254  0  3.747587  0  0  -0.037105  0  4.006122  0  0  -0.033837  0  4.02505  0  0  -0.07437  -0.039225  0  3.993617  0
C  C75  1  0.29019904  0.92156823  0.30547293  1  0  -0.01532  0  3.747652  0  0  -0.037174  0  4.006183  0  0  -0.033889  0  4.025095  0  0  -0.07437  -0.03928  0  3.993646  0
C  C76  1  0.20210042  0.57451814  0.89982583  1  0  -0.094197  0  3.69283  0  0  -0.109977  0  3.945959  0  0  -0.115692  0  3.965981  0  0  -0.078924  -0.106636  0  3.93308  0
C  C77  1  0.70210253  0.07451710  0.60017675  1  0  -0.094036  0  3.692688  0  0  -0.109877  0  3.945852  0  0  -0.11557  0  3.965828  0  0  -0.0789  -0.106526  0  3.932952  0
C  C78  1  0.79789864  0.42548033  0.10017368  1  0  -0.094194  0  3.692733  0  0  -0.109971  0  3.945864  0  0  -0.115686  0  3.965889  0  0  -0.078945  -0.106632  0  3.932988  0
C  C79  1  0.29789599  0.92548369  0.39982549  1  0  -0.093986  0  3.692601  0  0  -0.109811  0  3.94582  0  0  -0.115489  0  3.96575  0  0  -0.078856  -0.10646  0  3.932912  0
C  C80  1  0.05752352  0.61382389  0.94413495  1  0  0.134722  0  3.681195  0  0  0.102108  0  3.934863  0  0  0.109107  0  3.952212  0  0  0.046201  0.09747  0  3.92339  0
C  C81  1  0.55752058  0.11382489  0.55586569  1  0  0.134628  0  3.681109  0  0  0.102043  0  3.93478  0  0  0.109041  0  3.952102  0  0  0.046173  0.097417  0  3.923286  0
C  C82  1  0.94247923  0.38617303  0.05586118  1  0  0.134535  0  3.681115  0  0  0.101953  0  3.934769  0  0  0.108942  0  3.952117  0  0  0.0461  0.097311  0  3.923302  0
C  C83  1  0.44247966  0.88617669  0.44413586  1  0  0.134646  0  3.68101  0  0  0.101985  0  3.93469  0  0  0.109  0  3.952054  0  0  0.046148  0.097345  0  3.923226  0
S  S84  1  0.54817062  0.80739146  0.72828459  1  0  0.495474  0  2.96039  0  0  0.480987  0  3.354937  0  0  0.488687  0  3.35691  0  0  0.396139  0.474548  0  3.354617  0
S  S85  1  0.04817643  0.30739317  0.77171829  1  0  0.495493  0  2.960398  0  0  0.48101  0  3.354934  0  0  0.488714  0  3.356905  0  0  0.396172  0.47456  0  3.354628  0
S  S86  1  0.45182355  0.19260543  0.27171696  1  0  0.495529  0  2.9604  0  0  0.480982  0  3.355019  0  0  0.488752  0  3.356892  0  0  0.396209  0.474611  0  3.354597  0
S  S87  1  0.95182268  0.69260919  0.22828463  1  0  0.495516  0  2.960443  0  0  0.481034  0  3.354967  0  0  0.488737  0  3.356938  0  0  0.396191  0.474584  0  3.354662  0
N  N88  1  0.55375976  0.72113559  0.64934827  1  0  -0.377891  0  2.942707  0  0  -0.349372  0  3.248398  0  0  -0.356298  0  3.254956  0  0  -0.301389  -0.344628  0  3.244511  0
N  N89  1  0.05375703  0.22113309  0.85065082  1  0  -0.377921  0  2.942613  0  0  -0.349423  0  3.248388  0  0  -0.356347  0  3.25494  0  0  -0.30144  -0.344673  0  3.244491  0
N  N90  1  0.44624132  0.27886444  0.35064989  1  0  -0.377926  0  2.942699  0  0  -0.349409  0  3.248436  0  0  -0.35632  0  3.254949  0  0  -0.301404  -0.344652  0  3.244504  0
N  N91  1  0.94623976  0.77886692  0.14935005  1  0  -0.377895  0  2.942651  0  0  -0.349365  0  3.248326  0  0  -0.356289  0  3.254883  0  0  -0.301414  -0.344617  0  3.244435  0
N  N92  1  0.70727649  0.77578073  0.79754140  1  0  -0.404211  0  3.015735  0  0  -0.365313  0  3.323826  0  0  -0.373775  0  3.330574  0  0  -0.316093  -0.35946  0  3.319592  0
N  N93  1  0.20728659  0.27578669  0.70246278  1  0  -0.404247  0  3.015722  0  0  -0.365376  0  3.32383  0  0  -0.373831  0  3.330582  0  0  -0.31614  -0.35953  0  3.319613  0
N  N94  1  0.29271709  0.22421460  0.20246015  1  0  -0.404245  0  3.015812  0  0  -0.365351  0  3.323951  0  0  -0.373808  0  3.330673  0  0  -0.316101  -0.35949  0  3.319689  0
N  N95  1  0.79271514  0.72421879  0.29753945  1  0  -0.404291  0  3.015815  0  0  -0.365399  0  3.323948  0  0  -0.373862  0  3.330701  0  0  -0.316176  -0.359552  0  3.319731  0
N  N96  1  0.72892454  0.59160796  0.52791681  1  0  -0.319639  0  3.277568  0  0  -0.242989  0  3.542862  0  0  -0.259634  0  3.559562  0  0  -0.330545  -0.231678  0  3.531426  0
N  N97  1  0.22891729  0.09160775  0.97207908  1  0  -0.319573  0  3.277539  0  0  -0.242879  0  3.542837  0  0  -0.259523  0  3.55953  0  0  -0.330471  -0.231567  0  3.531383  0
N  N98  1  0.27108743  0.40839445  0.47208067  1  0  -0.319361  0  3.277568  0  0  -0.242867  0  3.542995  0  0  -0.2595  0  3.559659  0  0  -0.330457  -0.231542  0  3.531512  0
N  N99  1  0.77107492  0.90839146  0.02792044  1  0  -0.319497  0  3.27755  0  0  -0.242886  0  3.54297  0  0  -0.25953  0  3.559669  0  0  -0.330494  -0.231578  0  3.531528  0
N  N100  1  0.92099439  0.65237276  0.89941159  1  0  -0.323828  0  3.291796  0  0  -0.246696  0  3.571157  0  0  -0.263808  0  3.584253  0  0  -0.338318  -0.235339  0  3.562253  0
N  N101  1  0.42099738  0.15237573  0.60058945  1  0  -0.323888  0  3.291786  0  0  -0.246711  0  3.571081  0  0  -0.263839  0  3.584196  0  0  -0.338333  -0.235358  0  3.56218  0
N  N102  1  0.07900551  0.34762415  0.10058861  1  0  -0.323855  0  3.291789  0  0  -0.246756  0  3.571094  0  0  -0.263884  0  3.584213  0  0  -0.338327  -0.235397  0  3.562186  0
N  N103  1  0.57900459  0.84762664  0.39941075  1  0  -0.323824  0  3.291802  0  0  -0.246685  0  3.571132  0  0  -0.26379  0  3.584211  0  0  -0.338314  -0.235324  0  3.562219  0
N  N104  1  0.08825629  0.86059918  0.60688051  1  0  0.690758  0  4.149924  0  0  0.724988  0  4.437336  0  0  0.751283  0  4.444856  0  0  0.092669  0.705775  0  4.431856  0
N  N105  1  0.58825670  0.36059919  0.89311925  1  0  0.690835  0  4.149666  0  0  0.724941  0  4.437214  0  0  0.751229  0  4.444726  0  0  0.092617  0.705727  0  4.431737  0
N  N106  1  0.91174996  0.13940320  0.39312308  1  0  0.690874  0  4.149243  0  0  0.722947  0  4.437248  0  0  0.751245  0  4.444366  0  0  0.092798  0.705768  0  4.431358  0
N  N107  1  0.41174296  0.63940083  0.10688027  1  0  0.690918  0  4.149531  0  0  0.724922  0  4.437206  0  0  0.75119  0  4.444726  0  0  0.092645  0.70571  0  4.431726  0
O  O108  1  0.25191214  0.89047826  0.64530665  1  0  -0.475453  0  1.794794  0  0  -0.461111  0  2.016172  0  0  -0.476878  0  2.012981  0  0  -0.193389  -0.448824  0  2.01788  0
O  O109  1  0.75190807  0.39047801  0.85469334  1  0  -0.475466  0  1.794826  0  0  -0.461078  0  2.016221  0  0  -0.476849  0  2.013057  0  0  -0.193347  -0.448798  0  2.017942  0
O  O110  1  0.74809721  0.10952102  0.35469355  1  0  -0.47558  0  1.794588  0  0  -0.460329  0  2.016009  0  0  -0.476957  0  2.012825  0  0  -0.193458  -0.448904  0  2.017702  0
O  O111  1  0.24809242  0.60952046  0.14530551  1  0  -0.475506  0  1.794689  0  0  -0.461097  0  2.016142  0  0  -0.476852  0  2.012959  0  0  -0.193381  -0.44882  0  2.017869  0
O  O112  1  0.95254131  0.90891616  0.61820991  1  0  -0.478176  0  1.755561  0  0  -0.473604  0  1.982274  0  0  -0.487685  0  1.976354  0  0  -0.201108  -0.462804  0  1.986097  0
O  O113  1  0.45254135  0.40891697  0.88179164  1  0  -0.478218  0  1.75543  0  0  -0.473611  0  1.982184  0  0  -0.487695  0  1.976279  0  0  -0.201113  -0.462814  0  1.986015  0
O  O114  1  0.04747012  0.09108858  0.38179639  1  0  -0.478114  0  1.755374  0  0  -0.47268  0  1.982221  0  0  -0.487603  0  1.976265  0  0  -0.201128  -0.462733  0  1.986006  0
O  O115  1  0.54746003  0.59108383  0.11820788  1  0  -0.478217  0  1.755401  0  0  -0.473588  0  1.98219  0  0  -0.487665  0  1.976287  0  0  -0.201115  -0.462789  0  1.986019  0
O  O116  1  0.06181185  0.77979601  0.55547822  1  0  -0.49708  0  1.840796  0  0  -0.469635  0  2.090273  0  0  -0.488579  0  2.082743  0  0  -0.209712  -0.455422  0  2.094988  0
O  O117  1  0.56181394  0.27979635  0.94452183  1  0  -0.497095  0  1.840651  0  0  -0.469593  0  2.090174  0  0  -0.488531  0  2.082644  0  0  -0.209691  -0.455377  0  2.094882  0
O  O118  1  0.93818583  0.22020634  0.44452538  1  0  -0.497117  0  1.840552  0  0  -0.468775  0  2.090048  0  0  -0.488553  0  2.082518  0  0  -0.209748  -0.455413  0  2.094763  0
O  O119  1  0.43818773  0.72020524  0.05547837  1  0  -0.497142  0  1.840625  0  0  -0.469596  0  2.090158  0  0  -0.488524  0  2.082627  0  0  -0.209695  -0.455383  0  2.094872  0
