# generated using pymatgen
data_Cd2H5C7NO6
_symmetry_space_group_name_H-M   'P 1'
_cell_length_a   6.05651552
_cell_length_b   10.62748302
_cell_length_c   15.44251951
_cell_angle_alpha   107.72809106
_cell_angle_beta   89.99936684
_cell_angle_gamma   90.00044911
_symmetry_Int_Tables_number   1
_chemical_formula_structural   Cd2H5C7NO6
_chemical_formula_sum   'Cd8 H20 C28 N4 O24'
_cell_volume   946.76459194
_cell_formula_units_Z   4
loop_
 _symmetry_equiv_pos_site_id
 _symmetry_equiv_pos_as_xyz
  1  'x, y, z'
loop_
 _atom_site_type_symbol
 _atom_site_label
 _atom_site_symmetry_multiplicity
 _atom_site_fract_x
 _atom_site_fract_y
 _atom_site_fract_z
 _atom_site_occupancy
 _atom_site_hle17_bader_spin_density
 _atom_site_hle17_ddec_charge
 _atom_site_hle17_ddec_spin_density
 _atom_site_hle17_ddec_sum_bond_order
 _atom_site_hle17_magmom
 _atom_site_hse06_10hf_bader_spin_density
 _atom_site_hse06_10hf_ddec_charge
 _atom_site_hse06_10hf_ddec_spin_density
 _atom_site_hse06_10hf_ddec_sum_bond_order
 _atom_site_hse06_10hf_magmom
 _atom_site_hse06_bader_spin_density
 _atom_site_hse06_ddec_charge
 _atom_site_hse06_ddec_spin_density
 _atom_site_hse06_ddec_sum_bond_order
 _atom_site_hse06_magmom
 _atom_site_pbe_bader_spin_density
 _atom_site_pbe_cm5_charge
 _atom_site_pbe_ddec_charge
 _atom_site_pbe_ddec_spin_density
 _atom_site_pbe_ddec_sum_bond_order
 _atom_site_pbe_magmom
Cd  Cd0  1  0.21853514  0.46655845  0.68599884  1  0  1.269541  0  1.654712  0  0  1.096105  0  2.11054  0  0  1.154345  0  2.04872  0  0  0.721188  1.054083  0  2.153434  0
Cd  Cd1  1  0.71853584  0.53343437  0.81400086  1  0  1.269529  0  1.65465  0  0  1.09608  0  2.11045  0  0  1.154318  0  2.048632  0  0  0.721196  1.054067  0  2.153352  0
Cd  Cd2  1  0.78146685  0.53343917  0.31400073  1  0  1.269519  0  1.654759  0  0  1.096064  0  2.110575  0  0  1.154302  0  2.048756  0  0  0.721183  1.054039  0  2.153473  0
Cd  Cd3  1  0.28146120  0.46656523  0.18599912  1  0  1.269544  0  1.654707  0  0  1.096091  0  2.110506  0  0  1.154329  0  2.04869  0  0  0.721191  1.054069  0  2.153399  0
Cd  Cd4  1  0.23125646  0.42590502  0.93739907  1  0  1.228335  0  1.6899  0  0  1.051833  0  2.131134  0  0  1.108308  0  2.075348  0  0  0.736528  1.011152  0  2.169782  0
Cd  Cd5  1  0.73125820  0.57409378  0.56260309  1  0  1.22826  0  1.690045  0  0  1.051718  0  2.131292  0  0  1.108192  0  2.075507  0  0  0.736471  1.011031  0  2.169933  0
Cd  Cd6  1  0.76874058  0.57409459  0.06260156  1  0  1.228265  0  1.689925  0  0  1.051762  0  2.131159  0  0  1.108235  0  2.075376  0  0  0.736479  1.011079  0  2.169794  0
Cd  Cd7  1  0.26874875  0.42590779  0.43739729  1  0  1.228339  0  1.689904  0  0  1.051812  0  2.131135  0  0  1.108284  0  2.075349  0  0  0.736503  1.011125  0  2.16978  0
H  H8  1  0.46233981  0.33547064  0.77563602  1  0  0.400344  0  0.892545  0  0  0.37374  0  0.958568  0  0  0.383888  0  0.9441  0  0  0.278783  0.366328  0  0.969164  0
H  H9  1  0.96234488  0.66452579  0.72436336  1  0  0.400358  0  0.892533  0  0  0.373749  0  0.95856  0  0  0.383897  0  0.944092  0  0  0.278771  0.366332  0  0.969162  0
H  H10  1  0.53766218  0.66452994  0.22436416  1  0  0.400363  0  0.892515  0  0  0.373755  0  0.958548  0  0  0.383902  0  0.944081  0  0  0.27877  0.366337  0  0.969153  0
H  H11  1  0.03765546  0.33547480  0.27563747  1  0  0.400333  0  0.892596  0  0  0.373711  0  0.958628  0  0  0.383859  0  0.944158  0  0  0.278739  0.366295  0  0.969228  0
H  H12  1  0.52869303  0.35196566  0.55775389  1  0  0.401444  0  0.915592  0  0  0.366761  0  0.986314  0  0  0.379524  0  0.968176  0  0  0.264183  0.357643  0  0.999213  0
H  H13  1  0.02869099  0.64803355  0.94224599  1  0  0.401461  0  0.915574  0  0  0.366779  0  0.98629  0  0  0.379544  0  0.968151  0  0  0.26419  0.35766  0  0.999194  0
H  H14  1  0.47131557  0.64803690  0.44224604  1  0  0.401419  0  0.915629  0  0  0.366731  0  0.986353  0  0  0.379495  0  0.968215  0  0  0.264183  0.357613  0  0.999253  0
H  H15  1  0.97130440  0.35196509  0.05775574  1  0  0.401446  0  0.915581  0  0  0.366776  0  0.986276  0  0  0.37954  0  0.968137  0  0  0.264191  0.357656  0  0.999178  0
H  H16  1  0.17575307  0.01411993  0.57923924  1  0  0.13101  0  0.935464  0  0  0.137993  0  0.997595  0  0  0.142385  0  0.995073  0  0  0.115874  0.134749  0  0.999611  0
H  H17  1  0.67574725  0.98587374  0.92075887  1  0  0.131044  0  0.935428  0  0  0.137982  0  0.997601  0  0  0.142376  0  0.995071  0  0  0.115887  0.134742  0  0.999612  0
H  H18  1  0.82424562  0.98588261  0.42075940  1  0  0.130985  0  0.935523  0  0  0.137987  0  0.997633  0  0  0.142379  0  0.995109  0  0  0.115882  0.134741  0  0.99965  0
H  H19  1  0.32425143  0.01412687  0.07924326  1  0  0.131081  0  0.935374  0  0  0.138002  0  0.997574  0  0  0.142396  0  0.995044  0  0  0.115903  0.134756  0  0.999589  0
H  H20  1  0.54586556  0.09830579  0.71486995  1  0  0.110273  0  0.946335  0  0  0.120002  0  1.006824  0  0  0.123248  0  1.005874  0  0  0.108964  0.117413  0  1.008038  0
H  H21  1  0.04586824  0.90168454  0.78512610  1  0  0.110287  0  0.946254  0  0  0.120009  0  1.006747  0  0  0.123255  0  1.005798  0  0  0.10895  0.117389  0  1.007993  0
H  H22  1  0.45412817  0.90169475  0.28512699  1  0  0.110261  0  0.946354  0  0  0.119996  0  1.006843  0  0  0.123243  0  1.005891  0  0  0.10896  0.117437  0  1.008025  0
H  H23  1  0.95413706  0.09831009  0.21487092  1  0  0.11028  0  0.946252  0  0  0.119999  0  1.006752  0  0  0.123247  0  1.0058  0  0  0.108949  0.11739  0  1.00799  0
H  H24  1  0.47405473  0.85419325  0.66557226  1  0  0.076363  0  0.959891  0  0  0.083541  0  1.027378  0  0  0.085163  0  1.026787  0  0  0.113236  0.082067  0  1.028214  0
H  H25  1  0.97405927  0.14579632  0.83442761  1  0  0.076399  0  0.959864  0  0  0.083593  0  1.027318  0  0  0.085212  0  1.02674  0  0  0.113257  0.082124  0  1.028159  0
H  H26  1  0.52594891  0.14580539  0.33443011  1  0  0.076345  0  0.959914  0  0  0.083518  0  1.027408  0  0  0.085136  0  1.026827  0  0  0.113226  0.082043  0  1.028251  0
H  H27  1  0.02593777  0.85419635  0.16557031  1  0  0.076418  0  0.959803  0  0  0.0836  0  1.027276  0  0  0.085218  0  1.026696  0  0  0.113269  0.082129  0  1.028115  0
C  C28  1  0.96805782  0.84861021  0.57677107  1  0  0.106459  0  3.715603  0  0  0.110783  0  3.95997  0  0  0.111975  0  3.978822  0  0  0.113877  0.109762  0  3.947599  0
C  C29  1  0.46805754  0.15138427  0.92322853  1  0  0.106494  0  3.715664  0  0  0.11079  0  3.960007  0  0  0.111976  0  3.97887  0  0  0.113899  0.109767  0  3.94764  0
C  C30  1  0.03194418  0.15139235  0.42322886  1  0  0.106381  0  3.715697  0  0  0.110776  0  3.959966  0  0  0.11197  0  3.978818  0  0  0.11385  0.109754  0  3.94759  0
C  C31  1  0.53193785  0.84861533  0.07677210  1  0  0.106544  0  3.715709  0  0  0.110906  0  3.960011  0  0  0.112091  0  3.978882  0  0  0.113965  0.109882  0  3.947641  0
C  C32  1  0.01884763  0.98282543  0.60021907  1  0  -0.114236  0  3.665292  0  0  -0.148197  0  3.915922  0  0  -0.151704  0  3.935588  0  0  -0.066932  -0.145984  0  3.903095  0
C  C33  1  0.51885015  0.01716980  0.89978069  1  0  -0.114344  0  3.665297  0  0  -0.148303  0  3.915866  0  0  -0.151819  0  3.93554  0  0  -0.066998  -0.146088  0  3.903049  0
C  C34  1  0.98114941  0.01717711  0.39978022  1  0  -0.114257  0  3.665303  0  0  -0.148241  0  3.915901  0  0  -0.151767  0  3.935591  0  0  -0.066959  -0.146022  0  3.90307  0
C  C35  1  0.48115019  0.98283081  0.10022144  1  0  -0.11432  0  3.665259  0  0  -0.148315  0  3.915812  0  0  -0.151837  0  3.935487  0  0  -0.066995  -0.146102  0  3.902993  0
C  C36  1  0.86784681  0.07519184  0.65167740  1  0  -0.000737  0  3.705654  0  0  0.018407  0  3.942406  0  0  0.015793  0  3.961431  0  0  0.00745  0.020033  0  3.92968  0
C  C37  1  0.36784803  0.92479739  0.84831768  1  0  -0.000744  0  3.705698  0  0  0.018556  0  3.942177  0  0  0.015963  0  3.961164  0  0  0.007382  0.020178  0  3.929452  0
C  C38  1  0.13214693  0.92480967  0.34831779  1  0  -0.000551  0  3.705482  0  0  0.018549  0  3.942251  0  0  0.01595  0  3.961247  0  0  0.007424  0.020168  0  3.929541  0
C  C39  1  0.63215727  0.07519729  0.15168323  1  0  -0.000869  0  3.705786  0  0  0.018527  0  3.942193  0  0  0.015952  0  3.961147  0  0  0.007303  0.020149  0  3.929472  0
C  C40  1  0.66785326  0.02925820  0.67535185  1  0  -0.102536  0  3.674814  0  0  -0.125793  0  3.922558  0  0  -0.129429  0  3.941131  0  0  -0.071887  -0.123279  0  3.910504  0
C  C41  1  0.16785745  0.97073643  0.82464649  1  0  -0.102548  0  3.674642  0  0  -0.125842  0  3.922314  0  0  -0.129482  0  3.940881  0  0  -0.071878  -0.123301  0  3.910267  0
C  C42  1  0.33214377  0.97074235  0.32464573  1  0  -0.102543  0  3.674684  0  0  -0.125797  0  3.922428  0  0  -0.129434  0  3.94099  0  0  -0.071862  -0.123307  0  3.910368  0
C  C43  1  0.83214619  0.02925920  0.17535203  1  0  -0.10256  0  3.674761  0  0  -0.125863  0  3.922409  0  0  -0.129508  0  3.940967  0  0  -0.071896  -0.123333  0  3.910362  0
C  C44  1  0.62805469  0.89391619  0.64867567  1  0  0.141667  0  3.711223  0  0  0.109921  0  3.970356  0  0  0.11638  0  3.988066  0  0  0.048861  0.105379  0  3.958519  0
C  C45  1  0.12805250  0.10607638  0.85132372  1  0  0.141657  0  3.71094  0  0  0.109883  0  3.970058  0  0  0.116337  0  3.987766  0  0  0.048874  0.105333  0  3.958224  0
C  C46  1  0.37194730  0.10608440  0.35132451  1  0  0.141703  0  3.71116  0  0  0.109961  0  3.970301  0  0  0.116422  0  3.988006  0  0  0.048858  0.105416  0  3.95848  0
C  C47  1  0.87194619  0.89392124  0.14867585  1  0  0.141647  0  3.710981  0  0  0.10988  0  3.97015  0  0  0.116338  0  3.987858  0  0  0.048843  0.105335  0  3.958315  0
C  C48  1  0.12981184  0.74592797  0.52203648  1  0  0.627473  0  3.91455  0  0  0.570906  0  4.214375  0  0  0.604869  0  4.208065  0  0  0.209606  0.547895  0  4.217837  0
C  C49  1  0.62979901  0.25407249  0.97796322  1  0  0.62751  0  3.9145  0  0  0.571023  0  4.214227  0  0  0.604986  0  4.207913  0  0  0.20963  0.54801  0  4.217698  0
C  C50  1  0.87019345  0.25407657  0.47796516  1  0  0.627311  0  3.914617  0  0  0.570754  0  4.214393  0  0  0.604713  0  4.208084  0  0  0.209537  0.547743  0  4.217856  0
C  C51  1  0.37019307  0.74592711  0.02203740  1  0  0.627395  0  3.914725  0  0  0.570857  0  4.214504  0  0  0.604821  0  4.208197  0  0  0.209597  0.547854  0  4.217962  0
C  C52  1  0.92462920  0.22075652  0.68415639  1  0  0.659899  0  3.923791  0  0  0.605628  0  4.223327  0  0  0.640653  0  4.215893  0  0  0.207862  0.581798  0  4.227471  0
C  C53  1  0.42464084  0.77923778  0.81583818  1  0  0.659864  0  3.92404  0  0  0.605571  0  4.22348  0  0  0.640592  0  4.216053  0  0  0.20793  0.581744  0  4.227625  0
C  C54  1  0.07535958  0.77924793  0.31583746  1  0  0.659741  0  3.923837  0  0  0.605526  0  4.223271  0  0  0.640549  0  4.215839  0  0  0.207925  0.5817  0  4.227414  0
C  C55  1  0.57536776  0.22076091  0.18416808  1  0  0.659916  0  3.923903  0  0  0.605536  0  4.223466  0  0  0.640555  0  4.216038  0  0  0.207976  0.581709  0  4.227606  0
N  N56  1  0.77622243  0.80533424  0.60201722  1  0  -0.343427  0  3.240281  0  0  -0.274394  0  3.498063  0  0  -0.291207  0  3.514634  0  0  -0.31838  -0.262312  0  3.486667  0
N  N57  1  0.27622182  0.19465776  0.89798336  1  0  -0.343439  0  3.239999  0  0  -0.274394  0  3.49778  0  0  -0.291204  0  3.51435  0  0  -0.31836  -0.262315  0  3.486396  0
N  N58  1  0.22378287  0.19466734  0.39798381  1  0  -0.343398  0  3.240256  0  0  -0.274411  0  3.498039  0  0  -0.291224  0  3.514607  0  0  -0.318314  -0.262329  0  3.486644  0
N  N59  1  0.72377191  0.80533889  0.10201732  1  0  -0.343447  0  3.240156  0  0  -0.27445  0  3.497971  0  0  -0.291258  0  3.514537  0  0  -0.318405  -0.262369  0  3.486583  0
O  O60  1  0.40058178  0.42406610  0.80182955  1  0  -0.999483  0  1.873701  0  0  -0.892766  0  2.155003  0  0  -0.931648  0  2.118747  0  0  -0.588639  -0.864452  0  2.179779  0
O  O61  1  0.90058799  0.57592919  0.69817051  1  0  -0.999464  0  1.873662  0  0  -0.892739  0  2.154944  0  0  -0.931623  0  2.118691  0  0  -0.58862  -0.864421  0  2.179717  0
O  O62  1  0.59941525  0.57593252  0.19817152  1  0  -0.999481  0  1.873657  0  0  -0.892751  0  2.154943  0  0  -0.931633  0  2.11869  0  0  -0.588618  -0.864433  0  2.179714  0
O  O63  1  0.09941565  0.42407239  0.30183052  1  0  -0.999462  0  1.873726  0  0  -0.892727  0  2.154981  0  0  -0.931612  0  2.118733  0  0  -0.588594  -0.86441  0  2.17975  0
O  O64  1  0.45066506  0.43893633  0.57308689  1  0  -1.014254  0  1.856923  0  0  -0.89718  0  2.13425  0  0  -0.938807  0  2.097196  0  0  -0.596595  -0.867318  0  2.159239  0
O  O65  1  0.95066462  0.56106303  0.92691314  1  0  -1.014241  0  1.856859  0  0  -0.897193  0  2.134229  0  0  -0.938803  0  2.097131  0  0  -0.596596  -0.867333  0  2.159228  0
O  O66  1  0.54933858  0.56106721  0.42691325  1  0  -1.014167  0  1.85688  0  0  -0.897121  0  2.134288  0  0  -0.93872  0  2.097169  0  0  -0.596591  -0.867261  0  2.15928  0
O  O67  1  0.04933077  0.43893461  0.07308838  1  0  -1.014256  0  1.856908  0  0  -0.897204  0  2.134255  0  0  -0.938821  0  2.097176  0  0  -0.596627  -0.867344  0  2.159247  0
O  O68  1  0.07430236  0.62466555  0.50835118  1  0  -0.687091  0  2.136724  0  0  -0.603286  0  2.407586  0  0  -0.636443  0  2.395119  0  0  -0.334195  -0.579999  0  2.41526  0
O  O69  1  0.57429912  0.37532689  0.99164971  1  0  -0.686893  0  2.136918  0  0  -0.603203  0  2.407842  0  0  -0.636356  0  2.395367  0  0  -0.334133  -0.579908  0  2.415487  0
O  O70  1  0.92570623  0.37533606  0.49165245  1  0  -0.686882  0  2.136706  0  0  -0.603074  0  2.407545  0  0  -0.636229  0  2.395081  0  0  -0.33408  -0.579785  0  2.41521  0
O  O71  1  0.42569462  0.62467076  0.00835246  1  0  -0.686932  0  2.136976  0  0  -0.60317  0  2.407848  0  0  -0.636327  0  2.39538  0  0  -0.334123  -0.579878  0  2.415493  0
O  O72  1  0.30425274  0.78489322  0.49468319  1  0  -0.577676  0  1.946712  0  0  -0.523741  0  2.162253  0  0  -0.548429  0  2.155394  0  0  -0.300259  -0.506475  0  2.166504  0
O  O73  1  0.80425432  0.21510336  0.00531691  1  0  -0.577896  0  1.946325  0  0  -0.523982  0  2.161819  0  0  -0.548673  0  2.154959  0  0  -0.300366  -0.506711  0  2.166064  0
O  O74  1  0.69575090  0.21511130  0.50531715  1  0  -0.57771  0  1.946763  0  0  -0.523813  0  2.162315  0  0  -0.548497  0  2.155455  0  0  -0.300324  -0.506552  0  2.166578  0
O  O75  1  0.19574272  0.78489327  0.99468181  1  0  -0.577763  0  1.946562  0  0  -0.52384  0  2.16207  0  0  -0.54853  0  2.155213  0  0  -0.300323  -0.506573  0  2.166316  0
O  O76  1  0.09428617  0.25416498  0.64804070  1  0  -0.637405  0  2.013191  0  0  -0.569512  0  2.263354  0  0  -0.599879  0  2.252732  0  0  -0.3209  -0.548098  0  2.27007  0
O  O77  1  0.59427889  0.74582741  0.85195103  1  0  -0.637432  0  2.013485  0  0  -0.569493  0  2.263562  0  0  -0.599857  0  2.252944  0  0  -0.320925  -0.548086  0  2.270276  0
O  O78  1  0.90570262  0.74583553  0.35195299  1  0  -0.637404  0  2.013114  0  0  -0.569478  0  2.263181  0  0  -0.599846  0  2.252565  0  0  -0.320989  -0.548066  0  2.269894  0
O  O79  1  0.40572640  0.25417624  0.14805820  1  0  -0.637341  0  2.013455  0  0  -0.569382  0  2.263579  0  0  -0.59975  0  2.252969  0  0  -0.320822  -0.547962  0  2.27026  0
O  O80  1  0.80375572  0.29486657  0.74611920  1  0  -0.675928  0  1.983249  0  0  -0.610678  0  2.233853  0  0  -0.638917  0  2.220499  0  0  -0.328579  -0.590309  0  2.242591  0
O  O81  1  0.30375815  0.70512732  0.75386869  1  0  -0.675893  0  1.983194  0  0  -0.610678  0  2.233815  0  0  -0.638921  0  2.220463  0  0  -0.328572  -0.590301  0  2.242544  0
O  O82  1  0.19622811  0.70513684  0.25386990  1  0  -0.675911  0  1.983333  0  0  -0.610698  0  2.233926  0  0  -0.63894  0  2.220573  0  0  -0.328567  -0.590331  0  2.242667  0
O  O83  1  0.69625870  0.29486644  0.24613786  1  0  -0.675985  0  1.983149  0  0  -0.610725  0  2.233784  0  0  -0.638972  0  2.220436  0  0  -0.328652  -0.590353  0  2.242514  0
