# generated using pymatgen
data_CdH12C12(NO3)2
_symmetry_space_group_name_H-M   'P 1'
_cell_length_a   7.23506569
_cell_length_b   8.63166707
_cell_length_c   10.22328974
_cell_angle_alpha   89.99978369
_cell_angle_beta   89.99999783
_cell_angle_gamma   98.49280433
_symmetry_Int_Tables_number   1
_chemical_formula_structural   CdH12C12(NO3)2
_chemical_formula_sum   'Cd2 H24 C24 N4 O12'
_cell_volume   631.45038764
_cell_formula_units_Z   2
loop_
 _symmetry_equiv_pos_site_id
 _symmetry_equiv_pos_as_xyz
  1  'x, y, z'
loop_
 _atom_site_type_symbol
 _atom_site_label
 _atom_site_symmetry_multiplicity
 _atom_site_fract_x
 _atom_site_fract_y
 _atom_site_fract_z
 _atom_site_occupancy
 _atom_site_hle17_bader_spin_density
 _atom_site_hle17_ddec_charge
 _atom_site_hle17_ddec_spin_density
 _atom_site_hle17_ddec_sum_bond_order
 _atom_site_hle17_magmom
 _atom_site_hse06_10hf_bader_spin_density
 _atom_site_hse06_10hf_ddec_charge
 _atom_site_hse06_10hf_ddec_spin_density
 _atom_site_hse06_10hf_ddec_sum_bond_order
 _atom_site_hse06_10hf_magmom
 _atom_site_hse06_bader_spin_density
 _atom_site_hse06_ddec_charge
 _atom_site_hse06_ddec_spin_density
 _atom_site_hse06_ddec_sum_bond_order
 _atom_site_hse06_magmom
 _atom_site_pbe_bader_spin_density
 _atom_site_pbe_cm5_charge
 _atom_site_pbe_ddec_charge
 _atom_site_pbe_ddec_spin_density
 _atom_site_pbe_ddec_sum_bond_order
 _atom_site_pbe_magmom
Cd  Cd0  1  0.00000348  0.49999434  0.50000067  1  0  1.20569  0  1.667226  0  0  1.022677  0  2.125658  0  0  1.075528  0  2.071757  0  0  0.787742  0.981048  0  2.165212  0
Cd  Cd1  1  0.50000244  0.50000002  0.00000115  1  0  1.205681  0  1.667287  0  0  1.022677  0  2.125693  0  0  1.075528  0  2.071792  0  0  0.787738  0.981046  0  2.165253  0
H  H2  1  0.20064964  0.27607263  0.62544696  1  0  0.418209  0  0.888955  0  0  0.384875  0  0.957309  0  0  0.395731  0  0.941582  0  0  0.283773  0.376827  0  0.969012  0
H  H3  1  0.29934330  0.72391899  0.12544280  1  0  0.418159  0  0.889027  0  0  0.384828  0  0.957377  0  0  0.395685  0  0.941647  0  0  0.283758  0.376776  0  0.969083  0
H  H4  1  0.79934721  0.72391468  0.37455831  1  0  0.418174  0  0.888999  0  0  0.384845  0  0.957351  0  0  0.395699  0  0.941626  0  0  0.283765  0.376795  0  0.969056  0
H  H5  1  0.70065423  0.27607888  0.87455366  1  0  0.41823  0  0.888939  0  0  0.38489  0  0.957303  0  0  0.395749  0  0.94157  0  0  0.283774  0.376839  0  0.96901  0
H  H6  1  0.02368419  0.28594712  0.71898239  1  0  0.423325  0  0.883269  0  0  0.387856  0  0.953864  0  0  0.400021  0  0.936292  0  0  0.280772  0.37847  0  0.967406  0
H  H7  1  0.47631533  0.71404281  0.21897142  1  0  0.423385  0  0.883209  0  0  0.38783  0  0.953914  0  0  0.399989  0  0.936352  0  0  0.280784  0.378444  0  0.967455  0
H  H8  1  0.97631816  0.71404716  0.28102776  1  0  0.42337  0  0.883209  0  0  0.387803  0  0.953945  0  0  0.399965  0  0.936377  0  0  0.280752  0.378416  0  0.967486  0
H  H9  1  0.52368473  0.28595385  0.78102113  1  0  0.423362  0  0.883219  0  0  0.387794  0  0.95396  0  0  0.399956  0  0.936392  0  0  0.280743  0.378407  0  0.967504  0
H  H10  1  0.86566279  0.14392121  0.45054163  1  0  0.075927  0  0.955242  0  0  0.085551  0  1.018992  0  0  0.087986  0  1.016337  0  0  0.11363  0.083714  0  1.02097  0
H  H11  1  0.63434615  0.85608247  0.95053316  1  0  0.075997  0  0.955182  0  0  0.085602  0  1.018956  0  0  0.088043  0  1.016285  0  0  0.113636  0.083773  0  1.020912  0
H  H12  1  0.13433566  0.85607430  0.54946070  1  0  0.075954  0  0.955237  0  0  0.085576  0  1.018988  0  0  0.088009  0  1.016341  0  0  0.113622  0.08374  0  1.020972  0
H  H13  1  0.36566654  0.14392224  0.04945743  1  0  0.076004  0  0.955212  0  0  0.085616  0  1.018969  0  0  0.088054  0  1.01631  0  0  0.113641  0.08378  0  1.020945  0
H  H14  1  0.75446551  0.95608910  0.26888255  1  0  0.11966  0  0.96213  0  0  0.127493  0  1.021682  0  0  0.131264  0  1.020335  0  0  0.109982  0.124899  0  1.022611  0
H  H15  1  0.74553095  0.04391440  0.76887181  1  0  0.119639  0  0.962183  0  0  0.127442  0  1.021739  0  0  0.131209  0  1.020395  0  0  0.109994  0.124856  0  1.022641  0
H  H16  1  0.24552855  0.04391939  0.73111684  1  0  0.119589  0  0.962242  0  0  0.127434  0  1.021772  0  0  0.131205  0  1.020424  0  0  0.10995  0.124845  0  1.022683  0
H  H17  1  0.25447277  0.95608691  0.23111682  1  0  0.11967  0  0.962121  0  0  0.127466  0  1.021724  0  0  0.131238  0  1.020375  0  0  0.109965  0.124876  0  1.022639  0
H  H18  1  0.83204036  0.04216387  0.03634538  1  0  0.095906  0  0.949093  0  0  0.107126  0  1.011371  0  0  0.109689  0  1.009268  0  0  0.109239  0.105386  0  1.012719  0
H  H19  1  0.66795403  0.95783602  0.53633169  1  0  0.095872  0  0.948975  0  0  0.107086  0  1.011296  0  0  0.109673  0  1.009166  0  0  0.109225  0.105347  0  1.012642  0
H  H20  1  0.16795303  0.95783406  0.96365989  1  0  0.095855  0  0.949056  0  0  0.107065  0  1.011361  0  0  0.109635  0  1.009251  0  0  0.109219  0.105326  0  1.012708  0
H  H21  1  0.33204511  0.04216300  0.46365793  1  0  0.095905  0  0.949052  0  0  0.107117  0  1.011343  0  0  0.10972  0  1.009193  0  0  0.109247  0.105378  0  1.012692  0
H  H22  1  0.12082309  0.47489560  0.19148945  1  0  0.083093  0  0.957607  0  0  0.087573  0  1.030007  0  0  0.091014  0  1.025839  0  0  0.117637  0.08535  0  1.03254  0
H  H23  1  0.37918425  0.52510610  0.69148303  1  0  0.08311  0  0.957611  0  0  0.08759  0  1.030011  0  0  0.091028  0  1.025849  0  0  0.117648  0.085366  0  1.032547  0
H  H24  1  0.87917857  0.52510221  0.80851581  1  0  0.083074  0  0.957592  0  0  0.08755  0  1.029983  0  0  0.09099  0  1.025816  0  0  0.117624  0.085326  0  1.03252  0
H  H25  1  0.62082568  0.47489160  0.30851734  1  0  0.083074  0  0.957582  0  0  0.087555  0  1.029998  0  0  0.090994  0  1.025835  0  0  0.117628  0.085332  0  1.032532  0
C  C26  1  0.89432188  0.17340972  0.34820857  1  0  0.127129  0  3.717183  0  0  0.094023  0  3.970571  0  0  0.101522  0  3.989875  0  0  0.04518  0.089816  0  3.956904  0
C  C27  1  0.60567405  0.82659108  0.84819922  1  0  0.127012  0  3.717314  0  0  0.093892  0  3.970699  0  0  0.101394  0  3.989998  0  0  0.045176  0.08969  0  3.957029  0
C  C28  1  0.10567633  0.82659167  0.65179375  1  0  0.126958  0  3.717309  0  0  0.093808  0  3.970741  0  0  0.101308  0  3.990042  0  0  0.045135  0.0896  0  3.957072  0
C  C29  1  0.39432714  0.17341144  0.15179235  1  0  0.126904  0  3.717384  0  0  0.093805  0  3.970764  0  0  0.101303  0  3.99007  0  0  0.045144  0.0896  0  3.957093  0
C  C30  1  0.83544498  0.06970390  0.24721972  1  0  -0.116399  0  3.716855  0  0  -0.127037  0  3.972272  0  0  -0.134937  0  3.993732  0  0  -0.083341  -0.121856  0  3.957371  0
C  C31  1  0.66454897  0.93030090  0.74721199  1  0  -0.116355  0  3.7167  0  0  -0.12693  0  3.972096  0  0  -0.134822  0  3.993553  0  0  -0.083289  -0.121748  0  3.957206  0
C  C32  1  0.16455552  0.93030215  0.75278065  1  0  -0.116261  0  3.716751  0  0  -0.126877  0  3.972144  0  0  -0.134774  0  3.993605  0  0  -0.083247  -0.121695  0  3.957254  0
C  C33  1  0.33544809  0.06970167  0.25278055  1  0  -0.116302  0  3.716787  0  0  -0.126903  0  3.972198  0  0  -0.134804  0  3.993671  0  0  -0.083268  -0.12172  0  3.957297  0
C  C34  1  0.87889150  0.11701177  0.11928529  1  0  -0.001798  0  3.683277  0  0  -0.033526  0  3.935266  0  0  -0.027767  0  3.952433  0  0  -0.060473  -0.037833  0  3.923676  0
C  C35  1  0.62110235  0.88298540  0.61927869  1  0  -0.001772  0  3.683264  0  0  -0.03356  0  3.93526  0  0  -0.027822  0  3.952422  0  0  -0.060557  -0.037867  0  3.92367  0
C  C36  1  0.12110603  0.88298610  0.88071508  1  0  -0.001687  0  3.683143  0  0  -0.033431  0  3.935159  0  0  -0.027678  0  3.952325  0  0  -0.060464  -0.037739  0  3.923571  0
C  C37  1  0.37889610  0.11701011  0.38071777  1  0  -0.001799  0  3.683164  0  0  -0.033526  0  3.935168  0  0  -0.0278  0  3.952326  0  0  -0.060493  -0.037835  0  3.923579  0
C  C38  1  0.98681815  0.26251372  0.09665633  1  0  -0.125969  0  3.74753  0  0  -0.100238  0  3.987425  0  0  -0.112927  0  4.010841  0  0  -0.015475  -0.091962  0  3.971901  0
C  C39  1  0.51317548  0.73748942  0.59664824  1  0  -0.125972  0  3.747862  0  0  -0.100117  0  3.987662  0  0  -0.112807  0  4.011091  0  0  -0.015366  -0.091839  0  3.972135  0
C  C40  1  0.01317868  0.73748768  0.90334893  1  0  -0.125982  0  3.747601  0  0  -0.100235  0  3.987487  0  0  -0.112925  0  4.010909  0  0  -0.015448  -0.091957  0  3.971962  0
C  C41  1  0.48682158  0.26251315  0.40334626  1  0  -0.125937  0  3.747473  0  0  -0.100179  0  3.987364  0  0  -0.112871  0  4.010798  0  0  -0.015435  -0.091902  0  3.971839  0
C  C42  1  0.03946309  0.35933851  0.20422820  1  0  0.140852  0  3.669496  0  0  0.099156  0  3.923733  0  0  0.108773  0  3.940112  0  0  0.056148  0.09281  0  3.911976  0
C  C43  1  0.46053850  0.64066203  0.70422043  1  0  0.140696  0  3.66976  0  0  0.099  0  3.923913  0  0  0.108604  0  3.940323  0  0  0.056055  0.092655  0  3.912156  0
C  C44  1  0.96053581  0.64065934  0.79577804  1  0  0.140771  0  3.669602  0  0  0.099116  0  3.923758  0  0  0.108723  0  3.940161  0  0  0.056117  0.09277  0  3.912002  0
C  C45  1  0.53946385  0.35933929  0.29577505  1  0  0.140819  0  3.669436  0  0  0.099084  0  3.923737  0  0  0.108698  0  3.940123  0  0  0.056088  0.092739  0  3.911979  0
C  C46  1  0.04184990  0.31468258  0.96011901  1  0  0.670595  0  3.904695  0  0  0.612111  0  4.206096  0  0  0.646886  0  4.198729  0  0  0.213929  0.588462  0  4.210239  0
C  C47  1  0.45814433  0.68531573  0.46011106  1  0  0.670648  0  3.904548  0  0  0.612143  0  4.205943  0  0  0.646903  0  4.198583  0  0  0.213994  0.588496  0  4.210078  0
C  C48  1  0.95814509  0.68532355  0.03988919  1  0  0.670465  0  3.9048  0  0  0.611981  0  4.206189  0  0  0.646751  0  4.198825  0  0  0.213828  0.588333  0  4.210327  0
C  C49  1  0.54185595  0.31468211  0.53988540  1  0  0.67061  0  3.904598  0  0  0.612152  0  4.205947  0  0  0.64692  0  4.198586  0  0  0.213986  0.588504  0  4.210089  0
N  N50  1  0.99030690  0.31740842  0.32707620  1  0  -0.349418  0  3.249145  0  0  -0.271992  0  3.517645  0  0  -0.292622  0  3.536426  0  0  -0.329153  -0.256808  0  3.503838  0
N  N51  1  0.50969548  0.68259708  0.82707025  1  0  -0.349277  0  3.249175  0  0  -0.271844  0  3.517685  0  0  -0.292474  0  3.536465  0  0  -0.329109  -0.256661  0  3.503877  0
N  N52  1  0.00969705  0.68259406  0.67293004  1  0  -0.349248  0  3.24914  0  0  -0.271812  0  3.517617  0  0  -0.292438  0  3.536393  0  0  -0.329098  -0.256626  0  3.503811  0
N  N53  1  0.49031031  0.31740772  0.17292621  1  0  -0.349295  0  3.249095  0  0  -0.271857  0  3.517609  0  0  -0.292484  0  3.536391  0  0  -0.32913  -0.25667  0  3.503795  0
O  O54  1  0.93308787  0.25681117  0.86787384  1  0  -0.655217  0  2.010556  0  0  -0.581233  0  2.225936  0  0  -0.608156  0  2.215751  0  0  -0.311221  -0.562061  0  2.2328  0
O  O55  1  0.56691035  0.74318716  0.36786376  1  0  -0.655244  0  2.010286  0  0  -0.581329  0  2.225806  0  0  -0.608197  0  2.215572  0  0  -0.311333  -0.56215  0  2.23267  0
O  O56  1  0.06691310  0.74319017  0.13213142  1  0  -0.655146  0  2.010594  0  0  -0.581173  0  2.226036  0  0  -0.608076  0  2.215838  0  0  -0.311235  -0.561995  0  2.232898  0
O  O57  1  0.43309246  0.25680947  0.63213172  1  0  -0.655252  0  2.01041  0  0  -0.581287  0  2.225874  0  0  -0.608169  0  2.215636  0  0  -0.311292  -0.562114  0  2.232739  0
O  O58  1  0.18862910  0.41123382  0.94186641  1  0  -0.651433  0  2.015716  0  0  -0.588248  0  2.279076  0  0  -0.616398  0  2.268394  0  0  -0.328747  -0.568369  0  2.286082  0
O  O59  1  0.31136929  0.58876451  0.44185878  1  0  -0.651444  0  2.015763  0  0  -0.588296  0  2.279232  0  0  -0.616452  0  2.268561  0  0  -0.328776  -0.568415  0  2.286232  0
O  O60  1  0.81136313  0.58877234  0.05814765  1  0  -0.651406  0  2.015709  0  0  -0.58827  0  2.279169  0  0  -0.616425  0  2.268493  0  0  -0.328681  -0.568387  0  2.28617  0
O  O61  1  0.68863215  0.41123214  0.55813866  1  0  -0.651455  0  2.015764  0  0  -0.588309  0  2.27918  0  0  -0.616462  0  2.268501  0  0  -0.328771  -0.568429  0  2.286183  0
O  O62  1  0.06687969  0.29113831  0.62535890  1  0  -0.857304  0  1.864801  0  0  -0.794827  0  2.072872  0  0  -0.817854  0  2.037918  0  0  -0.595742  -0.777362  0  2.098353  0
O  O63  1  0.43311624  0.70885444  0.12534794  1  0  -0.857321  0  1.864878  0  0  -0.794704  0  2.072994  0  0  -0.817735  0  2.03805  0  0  -0.595715  -0.777265  0  2.098534  0
O  O64  1  0.93311900  0.70885132  0.37465125  1  0  -0.857324  0  1.864818  0  0  -0.794685  0  2.072858  0  0  -0.817718  0  2.03792  0  0  -0.595705  -0.777252  0  2.098409  0
O  O65  1  0.56688496  0.29114807  0.87464460  1  0  -0.857358  0  1.864758  0  0  -0.794763  0  2.07287  0  0  -0.817791  0  2.03792  0  0  -0.595703  -0.777315  0  2.098389  0
