# generated using pymatgen
data_ZnH4C7(NO2)4
_symmetry_space_group_name_H-M   'P 1'
_cell_length_a   7.94234736
_cell_length_b   8.99503438
_cell_length_c   14.08083679
_cell_angle_alpha   85.04798939
_cell_angle_beta   74.85303853
_cell_angle_gamma   85.35410399
_symmetry_Int_Tables_number   1
_chemical_formula_structural   ZnH4C7(NO2)4
_chemical_formula_sum   'Zn2 H8 C14 N8 O16'
_cell_volume   965.59801536
_cell_formula_units_Z   2
loop_
 _symmetry_equiv_pos_site_id
 _symmetry_equiv_pos_as_xyz
  1  'x, y, z'
loop_
 _atom_site_type_symbol
 _atom_site_label
 _atom_site_symmetry_multiplicity
 _atom_site_fract_x
 _atom_site_fract_y
 _atom_site_fract_z
 _atom_site_occupancy
 _atom_site_pbe_bader_charge
 _atom_site_pbe_bader_spin_density
 _atom_site_pbe_cm5_charge
 _atom_site_pbe_ddec_charge
 _atom_site_pbe_ddec_spin_density
 _atom_site_pbe_ddec_sum_bond_order
 _atom_site_pbe_magmom
Zn  Zn0  1  0.69623472  0.50769722  0.47887936  1  1.313635  0  0.705468  0.830982  0  2.362905  0
Zn  Zn1  1  0.30367054  0.49215354  0.52128236  1  1.313213  0  0.705346  0.830754  0  2.363043  0
H  H2  1  0.86764008  0.30769113  0.56487548  1  0.48115  0  0.317414  0.244915  0  1.000556  0
H  H3  1  0.94004831  0.20413902  0.70839360  1  0.112077  0  0.1205  0.148194  0  0.955567  0
H  H4  1  0.90907006  0.39971650  0.72994270  1  0.063301  0  0.096709  0.11359  0  1.007601  0
H  H5  1  0.12366558  0.31402722  0.68644280  1  0.103159  0  0.10649  0.130179  0  1.008025  0
H  H6  1  0.13263624  0.69178175  0.43458149  1  0.483851  0  0.317679  0.24531  0  0.999661  0
H  H7  1  0.06010310  0.79523461  0.29102252  1  0.11277  0  0.120559  0.147894  0  0.955693  0
H  H8  1  0.87659326  0.68514314  0.31304111  1  0.103672  0  0.106774  0.130751  0  1.007417  0
H  H9  1  0.09127599  0.59950908  0.26967696  1  0.059032  0  0.096985  0.113037  0  1.005515  0
C  C10  1  0.45678566  0.78941602  0.48842192  1  1.656332  0  0.229336  0.600414  0  4.187703  0
C  C11  1  0.54313012  0.21039986  0.51169058  1  1.659047  0  0.22972  0.600904  0  4.188656  0
C  C12  1  0.53076662  0.48845067  0.31477752  1  1.703229  0  0.231571  0.65587  0  4.235723  0
C  C13  1  0.46926449  0.51160879  0.68540748  1  1.702826  0  0.231837  0.656165  0  4.234828  0
C  C14  1  0.45308183  0.50908118  0.79010779  1  -0.161896  0  0.007772  -0.074016  0  3.83231  0
C  C15  1  0.54686627  0.49136355  0.21007631  1  -0.171459  0  0.008189  -0.073786  0  3.833054  0
C  C16  1  0.43404066  0.49511213  0.97834039  1  0.277455  0  0.105474  0.060431  0  3.996196  0
C  C17  1  0.56648623  0.50529252  0.02179615  1  0.37388  0  0.105429  0.058176  0  3.999565  0
C  C18  1  0.55544536  0.49786482  0.12209174  1  0.028572  0  -0.023966  -0.057923  0  4.118125  0
C  C19  1  0.44467199  0.50296903  0.87806995  1  0.020098  0  -0.023726  -0.05796  0  4.115308  0
C  C20  1  0.43692673  0.95533665  0.49844397  1  0.319303  0  0.095989  -0.060519  0  3.801744  0
C  C21  1  0.56298976  0.04449137  0.50160312  1  0.220529  0  0.09641  -0.060373  0  3.802725  0
C  C22  1  0.98769462  0.31505287  0.68243321  1  0.239933  0  -0.134874  -0.256459  0  3.913974  0
C  C23  1  0.01255454  0.68430539  0.31708706  1  0.238426  0  -0.134882  -0.25647  0  3.915121  0
N  N24  1  0.04250271  0.46609975  0.52954161  1  -0.197854  0  -0.092778  -0.018557  0  3.499831  0
N  N25  1  0.95762138  0.53355074  0.47012072  1  -0.183596  0  -0.092521  -0.019108  0  3.499022  0
N  N26  1  0.74540165  0.52913560  0.95452031  1  0.46707  0  0.075154  0.515408  0  4.218505  0
N  N27  1  0.25489182  0.47271929  0.04592612  1  0.471617  0  0.075481  0.51462  0  4.217395  0
N  N28  1  0.25509261  0.01729871  0.50773807  1  0.479377  0  0.060119  0.533154  0  4.266202  0
N  N29  1  0.74477017  0.98250973  0.49228611  1  0.479319  0  0.060273  0.53334  0  4.266594  0
N  N30  1  0.97685589  0.34137309  0.58069226  1  -0.671543  0  -0.316779  -0.135683  0  3.545667  0
N  N31  1  0.02328383  0.65823118  0.41887534  1  -0.652892  0  -0.317645  -0.136944  0  3.545052  0
O  O32  1  0.61049903  0.73086771  0.47276799  1  -1.145465  0  -0.290892  -0.512871  0  2.384751  0
O  O33  1  0.38942280  0.26893240  0.52731403  1  -1.146168  0  -0.290736  -0.512666  0  2.385443  0
O  O34  1  0.31631452  0.72468369  0.49812457  1  -1.162771  0  -0.300815  -0.531388  0  2.3511  0
O  O35  1  0.68356181  0.27515070  0.50206967  1  -1.163841  0  -0.301225  -0.531968  0  2.352347  0
O  O36  1  0.67266464  0.48902209  0.34063988  1  -1.130036  0  -0.295827  -0.516831  0  2.297299  0
O  O37  1  0.32737463  0.51076576  0.65953634  1  -1.128323  0  -0.29551  -0.516799  0  2.296026  0
O  O38  1  0.37596018  0.48670041  0.36962354  1  -1.135982  0  -0.296857  -0.526578  0  2.30188  0
O  O39  1  0.62411246  0.51327700  0.63054903  1  -1.135416  0  -0.29697  -0.52652  0  2.300422  0
O  O40  1  0.78917465  0.65889692  0.94086995  1  -0.395374  0  -0.096511  -0.277387  0  1.850179  0
O  O41  1  0.83169541  0.41666937  0.92089111  1  -0.410245  0  -0.098089  -0.288754  0  1.887393  0
O  O42  1  0.21602923  0.34238375  0.06804821  1  -0.393976  0  -0.097262  -0.278734  0  1.848817  0
O  O43  1  0.16359978  0.58699925  0.07133363  1  -0.411827  0  -0.09757  -0.286062  0  1.880169  0
O  O44  1  0.15787551  0.01323046  0.59162220  1  -0.434676  0  -0.096134  -0.282184  0  1.930527  0
O  O45  1  0.21602942  0.05868003  0.43009917  1  -0.407847  0  -0.109234  -0.292484  0  1.885516  0
O  O46  1  0.84202412  0.98662677  0.40841561  1  -0.433655  0  -0.096273  -0.282097  0  1.930133  0
O  O47  1  0.78388089  0.94116251  0.56992024  1  -0.408031  0  -0.109604  -0.292968  0  1.885029  0
