# generated using pymatgen
data_ZnPH6C3NO5
_symmetry_space_group_name_H-M   'P 1'
_cell_length_a   8.25824903
_cell_length_b   8.81967281
_cell_length_c   9.79534434
_cell_angle_alpha   90.00042865
_cell_angle_beta   89.99996910
_cell_angle_gamma   109.37287433
_symmetry_Int_Tables_number   1
_chemical_formula_structural   ZnPH6C3NO5
_chemical_formula_sum   'Zn4 P4 H24 C12 N4 O20'
_cell_volume   673.04907679
_cell_formula_units_Z   4
loop_
 _symmetry_equiv_pos_site_id
 _symmetry_equiv_pos_as_xyz
  1  'x, y, z'
loop_
 _atom_site_type_symbol
 _atom_site_label
 _atom_site_symmetry_multiplicity
 _atom_site_fract_x
 _atom_site_fract_y
 _atom_site_fract_z
 _atom_site_occupancy
 _atom_site_pbe_bader_spin_density
 _atom_site_pbe_cm5_charge
 _atom_site_pbe_ddec_charge
 _atom_site_pbe_ddec_spin_density
 _atom_site_pbe_ddec_sum_bond_order
 _atom_site_pbe_magmom
Zn  Zn0  1  0.65426615  0.64274091  0.81437257  1  0  0.711965  1.043956  0  2.324552  0
Zn  Zn1  1  0.65426822  0.14274318  0.68562809  1  0  0.711939  1.043901  0  2.324573  0
Zn  Zn2  1  0.34573390  0.35725913  0.18562911  1  0  0.711917  1.043952  0  2.324733  0
Zn  Zn3  1  0.34573674  0.85726046  0.31437359  1  0  0.711979  1.044032  0  2.324512  0
P  P4  1  0.42867913  0.72157129  0.04535041  1  0  0.330665  1.318775  0  5.446474  0
P  P5  1  0.42867855  0.22157000  0.45465235  1  0  0.330542  1.318572  0  5.446776  0
P  P6  1  0.57131971  0.27842875  0.95464923  1  0  0.33059  1.318631  0  5.446586  0
P  P7  1  0.57132314  0.77843124  0.54534933  1  0  0.330597  1.318585  0  5.446725  0
H  H8  1  0.10755582  0.89579365  0.03184159  1  0  0.309264  0.309841  0  0.941785  0
H  H9  1  0.10755371  0.39579489  0.46815739  1  0  0.309277  0.309831  0  0.941733  0
H  H10  1  0.89244259  0.10420520  0.96815805  1  0  0.309247  0.309815  0  0.941817  0
H  H11  1  0.89244271  0.60420516  0.53184225  1  0  0.309246  0.309829  0  0.941822  0
H  H12  1  0.14862709  0.01510012  0.89311206  1  0  0.312255  0.313409  0  0.934201  0
H  H13  1  0.14862576  0.51509956  0.60689002  1  0  0.31224  0.31339  0  0.934228  0
H  H14  1  0.85137132  0.98489873  0.10688758  1  0  0.312218  0.313298  0  0.934244  0
H  H15  1  0.85137343  0.48489808  0.39311064  1  0  0.3122  0.313281  0  0.934289  0
H  H16  1  0.31029246  0.00035595  0.98965478  1  0  0.318156  0.325951  0  0.922884  0
H  H17  1  0.31029573  0.50035451  0.51034815  1  0  0.318146  0.325936  0  0.922877  0
H  H18  1  0.68970602  0.99964650  0.01034486  1  0  0.318166  0.325936  0  0.92287  0
H  H19  1  0.68970311  0.49964554  0.48965251  1  0  0.31815  0.325953  0  0.922843  0
H  H20  1  0.21972935  0.56156954  0.88715596  1  0  0.111769  0.154523  0  0.980987  0
H  H21  1  0.21973038  0.06156874  0.61284028  1  0  0.111752  0.154493  0  0.981047  0
H  H22  1  0.78027155  0.43843291  0.11284266  1  0  0.111758  0.154522  0  0.980941  0
H  H23  1  0.78026639  0.93842890  0.38715630  1  0  0.111766  0.154529  0  0.980954  0
H  H24  1  0.12017052  0.62349252  0.02695161  1  0  0.106211  0.143343  0  0.998273  0
H  H25  1  0.12017440  0.12349019  0.47304450  1  0  0.106222  0.143343  0  0.998272  0
H  H26  1  0.87982754  0.37650873  0.97304599  1  0  0.106224  0.143365  0  0.998274  0
H  H27  1  0.87982815  0.87651345  0.52695309  1  0  0.106222  0.143354  0  0.998265  0
H  H28  1  0.31015253  0.84493714  0.79269773  1  0  0.124654  0.103893  0  0.968974  0
H  H29  1  0.31015010  0.34493360  0.70730446  1  0  0.124638  0.103904  0  0.968993  0
H  H30  1  0.68984717  0.15506531  0.20730191  1  0  0.124641  0.103886  0  0.969001  0
H  H31  1  0.68985194  0.65506523  0.29269416  1  0  0.124612  0.103853  0  0.969048  0
C  C32  1  0.22563674  0.66465374  0.95243936  1  0  -0.167666  -0.502517  0  3.8937  0
C  C33  1  0.22563752  0.16464874  0.54755757  1  0  -0.167615  -0.502398  0  3.893651  0
C  C34  1  0.77436175  0.33534871  0.04755926  1  0  -0.167632  -0.502482  0  3.893557  0
C  C35  1  0.77436252  0.83535130  0.45244003  1  0  -0.167632  -0.502471  0  3.89362  0
C  C36  1  0.20105962  0.79848298  0.86302693  1  0  0.016308  0.078855  0  3.759258  0
C  C37  1  0.20105943  0.29847880  0.63696989  1  0  0.016271  0.078712  0  3.759421  0
C  C38  1  0.79894085  0.20151826  0.13697169  1  0  0.016261  0.078698  0  3.75923  0
C  C39  1  0.79894054  0.70151763  0.36302975  1  0  0.016334  0.078867  0  3.75934  0
C  C40  1  0.03353079  0.72709519  0.78223426  1  0  0.217599  0.577113  0  4.187252  0
C  C41  1  0.03353600  0.22708932  0.71776317  1  0  0.217507  0.577072  0  4.187395  0
C  C42  1  0.96646266  0.27291690  0.21777661  1  0  0.217641  0.577175  0  4.187756  0
C  C43  1  0.96646284  0.77291072  0.28223034  1  0  0.217595  0.577022  0  4.187702  0
N  N44  1  0.19148623  0.93512200  0.94905704  1  0  -0.605996  -0.452976  0  3.388172  0
N  N45  1  0.19148710  0.43512064  0.55094377  1  0  -0.605976  -0.452899  0  3.388164  0
N  N46  1  0.80851226  0.06488045  0.05094056  1  0  -0.605961  -0.452789  0  3.388164  0
N  N47  1  0.80851217  0.56488061  0.44905893  1  0  -0.605948  -0.452879  0  3.388251  0
O  O48  1  0.42861112  0.58057207  0.13477201  1  0  -0.386951  -0.785443  0  2.422313  0
O  O49  1  0.42862056  0.08057836  0.36523185  1  0  -0.386926  -0.785392  0  2.422391  0
O  O50  1  0.57138039  0.41942439  0.86523069  1  0  -0.386952  -0.785394  0  2.422343  0
O  O51  1  0.57138561  0.91942528  0.63476779  1  0  -0.386971  -0.785364  0  2.422393  0
O  O52  1  0.57446314  0.77292750  0.94019097  1  0  -0.380281  -0.752433  0  2.348349  0
O  O53  1  0.57445963  0.27292744  0.55981572  1  0  -0.380245  -0.75235  0  2.348326  0
O  O54  1  0.42553448  0.22707255  0.05981480  1  0  -0.380234  -0.752357  0  2.348184  0
O  O55  1  0.42553515  0.72707142  0.44018596  1  0  -0.380221  -0.752352  0  2.348222  0
O  O56  1  0.43860482  0.87171080  0.13062306  1  0  -0.383539  -0.757566  0  2.320848  0
O  O57  1  0.43860237  0.37170754  0.36937765  1  0  -0.383477  -0.757487  0  2.320903  0
O  O58  1  0.56139281  0.12828925  0.86937862  1  0  -0.383486  -0.75745  0  2.320859  0
O  O59  1  0.56139767  0.62829250  0.63062199  1  0  -0.383474  -0.757465  0  2.32089  0
O  O60  1  0.90409271  0.75464360  0.83413841  1  0  -0.323203  -0.563985  0  2.364302  0
O  O61  1  0.90409786  0.25464087  0.66586086  1  0  -0.323139  -0.56399  0  2.364246  0
O  O62  1  0.09591866  0.24535762  0.16585613  1  0  -0.323261  -0.564105  0  2.363646  0
O  O63  1  0.09591195  0.74536276  0.33415307  1  0  -0.323263  -0.564075  0  2.363903  0
O  O64  1  0.03528073  0.64518161  0.67733313  1  0  -0.311189  -0.554792  0  2.21469  0
O  O65  1  0.03527574  0.14517793  0.82266273  1  0  -0.311162  -0.554716  0  2.21475  0
O  O66  1  0.96471753  0.35481002  0.32265120  1  0  -0.311171  -0.554649  0  2.215905  0
O  O67  1  0.96472592  0.85480287  0.17733793  1  0  -0.311173  -0.554614  0  2.215395  0
