# generated using pymatgen
data_MnH5C4NO4
_symmetry_space_group_name_H-M   'P 1'
_cell_length_a   8.31826897
_cell_length_b   9.46898001
_cell_length_c   15.09090015
_cell_angle_alpha   89.99984180
_cell_angle_beta   89.99978387
_cell_angle_gamma   90.00006234
_symmetry_Int_Tables_number   1
_chemical_formula_structural   MnH5C4NO4
_chemical_formula_sum   'Mn8 H40 C32 N8 O32'
_cell_volume   1188.64263746
_cell_formula_units_Z   8
loop_
 _symmetry_equiv_pos_site_id
 _symmetry_equiv_pos_as_xyz
  1  'x, y, z'
loop_
 _atom_site_type_symbol
 _atom_site_label
 _atom_site_symmetry_multiplicity
 _atom_site_fract_x
 _atom_site_fract_y
 _atom_site_fract_z
 _atom_site_occupancy
 _atom_site_hle17_ddec_charge
 _atom_site_hle17_ddec_spin_density
 _atom_site_hle17_ddec_sum_bond_order
 _atom_site_hle17_magmom
 _atom_site_hse06_10hf_ddec_charge
 _atom_site_hse06_10hf_ddec_spin_density
 _atom_site_hse06_10hf_ddec_sum_bond_order
 _atom_site_hse06_10hf_magmom
 _atom_site_hse06_ddec_charge
 _atom_site_hse06_ddec_spin_density
 _atom_site_hse06_ddec_sum_bond_order
 _atom_site_hse06_magmom
 _atom_site_pbe_cm5_charge
 _atom_site_pbe_ddec_charge
 _atom_site_pbe_ddec_spin_density
 _atom_site_pbe_ddec_sum_bond_order
 _atom_site_pbe_magmom
Mn  Mn0  1  0.10088769  0.44746975  0.39916523  1  1.183002  4.794268  1.743066  4.679  1.014608  4.726035  2.242015  4.545  1.077571  4.764719  2.169394  4.603  0.598514  0.964318  4.688281  2.297052  4.489
Mn  Mn1  1  0.39911637  0.55252341  0.89916349  1  1.182921  4.794348  1.742969  4.679  1.014503  4.726114  2.241915  4.545  1.077469  4.764795  2.169299  4.603  0.598521  0.964206  4.688365  2.296958  4.489
Mn  Mn2  1  0.89911519  0.94746974  0.10083583  1  1.183024  4.794272  1.743046  4.679  1.0146  4.726041  2.242019  4.545  1.077562  4.764727  2.169398  4.603  0.598506  0.964311  4.68829  2.297057  4.489
Mn  Mn3  1  0.60088142  0.05252416  0.60083757  1  1.182943  4.794349  1.742913  4.679  1.014528  4.726115  2.241854  4.545  1.07749  4.764796  2.16924  4.603  0.598517  0.964233  4.688373  2.296881  4.489
Mn  Mn4  1  0.89911204  0.55253064  0.60083484  1  1.182985  4.794265  1.743064  4.679  1.014596  4.72603  2.242005  4.545  1.077557  4.764715  2.169388  4.603  0.598492  0.964313  4.688283  2.297024  4.489
Mn  Mn5  1  0.60088456  0.44747804  0.10083657  1  1.182908  4.794355  1.742981  4.679  1.014486  4.726117  2.241924  4.545  1.07745  4.764797  2.16931  4.603  0.598504  0.964192  4.688371  2.296955  4.489
Mn  Mn6  1  0.10088455  0.05252960  0.89916490  1  1.183006  4.794275  1.743082  4.679  1.014592  4.726045  2.242052  4.545  1.077557  4.76473  2.16943  4.603  0.598497  0.964299  4.688294  2.297092  4.489
Mn  Mn7  1  0.39911952  0.94747518  0.39916315  1  1.18292  4.794348  1.742938  4.679  1.014506  4.726118  2.241876  4.545  1.077473  4.764799  2.16926  4.603  0.598502  0.964214  4.688372  2.296906  4.489
H  H8  1  0.02735213  0.19738069  0.30546137  1  0.261618  -0.000299  0.937663  0.0  0.24808  0.000631  1.003033  0.001  0.254971  0.000284  0.998108  0.001  0.294441  0.24305  0.000993  1.006665  0.001
H  H9  1  0.47264897  0.80261817  0.80545772  1  0.261572  -0.000301  0.937714  0.0  0.248067  0.000631  1.003047  0.001  0.254959  0.000284  0.998121  0.001  0.294445  0.243032  0.000995  1.006686  0.001
H  H10  1  0.97264925  0.69738139  0.19453880  1  0.261636  -0.0003  0.937695  0.0  0.248093  0.000631  1.00307  0.001  0.254984  0.000284  0.998144  0.001  0.294451  0.243062  0.000994  1.006701  0.001
H  H11  1  0.52735153  0.30261738  0.69454092  1  0.261621  -0.000301  0.937673  0.0  0.248122  0.000631  1.002984  0.001  0.255013  0.000284  0.998058  0.001  0.294471  0.24309  0.000995  1.006619  0.001
H  H12  1  0.97264881  0.80261865  0.69453870  1  0.261641  -0.000297  0.937688  0.0  0.248089  0.000631  1.003071  0.001  0.254981  0.000284  0.998146  0.001  0.294449  0.243059  0.000995  1.006698  0.001
H  H13  1  0.52735197  0.19738223  0.19454168  1  0.261597  -0.0003  0.937687  0.0  0.248081  0.000631  1.00303  0.001  0.254974  0.000285  0.998104  0.001  0.294447  0.243052  0.000994  1.006663  0.001
H  H14  1  0.02735169  0.30261901  0.80546127  1  0.261633  -0.000298  0.937658  0.0  0.248099  0.000631  1.003014  0.001  0.254991  0.000284  0.998088  0.001  0.29445  0.243065  0.000995  1.006641  0.001
H  H15  1  0.47264941  0.69738196  0.30545848  1  0.261606  -0.000297  0.937683  0.0  0.248102  0.000631  1.003021  0.001  0.254995  0.000284  0.998094  0.001  0.294446  0.243063  0.000994  1.006663  0.001
H  H16  1  0.71144643  0.31968562  0.31421549  1  0.104686  -0.000315  0.900878  0.0  0.127041  -7.7e-05  0.948654  0.0  0.128118  -0.000198  0.948737  0.0  0.121036  0.126015  9e-05  0.949142  0.0
H  H17  1  0.78855594  0.68031263  0.81421377  1  0.104697  -0.000314  0.900818  0.0  0.127052  -7.7e-05  0.948597  0.0  0.128129  -0.000198  0.948681  0.0  0.121049  0.126014  8.7e-05  0.949101  0.0
H  H18  1  0.28855269  0.81968464  0.18578446  1  0.104706  -0.000313  0.900876  0.0  0.127048  -7.8e-05  0.948646  0.0  0.128125  -0.000198  0.94873  0.0  0.121043  0.126025  8.9e-05  0.949138  0.0
H  H19  1  0.21144441  0.18031369  0.68578641  1  0.104689  -0.000314  0.900823  0.0  0.127048  -7.8e-05  0.948604  0.0  0.128125  -0.000198  0.948687  0.0  0.121051  0.126025  9e-05  0.949096  0.0
H  H20  1  0.28855211  0.68031478  0.68578458  1  0.104687  -0.000323  0.900907  0.0  0.127034  -7.7e-05  0.948678  0.0  0.128111  -0.000198  0.948761  0.0  0.121041  0.126007  8.9e-05  0.949166  0.0
H  H21  1  0.21144500  0.31968671  0.18578630  1  0.104715  -0.000313  0.900821  0.0  0.127068  -7.7e-05  0.948598  0.0  0.128145  -0.000198  0.948681  0.0  0.121055  0.126038  8.9e-05  0.949093  0.0
H  H22  1  0.71144824  0.18031365  0.81421428  1  0.104692  -0.000315  0.900893  0.0  0.127047  -7.8e-05  0.948675  0.0  0.128126  -0.000198  0.948756  0.0  0.121046  0.126016  8.9e-05  0.949167  0.0
H  H23  1  0.78855412  0.81968882  0.31421365  1  0.104707  -0.000315  0.900797  0.0  0.127068  -7.7e-05  0.948569  0.0  0.128146  -0.000198  0.94865  0.0  0.121068  0.126038  9e-05  0.949066  0.0
H  H24  1  0.81440201  0.24927279  0.22190419  1  0.112357  -2e-05  0.943076  0.0  0.119922  0.000408  1.014312  0.001  0.123371  0.000104  1.011272  0.0  0.116593  0.117257  0.000747  1.016899  0.001
H  H25  1  0.68560098  0.75072797  0.72190189  1  0.11233  -2.2e-05  0.943109  0.0  0.119899  0.000408  1.014343  0.001  0.123349  0.000105  1.011301  0.0  0.116552  0.117212  0.000772  1.016921  0.001
H  H26  1  0.18559942  0.74927237  0.27809589  1  0.11237  -1.7e-05  0.943109  0.0  0.11993  0.000408  1.014337  0.001  0.123379  0.000105  1.011296  0.0  0.116593  0.117276  0.000746  1.016911  0.001
H  H27  1  0.31439945  0.25072661  0.77809751  1  0.112327  -1.8e-05  0.943109  0.0  0.119903  0.000408  1.014342  0.001  0.123352  0.000105  1.011301  0.0  0.11659  0.117231  0.000746  1.016935  0.001
H  H28  1  0.18559892  0.75072760  0.77809588  1  0.112363  -2.9e-05  0.943102  0.0  0.119917  0.000408  1.014337  0.001  0.123365  0.000105  1.011297  0.0  0.116595  0.117254  0.000746  1.016925  0.001
H  H29  1  0.31439875  0.24927349  0.27809817  1  0.112337  -2.3e-05  0.943113  0.0  0.119902  0.000408  1.014349  0.001  0.123352  0.000105  1.011307  0.0  0.116575  0.117234  0.000748  1.016934  0.001
H  H30  1  0.81440151  0.25072697  0.72190352  1  0.112349  -2e-05  0.943106  0.0  0.119917  0.000408  1.014341  0.001  0.123365  0.000105  1.011302  0.0  0.11659  0.11725  0.000748  1.016927  0.001
H  H31  1  0.68560148  0.74927379  0.22190256  1  0.112319  -2.2e-05  0.943129  0.0  0.119894  0.000408  1.014358  0.001  0.123344  0.000105  1.011317  0.0  0.116582  0.117217  0.000748  1.016951  0.001
H  H32  1  0.98388717  0.10688959  0.43741414  1  0.114894  -0.000494  0.908503  0.0  0.130297  -0.000251  0.966136  0.0  0.132547  -0.000401  0.964938  0.0  0.123614  0.128512  -1.1e-05  0.967324  0.001
H  H33  1  0.51611074  0.89310811  0.93741129  1  0.114856  -0.000491  0.908514  0.0  0.130258  -0.000251  0.966144  0.0  0.132511  -0.000401  0.964949  0.0  0.123641  0.128474  -2.1e-05  0.967343  0.001
H  H34  1  0.01611289  0.60689100  0.06258684  1  0.114886  -0.00049  0.908538  0.0  0.13031  -0.000251  0.966142  0.0  0.13256  -0.000401  0.964945  0.0  0.123624  0.128526  -1.3e-05  0.967331  0.001
H  H35  1  0.48388866  0.39310786  0.56258852  1  0.114885  -0.000489  0.908479  0.0  0.130292  -0.000251  0.966112  0.0  0.132546  -0.000401  0.964917  0.0  0.123643  0.128509  -1e-05  0.967298  0.001
H  H36  1  0.01611256  0.89310975  0.56258593  1  0.114951  -0.000498  0.908535  0.0  0.130357  -0.000251  0.966162  0.0  0.132607  -0.000401  0.964964  0.0  0.123647  0.128573  -1.3e-05  0.967351  0.001
H  H37  1  0.48388779  0.10689123  0.06258944  1  0.114917  -0.000491  0.908487  0.0  0.130311  -0.000251  0.966113  0.0  0.132564  -0.000401  0.964918  0.0  0.123667  0.12853  -1.2e-05  0.967301  0.001
H  H38  1  0.98388685  0.39310939  0.93741322  1  0.114878  -0.000487  0.908513  0.0  0.13031  -0.000251  0.966123  0.0  0.132559  -0.000401  0.964925  0.0  0.123627  0.128523  -1.1e-05  0.967311  0.001
H  H39  1  0.51611107  0.60689253  0.43741221  1  0.114861  -0.000488  0.908488  0.0  0.130278  -0.000251  0.966119  0.0  0.132533  -0.000401  0.964924  0.0  0.123624  0.128482  -1.1e-05  0.967317  0.001
H  H40  1  0.78420275  0.11272126  0.39569052  1  0.095243  4e-05  0.938476  0.001  0.106556  0.000512  1.005647  0.001  0.108527  0.000158  1.004781  0.001  0.110026  0.105038  0.000949  1.006571  0.001
H  H41  1  0.71579546  0.88727979  0.89568859  1  0.095232  3.9e-05  0.938467  0.001  0.106535  0.000512  1.005635  0.001  0.108511  0.000158  1.004769  0.001  0.11004  0.10501  0.000952  1.006567  0.001
H  H42  1  0.21579612  0.61272162  0.10430979  1  0.095265  4.2e-05  0.938458  0.001  0.106578  0.000512  1.005633  0.001  0.10855  0.000159  1.004766  0.001  0.110028  0.105052  0.00095  1.006566  0.001
H  H43  1  0.28420274  0.38727706  0.60431057  1  0.09525  4.3e-05  0.938445  0.001  0.106563  0.000511  1.005617  0.001  0.10854  0.000158  1.004751  0.001  0.110045  0.105036  0.000949  1.006552  0.001
H  H44  1  0.21579579  0.88727914  0.60430888  1  0.095257  3.8e-05  0.93848  0.001  0.106581  0.000512  1.005653  0.001  0.108553  0.000158  1.004787  0.001  0.110033  0.105057  0.00095  1.006585  0.001
H  H45  1  0.28420307  0.11272060  0.10431147  1  0.095248  4.3e-05  0.938464  0.001  0.10656  0.000511  1.005622  0.001  0.108536  0.000158  1.004757  0.001  0.110047  0.105036  0.000949  1.006554  0.001
H  H46  1  0.78420361  0.38727771  0.89569094  1  0.095244  4.3e-05  0.938471  0.001  0.106561  0.000512  1.005659  0.001  0.108532  0.000158  1.004792  0.001  0.110031  0.105042  0.000948  1.006591  0.001
H  H47  1  0.71579819  0.61272228  0.39569016  1  0.095247  4.2e-05  0.938441  0.001  0.106562  0.000512  1.005612  0.001  0.10854  0.000158  1.004747  0.001  0.110042  0.105024  0.000956  1.006549  0.001
C  C48  1  0.86391596  0.46803127  0.25060071  1  0.685738  0.005826  3.831729  0.007  0.635494  0.011924  4.132527  0.012  0.669309  0.008741  4.127288  0.009  0.223108  0.611859  0.015285  4.135044  0.014
C  C49  1  0.63607963  0.53196303  0.75060155  1  0.685706  0.005831  3.831653  0.007  0.635415  0.011927  4.132503  0.012  0.669232  0.008744  4.127262  0.009  0.223129  0.611784  0.015301  4.135009  0.014
C  C50  1  0.13608455  0.96803198  0.24939965  1  0.685734  0.005829  3.831674  0.007  0.635476  0.011924  4.132458  0.012  0.669292  0.008744  4.127217  0.009  0.223125  0.611843  0.015285  4.134979  0.014
C  C51  1  0.36391693  0.03196396  0.74939955  1  0.685735  0.005833  3.831747  0.007  0.635459  0.011927  4.132596  0.012  0.669275  0.008745  4.12736  0.009  0.223095  0.611822  0.015289  4.135117  0.014
C  C52  1  0.13608378  0.53196807  0.74939936  1  0.685747  0.005821  3.83163  0.007  0.635482  0.011924  4.132433  0.012  0.669298  0.008743  4.127193  0.009  0.223113  0.611854  0.015283  4.134949  0.014
C  C53  1  0.36392010  0.46803631  0.24939852  1  0.685748  0.005828  3.831779  0.007  0.63545  0.011926  4.132633  0.012  0.669267  0.008744  4.127393  0.009  0.223104  0.611817  0.015287  4.135148  0.014
C  C54  1  0.86391759  0.03196631  0.75059909  1  0.685803  0.005826  3.831542  0.007  0.635515  0.011926  4.132399  0.012  0.669332  0.008743  4.127159  0.009  0.223124  0.61188  0.015284  4.13492  0.014
C  C55  1  0.63608160  0.96803538  0.25059985  1  0.685736  0.005823  3.831462  0.007  0.635391  0.011928  4.132381  0.012  0.669207  0.008744  4.127143  0.009  0.223061  0.611754  0.01531  4.134896  0.014
C  C56  1  0.82896979  0.31731168  0.28043607  1  -0.146966  0.000601  3.647729  0.0  -0.201818  0.002918  3.90547  0.001  -0.203039  0.001953  3.9125  0.001  -0.069068  -0.20075  0.003853  3.900693  0.002
C  C57  1  0.67103040  0.68268671  0.78043459  1  -0.146943  0.000599  3.647683  0.0  -0.20179  0.00292  3.905438  0.001  -0.203009  0.001952  3.912467  0.001  -0.069083  -0.200738  0.0039  3.900662  0.002
C  C58  1  0.17103053  0.81731044  0.21956454  1  -0.147013  0.000587  3.647857  0.0  -0.201809  0.00292  3.905518  0.001  -0.203028  0.001949  3.912547  0.001  -0.069068  -0.200756  0.003849  3.900742  0.002
C  C59  1  0.32896875  0.18268774  0.71956559  1  -0.146881  0.00059  3.647697  0.0  -0.201761  0.00292  3.905465  0.001  -0.202978  0.001949  3.912493  0.001  -0.06904  -0.200694  0.00385  3.900703  0.002
C  C60  1  0.17102874  0.68268872  0.71956399  1  -0.146949  0.000635  3.647897  0.0  -0.20176  0.002918  3.905572  0.001  -0.202978  0.001951  3.912602  0.001  -0.069057  -0.2007  0.003848  3.900806  0.002
C  C61  1  0.32897054  0.31731263  0.21956548  1  -0.146991  0.000595  3.647747  0.0  -0.20184  0.002921  3.905488  0.001  -0.203058  0.001948  3.912519  0.001  -0.069081  -0.20077  0.003857  3.900712  0.002
C  C62  1  0.82897041  0.18268784  0.78043552  1  -0.146989  0.000595  3.647686  0.0  -0.201836  0.00292  3.905446  0.001  -0.203057  0.00195  3.91248  0.001  -0.069094  -0.200764  0.003854  3.900669  0.002
C  C63  1  0.67103098  0.81731266  0.28043382  1  -0.146886  0.000606  3.647655  0.0  -0.201739  0.002919  3.905433  0.001  -0.202954  0.001951  3.912462  0.001  -0.06907  -0.200669  0.003857  3.900666  0.002
C  C64  1  0.88798273  0.17839571  0.41465145  1  -0.139722  0.001132  3.662359  0.001  -0.196662  0.003009  3.923947  0.002  -0.198045  0.001929  3.93116  0.001  -0.065819  -0.195581  0.004038  3.91885  0.002
C  C65  1  0.61201535  0.82160209  0.91464720  1  -0.139614  0.001126  3.662532  0.001  -0.196474  0.00301  3.924103  0.002  -0.197875  0.001928  3.931346  0.001  -0.065827  -0.19539  0.00402  3.919028  0.002
C  C66  1  0.11201622  0.67839606  0.08534941  1  -0.139766  0.001114  3.66234  0.001  -0.196715  0.003012  3.923948  0.002  -0.198099  0.001926  3.931165  0.001  -0.065848  -0.195636  0.004041  3.918858  0.002
C  C67  1  0.38798277  0.32159954  0.58535141  1  -0.139564  0.001114  3.66248  0.001  -0.196479  0.003008  3.92408  0.002  -0.197885  0.001926  3.931328  0.001  -0.065779  -0.1954  0.004042  3.91899  0.002
C  C68  1  0.11201460  0.82160468  0.58534928  1  -0.139776  0.001145  3.66245  0.001  -0.196753  0.003006  3.924074  0.002  -0.198137  0.001928  3.931289  0.001  -0.065862  -0.195676  0.00404  3.918989  0.002
C  C69  1  0.38798439  0.17839831  0.08535286  1  -0.139713  0.001118  3.662583  0.001  -0.196582  0.003008  3.924142  0.002  -0.197985  0.00193  3.931387  0.001  -0.06586  -0.195502  0.004033  3.919055  0.002
C  C70  1  0.88798231  0.32160328  0.91465066  1  -0.139671  0.001107  3.662296  0.001  -0.19666  0.003011  3.923954  0.002  -0.198036  0.001927  3.931161  0.001  -0.065834  -0.19558  0.004042  3.918864  0.002
C  C71  1  0.61201576  0.67839980  0.41464866  1  -0.139536  0.001113  3.662439  0.001  -0.196471  0.003008  3.924051  0.002  -0.197882  0.001932  3.931309  0.001  -0.065799  -0.195391  0.004054  3.918966  0.002
C  C72  1  0.83993766  0.26897444  0.49372491  1  0.710266  0.007469  3.810333  0.01  0.661398  0.015212  4.103873  0.016  0.696729  0.011019  4.096772  0.013  0.237275  0.63648  0.019791  4.107904  0.02
C  C73  1  0.66004905  0.73101879  0.99371674  1  0.710124  0.007472  3.810159  0.01  0.661132  0.015221  4.103941  0.016  0.69647  0.011028  4.096841  0.013  0.237118  0.63621  0.019812  4.107977  0.02
C  C74  1  0.16006260  0.76897624  0.00627447  1  0.710265  0.007479  3.810358  0.01  0.661351  0.01521  4.10397  0.016  0.69668  0.011022  4.096873  0.013  0.237232  0.636435  0.019798  4.107991  0.02
C  C75  1  0.33995016  0.23101654  0.50628270  1  0.71007  0.007481  3.810307  0.01  0.661135  0.01522  4.104011  0.016  0.696473  0.011028  4.096912  0.013  0.237089  0.636212  0.019804  4.108046  0.02
C  C76  1  0.16006087  0.73102490  0.50627582  1  0.710236  0.007469  3.810328  0.01  0.661367  0.015213  4.103884  0.016  0.696699  0.011022  4.096782  0.013  0.237245  0.636448  0.019795  4.107915  0.02
C  C77  1  0.33995188  0.26898055  0.00628399  1  0.710165  0.007477  3.810122  0.01  0.661171  0.015221  4.103899  0.016  0.696509  0.011027  4.096801  0.013  0.237128  0.636249  0.019803  4.107937  0.02
C  C78  1  0.83993834  0.23102416  0.99372493  1  0.710272  0.00747  3.810319  0.01  0.661379  0.015211  4.103912  0.016  0.696708  0.011021  4.096812  0.013  0.237245  0.636461  0.019793  4.107942  0.02
C  C79  1  0.66004958  0.76898491  0.49371737  1  0.710079  0.007483  3.810306  0.01  0.661187  0.015222  4.103939  0.016  0.696527  0.011028  4.096838  0.013  0.237102  0.636264  0.019811  4.107965  0.02
N  N80  1  0.95229689  0.26216311  0.34106259  1  -0.392763  0.031279  3.257319  0.023  -0.332044  0.035363  3.521677  0.024  -0.350717  0.030446  3.530322  0.02  -0.479762  -0.317712  0.040152  3.514814  0.028
N  N81  1  0.54770289  0.73783713  0.84106127  1  -0.392688  0.031284  3.257407  0.023  -0.331992  0.035361  3.521729  0.024  -0.350667  0.030443  3.530388  0.02  -0.479748  -0.317668  0.04016  3.514876  0.028
N  N82  1  0.04770456  0.76216307  0.15893812  1  -0.392788  0.031282  3.257366  0.023  -0.332077  0.035363  3.52171  0.024  -0.350753  0.030445  3.53036  0.02  -0.479801  -0.317743  0.04015  3.514849  0.028
N  N83  1  0.45229393  0.23783537  0.65893947  1  -0.392851  0.031283  3.257371  0.023  -0.332128  0.035363  3.521693  0.024  -0.350797  0.030445  3.530344  0.02  -0.479871  -0.317804  0.040162  3.514841  0.028
N  N84  1  0.04770405  0.73783728  0.65893813  1  -0.392802  0.031268  3.257406  0.023  -0.332058  0.035363  3.521732  0.024  -0.350733  0.030443  3.530383  0.02  -0.479787  -0.317726  0.040154  3.51487  0.028
N  N85  1  0.45229565  0.26216327  0.15893945  1  -0.392697  0.031284  3.257457  0.023  -0.331986  0.03536  3.521756  0.024  -0.35066  0.030442  3.530417  0.02  -0.479743  -0.317657  0.040155  3.514892  0.028
N  N86  1  0.95229758  0.23783627  0.84106261  1  -0.392805  0.031283  3.257268  0.023  -0.332078  0.035363  3.521656  0.024  -0.350759  0.030447  3.530306  0.02  -0.479787  -0.317746  0.040163  3.514791  0.028
N  N87  1  0.54770460  0.76216397  0.34106060  1  -0.392781  0.031279  3.257277  0.023  -0.332108  0.035362  3.521648  0.024  -0.350782  0.030443  3.530311  0.02  -0.479804  -0.317787  0.04017  3.514799  0.028
O  O88  1  0.95454046  0.54544821  0.29848768  1  -0.642118  0.035961  2.017269  0.026  -0.574915  0.043769  2.275651  0.031  -0.605919  0.038444  2.263489  0.026  -0.30794  -0.551907  0.049008  2.284007  0.035
O  O89  1  0.54546321  0.45454905  0.79848620  1  -0.641994  0.035964  2.017363  0.026  -0.574811  0.04377  2.2758  0.031  -0.605813  0.038445  2.263634  0.026  -0.307896  -0.551813  0.048992  2.284158  0.035
O  O90  1  0.04545952  0.04544798  0.20151142  1  -0.642101  0.035964  2.01716  0.026  -0.574916  0.043771  2.275577  0.031  -0.605919  0.038447  2.263413  0.026  -0.307949  -0.55191  0.049006  2.283935  0.035
O  O91  1  0.45453507  0.95455028  0.70151484  1  -0.642022  0.035962  2.017381  0.026  -0.574866  0.04377  2.275838  0.031  -0.605869  0.038446  2.263674  0.026  -0.307887  -0.551853  0.049012  2.284191  0.035
O  O92  1  0.04545927  0.45455219  0.70151106  1  -0.642117  0.035965  2.017169  0.026  -0.574919  0.04377  2.275565  0.031  -0.605922  0.038446  2.263402  0.026  -0.307946  -0.551914  0.049008  2.283919  0.035
O  O93  1  0.45453652  0.54545029  0.20151453  1  -0.64205  0.035967  2.017483  0.026  -0.574845  0.04377  2.275899  0.031  -0.605847  0.038446  2.263733  0.026  -0.307883  -0.551838  0.049014  2.284256  0.035
O  O94  1  0.95454382  0.95454925  0.79848799  1  -0.642155  0.035971  2.017134  0.026  -0.574927  0.043772  2.275535  0.031  -0.605931  0.038448  2.263371  0.026  -0.307909  -0.551917  0.049007  2.283889  0.035
O  O95  1  0.54546226  0.04545118  0.29848457  1  -0.642019  0.035966  2.017237  0.026  -0.574817  0.043771  2.275684  0.031  -0.605818  0.038445  2.263519  0.026  -0.307888  -0.551844  0.049051  2.284057  0.035
O  O96  1  0.79950138  0.51286938  0.17977395  1  -0.643436  0.034746  2.060609  0.022  -0.577078  0.043432  2.332354  0.027  -0.608036  0.038116  2.318072  0.022  -0.308441  -0.553914  0.048484  2.341739  0.031
O  O97  1  0.70050070  0.48712945  0.67977009  1  -0.643515  0.034745  2.060522  0.022  -0.5771  0.043435  2.332233  0.027  -0.608062  0.038118  2.317958  0.022  -0.308511  -0.553972  0.048526  2.34163  0.031
O  O98  1  0.20050097  0.01286878  0.32022654  1  -0.643419  0.034747  2.060683  0.022  -0.577055  0.043432  2.332418  0.027  -0.608014  0.038116  2.318139  0.022  -0.308437  -0.553895  0.048485  2.341805  0.031
O  O99  1  0.29949762  0.98713001  0.82023022  1  -0.643517  0.03475  2.06066  0.022  -0.577081  0.043435  2.332343  0.027  -0.608042  0.038118  2.318068  0.022  -0.308452  -0.553923  0.048485  2.341735  0.031
O  O100  1  0.20049956  0.48713101  0.82022612  1  -0.643452  0.034746  2.060658  0.022  -0.577085  0.043433  2.332404  0.027  -0.608045  0.038116  2.318125  0.022  -0.308441  -0.553927  0.04849  2.34179  0.031
O  O101  1  0.29950024  0.51286989  0.32022997  1  -0.643509  0.03475  2.06059  0.022  -0.577096  0.043435  2.332314  0.027  -0.608056  0.03812  2.318038  0.022  -0.308473  -0.553936  0.048484  2.341702  0.031
O  O102  1  0.79949997  0.98712950  0.67977154  1  -0.64349  0.034746  2.0607  0.022  -0.577088  0.043432  2.332416  0.027  -0.608046  0.038116  2.318131  0.022  -0.308469  -0.553926  0.048487  2.341802  0.031
O  O103  1  0.70049971  0.01287039  0.17976720  1  -0.643585  0.034754  2.060501  0.022  -0.577094  0.043435  2.332189  0.027  -0.608055  0.038118  2.317919  0.022  -0.308486  -0.553961  0.048506  2.341589  0.031
O  O104  1  0.74825129  0.21889284  0.55177128  1  -0.634676  0.03308  2.089655  0.02  -0.573374  0.044529  2.366815  0.028  -0.603626  0.039164  2.352094  0.024  -0.297295  -0.550811  0.049454  2.376396  0.032
O  O105  1  0.75174685  0.78111289  0.05177345  1  -0.634739  0.03309  2.089077  0.02  -0.573476  0.044543  2.366388  0.028  -0.603742  0.039176  2.351679  0.024  -0.297361  -0.550934  0.049499  2.375985  0.032
O  O106  1  0.25174791  0.71889173  0.94822883  1  -0.634673  0.03308  2.089672  0.02  -0.573341  0.044529  2.366839  0.028  -0.603598  0.039164  2.352128  0.024  -0.297271  -0.55078  0.049452  2.376421  0.032
O  O107  1  0.24825222  0.28110967  0.44822524  1  -0.634717  0.03309  2.089116  0.02  -0.573462  0.044544  2.366375  0.028  -0.603733  0.039177  2.351675  0.024  -0.297329  -0.5509  0.04947  2.375961  0.032
O  O108  1  0.25174844  0.78110755  0.44822878  1  -0.634718  0.033081  2.089552  0.02  -0.573394  0.04453  2.366686  0.028  -0.603654  0.039163  2.351976  0.024  -0.297315  -0.550834  0.049456  2.376268  0.032
O  O109  1  0.24825288  0.21888750  0.94822662  1  -0.634753  0.033087  2.088989  0.02  -0.573492  0.044542  2.366303  0.028  -0.603756  0.039174  2.351589  0.024  -0.297365  -0.550932  0.049472  2.375894  0.032
O  O110  1  0.74825183  0.28110761  0.05177123  1  -0.634704  0.03308  2.089634  0.02  -0.573373  0.044529  2.366785  0.028  -0.603631  0.039163  2.352075  0.024  -0.297287  -0.550812  0.049451  2.376368  0.032
O  O111  1  0.75174992  0.71889179  0.55177416  1  -0.634702  0.033087  2.089084  0.02  -0.573481  0.044543  2.366332  0.028  -0.603747  0.039175  2.351621  0.024  -0.297315  -0.550922  0.049474  2.375911  0.032
O  O112  1  0.90021469  0.39391822  0.49775564  1  -0.668112  0.056675  2.107283  0.034  -0.587471  0.072528  2.393933  0.044  -0.621721  0.06547  2.375152  0.038  -0.296231  -0.561763  0.078863  2.406781  0.049
O  O113  1  0.59978282  0.60608344  0.99775046  1  -0.667947  0.056669  2.107587  0.034  -0.587265  0.072522  2.394314  0.044  -0.62151  0.065464  2.375532  0.038  -0.29614  -0.561578  0.078878  2.407175  0.049
O  O114  1  0.09978572  0.89391787  0.00224418  1  -0.668086  0.056674  2.107288  0.034  -0.587423  0.072527  2.393953  0.044  -0.621672  0.065469  2.375173  0.038  -0.296211  -0.561722  0.078863  2.406805  0.049
O  O115  1  0.40021504  0.10608126  0.50225051  1  -0.667939  0.056662  2.107623  0.034  -0.587291  0.072521  2.39434  0.044  -0.621536  0.065463  2.375557  0.038  -0.296107  -0.561584  0.07886  2.407191  0.049
O  O116  1  0.09978384  0.60608006  0.50224575  1  -0.668059  0.056673  2.107374  0.034  -0.587414  0.072528  2.394022  0.044  -0.621665  0.065469  2.375241  0.038  -0.296197  -0.56171  0.078865  2.406873  0.049
O  O117  1  0.40021691  0.39391590  0.00225027  1  -0.667935  0.056665  2.107578  0.034  -0.587244  0.07252  2.394294  0.044  -0.621489  0.065461  2.375513  0.038  -0.296107  -0.561539  0.078857  2.407149  0.049
O  O118  1  0.90021401  0.10608147  0.99775588  1  -0.66809  0.056679  2.107316  0.034  -0.587427  0.072528  2.393971  0.044  -0.621677  0.06547  2.375191  0.038  -0.296205  -0.561721  0.078862  2.406823  0.049
O  O119  1  0.59978350  0.89391913  0.49775088  1  -0.667993  0.056668  2.107677  0.034  -0.587312  0.072523  2.39432  0.044  -0.621558  0.065464  2.375535  0.038  -0.29615  -0.56163  0.078887  2.40718  0.049
