# generated using pymatgen
data_ZnH17C25NO4
_symmetry_space_group_name_H-M   'P 1'
_cell_length_a   9.55284408
_cell_length_b   15.78736003
_cell_length_c   15.87924340
_cell_angle_alpha   89.66927498
_cell_angle_beta   89.98473918
_cell_angle_gamma   89.15310203
_symmetry_Int_Tables_number   1
_chemical_formula_structural   ZnH17C25NO4
_chemical_formula_sum   'Zn2 H34 C50 N2 O8'
_cell_volume   2394.51367397
_cell_formula_units_Z   2
loop_
 _symmetry_equiv_pos_site_id
 _symmetry_equiv_pos_as_xyz
  1  'x, y, z'
loop_
 _atom_site_type_symbol
 _atom_site_label
 _atom_site_symmetry_multiplicity
 _atom_site_fract_x
 _atom_site_fract_y
 _atom_site_fract_z
 _atom_site_occupancy
 _atom_site_pbe_bader_charge
 _atom_site_pbe_bader_spin_density
 _atom_site_pbe_cm5_charge
 _atom_site_pbe_ddec_charge
 _atom_site_pbe_ddec_spin_density
 _atom_site_pbe_ddec_sum_bond_order
 _atom_site_pbe_magmom
Zn  Zn0  1  0.14564891  0.00213934  0.99897894  1  1.27076  0  0.669513  0.814594  0  2.383787  0
Zn  Zn1  1  0.85221729  0.00208261  0.00018273  1  1.272286  0  0.668033  0.81392  0  2.362169  0
H  H2  1  0.61219405  0.88867333  0.07121426  1  0.061031  0  0.112226  0.099419  0  0.972097  0
H  H3  1  0.36732019  0.87415296  0.04482623  1  0.091413  0  0.113466  0.105085  0  0.972563  0
H  H4  1  0.63133924  0.03011679  0.12784493  1  0.098619  0  0.114241  0.103746  0  0.966052  0
H  H5  1  0.38711066  0.00001819  0.12958674  1  0.055422  0  0.114515  0.101305  0  0.957613  0
H  H6  1  0.60674444  0.11667751  0.05813079  1  0.072977  0  0.114958  0.103531  0  0.956809  0
H  H7  1  0.39015122  0.88452050  0.93465462  1  0.076753  0  0.112699  0.100717  0  0.970277  0
H  H8  1  0.63598290  0.87129174  0.96205367  1  0.075956  0  0.113368  0.103998  0  0.972483  0
H  H9  1  0.63073738  0.09539382  0.90640856  1  0.112433  0  0.111841  0.103414  0  0.987794  0
H  H10  1  0.36508116  0.02169756  0.86762340  1  0.062359  0  0.114494  0.103311  0  0.96504  0
H  H11  1  0.38559909  0.11261001  0.93048941  1  0.072498  0  0.114147  0.102192  0  0.961083  0
H  H12  1  0.61093635  0.99140691  0.86814092  1  0.063597  0  0.114699  0.102639  0  0.95694  0
H  H13  1  0.22569516  0.28700142  0.31453910  1  0.056833  0  0.101878  0.10422  0  0.993552  0
H  H14  1  0.22466195  0.75363204  0.65522571  1  0.060105  0  0.101108  0.102934  0  0.995446  0
H  H15  1  0.23333067  0.75159202  0.34478908  1  0.090817  0  0.101227  0.103642  0  0.994277  0
H  H16  1  0.22052374  0.26155144  0.66070679  1  0.10039  0  0.101488  0.104032  0  0.994651  0
H  H17  1  0.77016123  0.26612429  0.66081737  1  0.085751  0  0.101586  0.104408  0  0.993682  0
H  H18  1  0.99896609  0.21048530  0.49364497  1  0.042206  0  0.102248  0.112019  0  0.996694  0
H  H19  1  0.78503508  0.73170457  0.33382285  1  0.081216  0  0.101668  0.103974  0  0.993784  0
H  H20  1  0.01154805  0.79397031  0.50608017  1  0.038344  0  0.102134  0.111089  0  0.998155  0
H  H21  1  0.01530841  0.43014342  0.28358622  1  0.051575  0  0.100696  0.104872  0  1.010288  0
H  H22  1  0.98972398  0.41864559  0.71248900  1  0.076981  0  0.10067  0.10464  0  1.011322  0
H  H23  1  0.78196812  0.71516962  0.68313220  1  0.105687  0  0.102083  0.105037  0  0.992766  0
H  H24  1  0.78249352  0.25340078  0.34555389  1  0.026127  0  0.100916  0.103069  0  0.996225  0
H  H25  1  0.78161934  0.82135127  0.20329079  1  0.079383  0  0.101115  0.102483  0  1.009166  0
H  H26  1  0.77069716  0.17817013  0.79235576  1  0.078988  0  0.101454  0.10284  0  1.009702  0
H  H27  1  0.78100449  0.80706003  0.81096669  1  0.080798  0  0.101232  0.101336  0  1.00887  0
H  H28  1  0.77856541  0.16483016  0.21537309  1  0.100775  0  0.102297  0.104526  0  1.006564  0
H  H29  1  0.22280029  0.84279586  0.78509529  1  0.087916  0  0.101512  0.103006  0  1.008852  0
H  H30  1  0.22088455  0.19644291  0.18603965  1  0.09326  0  0.101507  0.103101  0  1.009748  0
H  H31  1  0.22849166  0.83990759  0.21339051  1  0.071474  0  0.100925  0.102135  0  1.008775  0
H  H32  1  0.21955202  0.17366531  0.79235459  1  0.083244  0  0.102085  0.103999  0  1.008419  0
H  H33  1  0.36250551  0.10125406  0.08364683  1  0.096961  0  0.112229  0.103611  0  0.988349  0
H  H34  1  0.99213456  0.57437410  0.71594084  1  0.109639  0  0.100577  0.104358  0  1.010585  0
H  H35  1  0.01608271  0.58587456  0.28702278  1  0.07079  0  0.100508  0.104751  0  1.010163  0
C  C36  1  0.58105606  0.91109528  0.00829241  1  0.250492  0  -0.067427  -0.088623  0  3.816898  0
C  C37  1  0.42049997  0.91082956  0.99572233  1  0.192795  0  -0.067905  -0.092166  0  3.820122  0
C  C38  1  0.99997219  0.59060492  0.57986354  1  -0.021951  0  -0.009441  0.02674  0  4.007179  0
C  C39  1  0.00392289  0.54751658  0.50073702  1  -0.026798  0  0.001188  0.007579  0  3.920516  0
C  C40  1  0.12739090  0.26043476  0.29278300  1  -0.04557  0  -0.092952  -0.141991  0  3.993967  0
C  C41  1  0.00432362  0.27571753  0.33894536  1  -0.083676  0  -0.002515  0.082976  0  4.004593  0
C  C42  1  0.00542099  0.32434018  0.41893733  1  0.032061  0  -0.006906  0.024435  0  3.989245  0
C  C43  1  0.12748170  0.76484254  0.68978746  1  -0.032321  0  -0.09316  -0.14027  0  3.992978  0
C  C44  1  0.00333375  0.72886392  0.66041336  1  -0.046087  0  -0.001977  0.084642  0  4.005155  0
C  C45  1  0.00403562  0.68009061  0.58060574  1  0.012019  0  -0.007017  0.022288  0  3.994826  0
C  C46  1  0.01246780  0.54959034  0.34559209  1  -0.06433  0  -0.094861  -0.130929  0  4.028053  0
C  C47  1  0.13420033  0.76666194  0.31359120  1  -0.04824  0  -0.093593  -0.143071  0  3.994172  0
C  C48  1  0.12181790  0.24323108  0.68965903  1  -0.081978  0  -0.093055  -0.143446  0  3.994958  0
C  C49  1  0.86881418  0.24583136  0.68969157  1  0.017388  0  -0.092899  -0.14385  0  3.993883  0
C  C50  1  0.99536638  0.26920739  0.65188725  1  -0.045092  0  -0.002591  0.085916  0  4.005365  0
C  C51  1  0.99696736  0.32043209  0.57294340  1  0.020935  0  -0.007468  0.022521  0  3.996913  0
C  C52  1  0.99992760  0.27958927  0.49512960  1  -0.068027  0  -0.093346  -0.191423  0  4.005868  0
C  C53  1  0.99776334  0.40991500  0.57588770  1  -0.053426  0  -0.009241  0.026464  0  4.01045  0
C  C54  1  0.88234878  0.75548276  0.30730475  1  -0.066869  0  -0.091851  -0.140508  0  3.992232  0
C  C55  1  0.00939846  0.73594727  0.34794337  1  -0.045528  0  -0.002454  0.083578  0  4.0034  0
C  C56  1  0.01016869  0.68422809  0.42657096  1  -0.060056  0  -0.0074  0.024725  0  3.991948  0
C  C57  1  0.00985924  0.72488738  0.50446581  1  0.011085  0  -0.093452  -0.190432  0  4.006593  0
C  C58  1  0.00859534  0.59472265  0.42358169  1  0.017656  0  -0.00924  0.025923  0  4.008075  0
C  C59  1  0.01222418  0.46313198  0.34370990  1  -0.022737  0  -0.095616  -0.131538  0  4.027884  0
C  C60  1  0.00795827  0.41388327  0.41968778  1  -0.040942  0  -0.008823  0.027226  0  4.007296  0
C  C61  1  0.00335255  0.45707159  0.49874486  1  0.041527  0  0.001147  0.007077  0  3.921518  0
C  C62  1  0.99477747  0.54136803  0.65583350  1  -0.100381  0  -0.094785  -0.129891  0  4.02465  0
C  C63  1  0.99360582  0.45493161  0.65393261  1  -0.053412  0  -0.09538  -0.131131  0  4.026126  0
C  C64  1  0.87882392  0.74305951  0.70554758  1  -0.085405  0  -0.092478  -0.143346  0  3.992653  0
C  C65  1  0.87854642  0.24124175  0.31019049  1  0.029836  0  -0.093115  -0.141958  0  3.994511  0
C  C66  1  0.00225257  0.89096682  0.12338722  1  1.578144  0  0.215224  0.594281  0  4.170511  0
C  C67  1  0.00492617  0.83566860  0.20038617  1  -0.035478  0  -0.021908  -0.041042  0  3.978557  0
C  C68  1  0.99787384  0.11733603  0.11848528  1  1.575792  0  0.214219  0.591125  0  4.177226  0
C  C69  1  0.99941748  0.17516933  0.19300973  1  0.035755  0  -0.021321  -0.038842  0  3.977625  0
C  C70  1  0.00059588  0.88806834  0.88004408  1  1.573723  0  0.214471  0.591376  0  4.173418  0
C  C71  1  0.00189188  0.83030225  0.80558223  1  -0.024499  0  -0.022394  -0.039888  0  3.978703  0
C  C72  1  0.99632275  0.11501597  0.87710509  1  1.557717  0  0.214373  0.592805  0  4.17708  0
C  C73  1  0.99516726  0.17068437  0.80027750  1  -0.046876  0  -0.021736  -0.04141  0  3.978444  0
C  C74  1  0.88006017  0.80514275  0.23455073  1  0.011358  0  -0.08597  -0.086286  0  3.995502  0
C  C75  1  0.86875588  0.19701105  0.76311886  1  -0.066072  0  -0.085855  -0.086624  0  3.995748  0
C  C76  1  0.87793130  0.79396457  0.77691729  1  0.000967  0  -0.086188  -0.085527  0  3.995261  0
C  C77  1  0.87587132  0.19199251  0.23774048  1  -0.070755  0  -0.085606  -0.085717  0  3.994892  0
C  C78  1  0.12694971  0.81445904  0.76200075  1  -0.102509  0  -0.086474  -0.087848  0  3.99729  0
C  C79  1  0.12505328  0.21014937  0.22095872  1  -0.098296  0  -0.085914  -0.08788  0  3.994299  0
C  C80  1  0.13199415  0.81574276  0.24039110  1  -0.078658  0  -0.086134  -0.086223  0  3.996428  0
C  C81  1  0.12173702  0.19451964  0.76301941  1  -0.045458  0  -0.085668  -0.084611  0  3.992085  0
C  C82  1  0.57846671  0.03513433  0.91829091  1  0.177541  0  -0.069895  -0.095162  0  3.827584  0
C  C83  1  0.57741379  0.05071748  0.07007817  1  0.207238  0  -0.068224  -0.091652  0  3.835056  0
C  C84  1  0.41763146  0.04036198  0.07626825  1  0.222522  0  -0.069375  -0.092127  0  3.830561  0
C  C85  1  0.41806411  0.04601448  0.92365005  1  0.255802  0  -0.067944  -0.089564  0  3.834182  0
N  N86  1  0.63342420  0.99919786  0.99899792  1  -0.972775  0  -0.340231  -0.1033  0  3.442894  0
N  N87  1  0.36436854  0.99938060  0.99851110  1  -0.979234  0  -0.341573  -0.105781  0  3.448495  0
O  O88  1  0.11999526  0.91467948  0.09435345  1  -1.174896  0  -0.318673  -0.556009  0  2.340216  0
O  O89  1  0.88269505  0.91126571  0.09325315  1  -1.169927  0  -0.318174  -0.552552  0  2.329605  0
O  O90  1  0.11596383  0.09637119  0.08702577  1  -1.173948  0  -0.31666  -0.551848  0  2.356075  0
O  O91  1  0.87921520  0.09193151  0.09316521  1  -1.170442  0  -0.316235  -0.553612  0  2.346662  0
O  O92  1  0.11889301  0.91092513  0.90844084  1  -1.171366  0  -0.317519  -0.551068  0  2.339814  0
O  O93  1  0.88139206  0.91129997  0.90860435  1  -1.170506  0  -0.317655  -0.553363  0  2.336773  0
O  O94  1  0.11570857  0.09114640  0.90472848  1  -1.165743  0  -0.316453  -0.553613  0  2.35972  0
O  O95  1  0.87858939  0.09428861  0.90820567  1  -1.167453  0  -0.317238  -0.553511  0  2.340125  0
