# generated using pymatgen
data_SmH8C7NO8
_symmetry_space_group_name_H-M   'P 1'
_cell_length_a   7.71406080
_cell_length_b   9.20477963
_cell_length_c   15.50085359
_cell_angle_alpha   100.99571510
_cell_angle_beta   89.99970246
_cell_angle_gamma   89.99960601
_symmetry_Int_Tables_number   1
_chemical_formula_structural   SmH8C7NO8
_chemical_formula_sum   'Sm4 H32 C28 N4 O32'
_cell_volume   1080.45070205
_cell_formula_units_Z   4
loop_
 _symmetry_equiv_pos_site_id
 _symmetry_equiv_pos_as_xyz
  1  'x, y, z'
loop_
 _atom_site_type_symbol
 _atom_site_label
 _atom_site_symmetry_multiplicity
 _atom_site_fract_x
 _atom_site_fract_y
 _atom_site_fract_z
 _atom_site_occupancy
 _atom_site_hle17_bader_spin_density
 _atom_site_hle17_ddec_charge
 _atom_site_hle17_ddec_spin_density
 _atom_site_hle17_ddec_sum_bond_order
 _atom_site_hle17_magmom
 _atom_site_hse06_10hf_bader_spin_density
 _atom_site_hse06_10hf_ddec_charge
 _atom_site_hse06_10hf_ddec_spin_density
 _atom_site_hse06_10hf_ddec_sum_bond_order
 _atom_site_hse06_10hf_magmom
 _atom_site_hse06_bader_spin_density
 _atom_site_hse06_ddec_charge
 _atom_site_hse06_ddec_spin_density
 _atom_site_hse06_ddec_sum_bond_order
 _atom_site_hse06_magmom
 _atom_site_pbe_bader_spin_density
 _atom_site_pbe_cm5_charge
 _atom_site_pbe_ddec_charge
 _atom_site_pbe_ddec_spin_density
 _atom_site_pbe_ddec_sum_bond_order
 _atom_site_pbe_magmom
Sm  Sm0  1  0.82429838  0.98919519  0.74757463  1  0  2.277237  0  1.62774  0  0  2.105348  0  2.105572  0  0  2.214608  0  1.938123  0  0  1.510261  2.074296  0  2.136012  0
Sm  Sm1  1  0.32429921  0.51079652  0.75242681  1  0  2.277301  0  1.62783  0  0  2.105439  0  2.105585  0  0  2.214656  0  1.938215  0  0  1.510311  2.074413  0  2.135985  0
Sm  Sm2  1  0.17569993  0.01079487  0.25242499  1  0  2.277258  0  1.627919  0  0  2.105407  0  2.105704  0  0  2.214634  0  1.938316  0  0  1.510307  2.074374  0  2.136119  0
Sm  Sm3  1  0.67570040  0.48920820  0.24757097  1  0  2.277218  0  1.62779  0  0  2.105458  0  2.10541  0  0  2.21459  0  1.938176  0  0  1.5103  2.074429  0  2.135834  0
H  H4  1  0.07781900  0.14729201  0.89832209  1  0  0.440026  0  0.860045  0  0  0.410116  0  0.921828  0  0  0.421117  0  0.906013  0  0  0.29573  0.402553  0  0.932706  0
H  H5  1  0.57783379  0.35270551  0.60167740  1  0  0.440044  0  0.860017  0  0  0.410154  0  0.921784  0  0  0.42116  0  0.905961  0  0  0.295702  0.402589  0  0.932666  0
H  H6  1  0.92217542  0.85270594  0.10167668  1  0  0.440003  0  0.860064  0  0  0.410093  0  0.921847  0  0  0.421098  0  0.906027  0  0  0.295708  0.40253  0  0.932726  0
H  H7  1  0.42218397  0.64730022  0.39832180  1  0  0.440113  0  0.85992  0  0  0.41023  0  0.921671  0  0  0.421233  0  0.905853  0  0  0.295781  0.402666  0  0.93255  0
H  H8  1  0.11994113  0.18011568  0.80109605  1  0  0.4348  0  0.872033  0  0  0.404103  0  0.934756  0  0  0.416041  0  0.917462  0  0  0.29859  0.395622  0  0.947215  0
H  H9  1  0.61994875  0.31987575  0.69890637  1  0  0.434787  0  0.872045  0  0  0.40413  0  0.934739  0  0  0.416076  0  0.917427  0  0  0.298544  0.395655  0  0.947187  0
H  H10  1  0.88003644  0.81990082  0.19890852  1  0  0.434775  0  0.872058  0  0  0.404173  0  0.934651  0  0  0.416115  0  0.917351  0  0  0.298597  0.39569  0  0.947112  0
H  H11  1  0.38004697  0.68010878  0.30109249  1  0  0.434838  0  0.871965  0  0  0.404204  0  0.934621  0  0  0.416147  0  0.917314  0  0  0.298626  0.395726  0  0.947076  0
H  H12  1  0.54597369  0.98006408  0.58989011  1  0  0.440037  0  0.809393  0  0  0.4205  0  0.867962  0  0  0.429996  0  0.854016  0  0  0.32922  0.41387  0  0.876195  0
H  H13  1  0.04599231  0.51996425  0.91012485  1  0  0.440124  0  0.809269  0  0  0.420505  0  0.867978  0  0  0.430003  0  0.854019  0  0  0.329224  0.413874  0  0.876211  0
H  H14  1  0.45402722  0.01990232  0.41009720  1  0  0.440246  0  0.809054  0  0  0.420639  0  0.86774  0  0  0.430135  0  0.853823  0  0  0.329311  0.414012  0  0.875968  0
H  H15  1  0.95400600  0.48005616  0.08988736  1  0  0.440143  0  0.809339  0  0  0.420516  0  0.868033  0  0  0.430012  0  0.854028  0  0  0.329191  0.413886  0  0.876293  0
H  H16  1  0.68504453  0.09117182  0.56730680  1  0  0.44819  0  0.8181  0  0  0.42336  0  0.875047  0  0  0.432661  0  0.861336  0  0  0.322637  0.416822  0  0.884839  0
H  H17  1  0.18504526  0.40883347  0.93269866  1  0  0.4481  0  0.818274  0  0  0.423277  0  0.875169  0  0  0.432576  0  0.861462  0  0  0.322627  0.41674  0  0.884961  0
H  H18  1  0.31495768  0.90881667  0.43269906  1  0  0.448238  0  0.818122  0  0  0.423392  0  0.87503  0  0  0.432695  0  0.861315  0  0  0.322643  0.416851  0  0.884829  0
H  H19  1  0.81495435  0.59117847  0.06730721  1  0  0.448192  0  0.818195  0  0  0.423376  0  0.875037  0  0  0.432673  0  0.861333  0  0  0.32267  0.416839  0  0.884827  0
H  H20  1  0.49631334  0.84318139  0.78774011  1  0  0.434229  0  0.874919  0  0  0.403691  0  0.938307  0  0  0.414653  0  0.922848  0  0  0.298341  0.395793  0  0.949742  0
H  H21  1  0.99630670  0.65680954  0.71225627  1  0  0.434216  0  0.87494  0  0  0.403644  0  0.938378  0  0  0.414608  0  0.922918  0  0  0.298345  0.395744  0  0.949818  0
H  H22  1  0.50370053  0.15680243  0.21226834  1  0  0.434137  0  0.87502  0  0  0.403594  0  0.938417  0  0  0.414559  0  0.922956  0  0  0.298278  0.395697  0  0.949852  0
H  H23  1  0.00369291  0.34319528  0.28774023  1  0  0.43421  0  0.874934  0  0  0.403655  0  0.938336  0  0  0.414619  0  0.922874  0  0  0.298316  0.395756  0  0.949773  0
H  H24  1  0.48695441  0.81940014  0.68751574  1  0  0.437315  0  0.862013  0  0  0.408908  0  0.92094  0  0  0.421259  0  0.90296  0  0  0.299221  0.400219  0  0.933774  0
H  H25  1  0.98695564  0.68058892  0.81247652  1  0  0.437338  0  0.861989  0  0  0.40892  0  0.920928  0  0  0.421266  0  0.902957  0  0  0.299253  0.400234  0  0.933754  0
H  H26  1  0.51305169  0.18059305  0.31248689  1  0  0.437284  0  0.862054  0  0  0.408872  0  0.92099  0  0  0.421222  0  0.903014  0  0  0.299188  0.400185  0  0.933819  0
H  H27  1  0.01305434  0.31941488  0.18751854  1  0  0.437282  0  0.862052  0  0  0.408858  0  0.921002  0  0  0.421204  0  0.903033  0  0  0.299193  0.40017  0  0.933836  0
H  H28  1  0.50859937  0.38267739  0.01525249  1  0  0.13552  0  0.944247  0  0  0.142585  0  1.009154  0  0  0.147284  0  1.005526  0  0  0.117298  0.139186  0  1.011911  0
H  H29  1  0.00861121  0.11733095  0.48474784  1  0  0.135497  0  0.944237  0  0  0.142569  0  1.00914  0  0  0.147266  0  1.005511  0  0  0.117271  0.139169  0  1.011891  0
H  H30  1  0.49137561  0.61733695  0.98475113  1  0  0.135509  0  0.944485  0  0  0.142607  0  1.009379  0  0  0.147303  0  1.005754  0  0  0.117307  0.139206  0  1.012131  0
H  H31  1  0.99139099  0.88267271  0.51524914  1  0  0.135621  0  0.944221  0  0  0.142661  0  1.009178  0  0  0.147358  0  1.005552  0  0  0.117333  0.139262  0  1.011931  0
H  H32  1  0.73091925  0.01028824  0.10778229  1  0  0.138668  0  0.961462  0  0  0.14885  0  1.019999  0  0  0.153872  0  1.01615  0  0  0.116548  0.145397  0  1.022543  0
H  H33  1  0.23094689  0.48970890  0.39221335  1  0  0.13863  0  0.961449  0  0  0.148924  0  1.019836  0  0  0.153949  0  1.015973  0  0  0.116512  0.145471  0  1.022394  0
H  H34  1  0.26906870  0.98972452  0.89222757  1  0  0.138636  0  0.961624  0  0  0.148785  0  1.020189  0  0  0.15381  0  1.01633  0  0  0.116514  0.14533  0  1.022747  0
H  H35  1  0.76907605  0.51027486  0.60778088  1  0  0.138632  0  0.961458  0  0  0.148797  0  1.019992  0  0  0.153823  0  1.016132  0  0  0.116514  0.145342  0  1.022546  0
C  C36  1  0.62479124  0.20908418  0.91961465  1  0  0.11916  0  3.81191  0  0  0.122278  0  4.058932  0  0  0.124689  0  4.078888  0  0  0.108451  0.120896  0  4.046449  0
C  C37  1  0.12478614  0.29090852  0.58038535  1  0  0.119323  0  3.812036  0  0  0.122546  0  4.058933  0  0  0.124959  0  4.078893  0  0  0.108522  0.121167  0  4.046442  0
C  C38  1  0.37521355  0.79091393  0.08039706  1  0  0.119114  0  3.812553  0  0  0.122573  0  4.059066  0  0  0.124993  0  4.079028  0  0  0.108471  0.121187  0  4.046571  0
C  C39  1  0.87521088  0.70908235  0.41960341  1  0  0.119101  0  3.812234  0  0  0.122528  0  4.058751  0  0  0.124944  0  4.078706  0  0  0.108459  0.121151  0  4.046259  0
C  C40  1  0.57460923  0.27636333  0.00344638  1  0  -0.215642  0  3.641411  0  0  -0.250426  0  3.900505  0  0  -0.256823  0  3.915415  0  0  -0.08215  -0.245786  0  3.889954  0
C  C41  1  0.07462391  0.22363549  0.49655571  1  0  -0.21572  0  3.641405  0  0  -0.250553  0  3.900465  0  0  -0.256943  0  3.915369  0  0  -0.082226  -0.245909  0  3.889907  0
C  C42  1  0.42536964  0.72362938  0.99656265  1  0  -0.215558  0  3.642008  0  0  -0.250514  0  3.90102  0  0  -0.256906  0  3.915921  0  0  -0.082188  -0.245861  0  3.890458  0
C  C43  1  0.92538348  0.77636873  0.50343360  1  0  -0.215615  0  3.641485  0  0  -0.250492  0  3.900535  0  0  -0.256883  0  3.915438  0  0  -0.082154  -0.24585  0  3.889984  0
C  C44  1  0.61635632  0.20724755  0.07468646  1  0  0.432668  0  3.857371  0  0  0.420936  0  4.119849  0  0  0.43839  0  4.134025  0  0  0.107551  0.408868  0  4.112031  0
C  C45  1  0.11636851  0.29275475  0.42531018  1  0  0.432769  0  3.857141  0  0  0.421072  0  4.119574  0  0  0.438527  0  4.133747  0  0  0.107613  0.408992  0  4.111771  0
C  C46  1  0.38365366  0.79275319  0.92531980  1  0  0.432404  0  3.857376  0  0  0.420688  0  4.119912  0  0  0.43814  0  4.134094  0  0  0.107501  0.408599  0  4.11211  0
C  C47  1  0.88365962  0.70725256  0.57468278  1  0  0.432548  0  3.857468  0  0  0.420709  0  4.120095  0  0  0.438162  0  4.134276  0  0  0.107555  0.408622  0  4.112295  0
C  C48  1  0.69830479  0.06708269  0.05452394  1  0  -0.220934  0  3.606461  0  0  -0.253049  0  3.859096  0  0  -0.261244  0  3.875994  0  0  -0.086826  -0.247467  0  3.846906  0
C  C49  1  0.19831815  0.43291018  0.44547184  1  0  -0.220991  0  3.606442  0  0  -0.253263  0  3.858997  0  0  -0.26147  0  3.875903  0  0  -0.086862  -0.247681  0  3.846818  0
C  C50  1  0.30169093  0.93292680  0.94548482  1  0  -0.220669  0  3.606523  0  0  -0.252881  0  3.859138  0  0  -0.261077  0  3.876042  0  0  -0.086789  -0.247302  0  3.84695  0
C  C51  1  0.80170350  0.56708473  0.55452264  1  0  -0.22096  0  3.606546  0  0  -0.253031  0  3.859046  0  0  -0.261227  0  3.875953  0  0  -0.086808  -0.24745  0  3.846864  0
C  C52  1  0.74175752  0.00748665  0.96803885  1  0  0.120038  0  3.784441  0  0  0.122503  0  4.036629  0  0  0.125083  0  4.058833  0  0  0.10765  0.120879  0  4.022962  0
C  C53  1  0.24177576  0.49251293  0.53196309  1  0  0.11971  0  3.784443  0  0  0.122424  0  4.036353  0  0  0.12502  0  4.058538  0  0  0.107511  0.1208  0  4.022691  0
C  C54  1  0.25821358  0.99253529  0.03196776  1  0  0.119605  0  3.784545  0  0  0.122356  0  4.036338  0  0  0.124949  0  4.058524  0  0  0.107546  0.120741  0  4.022662  0
C  C55  1  0.75824070  0.50747520  0.46803239  1  0  0.119833  0  3.784424  0  0  0.122504  0  4.036284  0  0  0.125086  0  4.058483  0  0  0.107607  0.120879  0  4.022621  0
C  C56  1  0.59709772  0.28153131  0.84202960  1  0  0.683667  0  3.849347  0  0  0.638091  0  4.132408  0  0  0.672975  0  4.125016  0  0  0.24386  0.614344  0  4.14022  0
C  C57  1  0.09708730  0.21847440  0.65797808  1  0  0.683239  0  3.849707  0  0  0.637611  0  4.13283  0  0  0.672478  0  4.12548  0  0  0.243594  0.613873  0  4.14062  0
C  C58  1  0.40290577  0.71845886  0.15798360  1  0  0.682966  0  3.849834  0  0  0.637322  0  4.132874  0  0  0.672184  0  4.125538  0  0  0.243485  0.613597  0  4.140641  0
C  C59  1  0.90288897  0.78153892  0.34202411  1  0  0.683139  0  3.849822  0  0  0.637589  0  4.132712  0  0  0.672452  0  4.125364  0  0  0.243635  0.613846  0  4.140506  0
C  C60  1  0.83594814  0.86140388  0.94015494  1  0  0.660784  0  3.861034  0  0  0.60915  0  4.163186  0  0  0.642245  0  4.155946  0  0  0.228386  0.586829  0  4.168234  0
C  C61  1  0.33596273  0.63861977  0.55985153  1  0  0.660958  0  3.860752  0  0  0.60924  0  4.162909  0  0  0.642334  0  4.155675  0  0  0.228502  0.586915  0  4.167958  0
C  C62  1  0.16405277  0.13864427  0.05985981  1  0  0.660793  0  3.860921  0  0  0.609164  0  4.162905  0  0  0.64226  0  4.155669  0  0  0.228339  0.58684  0  4.167952  0
C  C63  1  0.66406022  0.36138264  0.44014722  1  0  0.660992  0  3.860922  0  0  0.609305  0  4.163005  0  0  0.6424  0  4.155769  0  0  0.22842  0.586985  0  4.168049  0
N  N64  1  0.70739043  0.07792531  0.90127034  1  0  -0.481347  0  3.32529  0  0  -0.435251  0  3.581937  0  0  -0.457461  0  3.604304  0  0  -0.41679  -0.424819  0  3.567376  0
N  N65  1  0.20739566  0.42206732  0.59872298  1  0  -0.481224  0  3.325493  0  0  -0.435248  0  3.582035  0  0  -0.457459  0  3.604398  0  0  -0.416692  -0.424822  0  3.567472  0
N  N66  1  0.29261696  0.92207070  0.09872429  1  0  -0.481161  0  3.325701  0  0  -0.435279  0  3.582179  0  0  -0.457493  0  3.604552  0  0  -0.416728  -0.424858  0  3.567621  0
N  N67  1  0.79261302  0.57791917  0.40126452  1  0  -0.481307  0  3.325305  0  0  -0.435419  0  3.581824  0  0  -0.457618  0  3.60419  0  0  -0.41687  -0.424987  0  3.567259  0
O  O68  1  0.05940765  0.11076164  0.83404870  1  0  -0.958732  0  1.877156  0  0  -0.907315  0  2.072882  0  0  -0.936127  0  2.033392  0  0  -0.664677  -0.893437  0  2.096334  0
O  O69  1  0.55941110  0.38923157  0.66595024  1  0  -0.958764  0  1.877101  0  0  -0.907441  0  2.072709  0  0  -0.936247  0  2.033208  0  0  -0.664661  -0.89357  0  2.096153  0
O  O70  1  0.94058937  0.88924202  0.16594828  1  0  -0.958741  0  1.877308  0  0  -0.907412  0  2.072887  0  0  -0.936229  0  2.033412  0  0  -0.664702  -0.89354  0  2.096338  0
O  O71  1  0.44060017  0.61077411  0.33404960  1  0  -0.958842  0  1.87709  0  0  -0.907583  0  2.072693  0  0  -0.936361  0  2.03317  0  0  -0.664787  -0.893723  0  2.09617  0
O  O72  1  0.66560229  0.01233335  0.60044074  1  0  -0.858445  0  1.836101  0  0  -0.811799  0  2.019347  0  0  -0.835226  0  1.985842  0  0  -0.591024  -0.800207  0  2.038105  0
O  O73  1  0.16560655  0.48765663  0.89956201  1  0  -0.858446  0  1.836094  0  0  -0.811744  0  2.019394  0  0  -0.835167  0  1.985883  0  0  -0.591036  -0.800159  0  2.038146  0
O  O74  1  0.33438825  0.98765278  0.39956674  1  0  -0.858694  0  1.835724  0  0  -0.811998  0  2.018984  0  0  -0.835419  0  1.98551  0  0  -0.591112  -0.800409  0  2.037739  0
O  O75  1  0.83438269  0.51233703  0.10043423  1  0  -0.858555  0  1.836174  0  0  -0.811835  0  2.019414  0  0  -0.835249  0  1.985858  0  0  -0.591019  -0.800248  0  2.038195  0
O  O76  1  0.54042374  0.88967646  0.73798301  1  0  -0.955165  0  1.847042  0  0  -0.907189  0  2.045205  0  0  -0.936268  0  2.005297  0  0  -0.675927  -0.893385  0  2.069083  0
O  O77  1  0.04041323  0.61030881  0.76201051  1  0  -0.955187  0  1.847038  0  0  -0.907174  0  2.045232  0  0  -0.936245  0  2.005334  0  0  -0.675955  -0.893375  0  2.069104  0
O  O78  1  0.45958754  0.11030760  0.26202223  1  0  -0.95501  0  1.847035  0  0  -0.907062  0  2.045247  0  0  -0.936137  0  2.005344  0  0  -0.675815  -0.893266  0  2.069125  0
O  O79  1  0.95958768  0.38969393  0.23798376  1  0  -0.955107  0  1.847104  0  0  -0.907137  0  2.045343  0  0  -0.936195  0  2.00545  0  0  -0.675853  -0.893338  0  2.069225  0
O  O80  1  0.68113836  0.22650946  0.77180504  1  0  -0.719209  0  2.077328  0  0  -0.657947  0  2.313203  0  0  -0.691677  0  2.297875  0  0  -0.373905  -0.64046  0  2.321923  0
O  O81  1  0.18116435  0.27349891  0.72818923  1  0  -0.719019  0  2.077438  0  0  -0.657724  0  2.313305  0  0  -0.691437  0  2.297999  0  0  -0.373897  -0.640241  0  2.322008  0
O  O82  1  0.31881458  0.77349650  0.22819096  1  0  -0.718847  0  2.077488  0  0  -0.657596  0  2.313356  0  0  -0.691325  0  2.298069  0  0  -0.373787  -0.640116  0  2.322054  0
O  O83  1  0.81880804  0.72651470  0.27180912  1  0  -0.718899  0  2.077438  0  0  -0.657726  0  2.313259  0  0  -0.691434  0  2.297969  0  0  -0.373807  -0.640236  0  2.321956  0
O  O84  1  0.49640705  0.39132025  0.84919466  1  0  -0.690296  0  2.008789  0  0  -0.635362  0  2.255004  0  0  -0.667608  0  2.239538  0  0  -0.376176  -0.619134  0  2.263285  0
O  O85  1  0.99635219  0.10870743  0.65079696  1  0  -0.690087  0  2.008766  0  0  -0.635187  0  2.255049  0  0  -0.667423  0  2.239574  0  0  -0.376009  -0.61896  0  2.263328  0
O  O86  1  0.50361589  0.60867043  0.15079666  1  0  -0.689965  0  2.00875  0  0  -0.63507  0  2.25495  0  0  -0.667282  0  2.239473  0  0  -0.376066  -0.618853  0  2.263221  0
O  O87  1  0.00359039  0.89133176  0.34920299  1  0  -0.690099  0  2.008714  0  0  -0.635201  0  2.254843  0  0  -0.667444  0  2.239402  0  0  -0.376126  -0.618979  0  2.263124  0
O  O88  1  0.87281514  0.82886479  0.85774012  1  0  -0.716879  0  2.043103  0  0  -0.653324  0  2.282673  0  0  -0.687062  0  2.268738  0  0  -0.363004  -0.635431  0  2.290273  0
O  O89  1  0.37280918  0.67113153  0.64227023  1  0  -0.716848  0  2.04311  0  0  -0.653275  0  2.282703  0  0  -0.68701  0  2.268769  0  0  -0.362962  -0.635382  0  2.290307  0
O  O90  1  0.12720781  0.17112828  0.14227929  1  0  -0.716776  0  2.043098  0  0  -0.653231  0  2.282643  0  0  -0.686963  0  2.268713  0  0  -0.362911  -0.635341  0  2.290251  0
O  O91  1  0.62719692  0.32885411  0.35772878  1  0  -0.716966  0  2.043122  0  0  -0.653414  0  2.282679  0  0  -0.687138  0  2.26875  0  0  -0.362979  -0.635521  0  2.290284  0
O  O92  1  0.87430545  0.78157805  0.99515637  1  0  -0.628546  0  1.917497  0  0  -0.578151  0  2.134458  0  0  -0.60054  0  2.122914  0  0  -0.319457  -0.56188  0  2.141349  0
O  O93  1  0.37431340  0.71841552  0.50483034  1  0  -0.628546  0  1.917409  0  0  -0.578162  0  2.134435  0  0  -0.60056  0  2.122894  0  0  -0.319432  -0.561884  0  2.141327  0
O  O94  1  0.12568639  0.21840564  0.00482364  1  0  -0.628394  0  1.917587  0  0  -0.578062  0  2.134576  0  0  -0.600453  0  2.123033  0  0  -0.319342  -0.561789  0  2.141471  0
O  O95  1  0.62570436  0.28158385  0.49516411  1  0  -0.6285  0  1.917383  0  0  -0.578128  0  2.134388  0  0  -0.600524  0  2.122855  0  0  -0.319399  -0.561855  0  2.141276  0
O  O96  1  0.58074145  0.27062913  0.15612864  1  0  -0.757149  0  2.068647  0  0  -0.690599  0  2.314054  0  0  -0.724811  0  2.301523  0  0  -0.433759  -0.673561  0  2.3206  0
O  O97  1  0.08074982  0.22936119  0.34386709  1  0  -0.757245  0  2.068746  0  0  -0.690711  0  2.314183  0  0  -0.724943  0  2.301651  0  0  -0.43384  -0.673665  0  2.320729  0
O  O98  1  0.41924909  0.72936223  0.84386858  1  0  -0.757131  0  2.068693  0  0  -0.690577  0  2.314127  0  0  -0.724811  0  2.301603  0  0  -0.433804  -0.673532  0  2.320675  0
O  O99  1  0.91926275  0.77063703  0.65612785  1  0  -0.756995  0  2.068602  0  0  -0.690385  0  2.314079  0  0  -0.724633  0  2.30157  0  0  -0.433754  -0.673339  0  2.320637  0
