# generated using pymatgen
data_Zn4H10C22N4O13
_symmetry_space_group_name_H-M   'P 1'
_cell_length_a   16.01817415
_cell_length_b   15.94850694
_cell_length_c   17.04806719
_cell_angle_alpha   62.42897548
_cell_angle_beta   62.65371856
_cell_angle_gamma   90.12099216
_symmetry_Int_Tables_number   1
_chemical_formula_structural   Zn4H10C22N4O13
_chemical_formula_sum   'Zn8 H20 C44 N8 O26'
_cell_volume   3299.19403725
_cell_formula_units_Z   2
loop_
 _symmetry_equiv_pos_site_id
 _symmetry_equiv_pos_as_xyz
  1  'x, y, z'
loop_
 _atom_site_type_symbol
 _atom_site_label
 _atom_site_symmetry_multiplicity
 _atom_site_fract_x
 _atom_site_fract_y
 _atom_site_fract_z
 _atom_site_occupancy
 _atom_site_pbe_bader_charge
 _atom_site_pbe_bader_spin_density
 _atom_site_pbe_cm5_charge
 _atom_site_pbe_ddec_charge
 _atom_site_pbe_ddec_spin_density
 _atom_site_pbe_ddec_sum_bond_order
 _atom_site_pbe_magmom
Zn  Zn0  1  0.89407627  0.29482742  0.40922549  1  1.317844  0  0.680776  0.967963  0  2.349987  0
Zn  Zn1  1  0.29349027  0.89451120  0.41037289  1  1.31574  0  0.677981  0.964281  0  2.358953  0
Zn  Zn2  1  0.69251137  0.29368451  0.41286663  1  1.301561  0  0.675769  0.956591  0  2.377703  0
Zn  Zn3  1  0.30748997  0.70631561  0.58713357  1  1.301565  0  0.675769  0.956605  0  2.377662  0
Zn  Zn4  1  0.70650725  0.10548525  0.58962526  1  1.315638  0  0.677973  0.964253  0  2.358917  0
Zn  Zn5  1  0.10592024  0.70517050  0.59077539  1  1.317656  0  0.680797  0.968027  0  2.34983  0
Zn  Zn6  1  0.70775238  0.30800418  0.58741753  1  1.302418  0  0.682623  0.969434  0  2.365271  0
Zn  Zn7  1  0.29224684  0.69199595  0.41258240  1  1.302396  0  0.682608  0.969412  0  2.365389  0
H  H8  1  0.97516521  0.66446472  0.92767375  1  0.098252  0  0.113374  0.121382  0  0.968625  0
H  H9  1  0.30371713  0.49291231  0.97561056  1  0.081095  0  0.114935  0.125878  0  0.964559  0
H  H10  1  0.20124074  0.38988331  0.04578334  1  0.016413  0  0.088337  0.080835  0  1.00071  0
H  H11  1  0.19151185  0.48306761  0.07738446  1  0.082802  0  0.106111  0.117469  0  0.976173  0
H  H12  1  0.76021789  0.45713406  0.13520098  1  0.453046  0  0.301847  0.259301  0  0.973814  0
H  H13  1  0.69627948  0.50708856  0.02438959  1  0.080898  0  0.114909  0.125844  0  0.964532  0
H  H14  1  0.80848768  0.51693105  0.92261774  1  0.082752  0  0.106111  0.117487  0  0.976163  0
H  H15  1  0.79875879  0.61011535  0.95421886  1  0.016437  0  0.088339  0.080835  0  1.000761  0
H  H16  1  0.26655180  0.98253373  0.13649109  1  0.414897  0  0.306294  0.252257  0  0.940648  0
H  H17  1  0.23193017  0.12867917  0.04173790  1  0.074306  0  0.108043  0.116414  0  0.974596  0
H  H18  1  0.29028585  0.08468034  0.95596613  1  0.008939  0  0.088009  0.081157  0  1.000454  0
H  H19  1  0.02482940  0.33553395  0.07233116  1  0.098114  0  0.113374  0.121403  0  0.968621  0
H  H20  1  0.35806657  0.18154965  0.94678005  1  0.059119  0  0.10645  0.119106  0  0.99029  0
H  H21  1  0.73344963  0.01746933  0.86350486  1  0.412797  0  0.30632  0.252312  0  0.940612  0
H  H22  1  0.76807237  0.87132536  0.95826104  1  0.074361  0  0.108089  0.116472  0  0.974533  0
H  H23  1  0.64193637  0.81845635  0.05321867  1  0.059131  0  0.106449  0.119077  0  0.990314  0
H  H24  1  0.70971789  0.91532860  0.04402862  1  0.009401  0  0.088002  0.081174  0  1.00046  0
H  H25  1  0.23977622  0.54286535  0.86480265  1  0.453079  0  0.301872  0.259401  0  0.973771  0
H  H26  1  0.58447390  0.03942052  0.07254640  1  0.088986  0  0.116992  0.127715  0  0.960619  0
H  H27  1  0.41552713  0.96058107  0.92745387  1  0.088988  0  0.116979  0.127688  0  0.96064  0
C  C28  1  0.61188739  0.11245598  0.77947017  1  1.560826  0  0.227106  0.609514  0  4.183062  0
C  C29  1  0.47466894  0.52821871  0.49842188  1  -0.193229  0  -0.011008  -0.102154  0  3.911904  0
C  C30  1  0.97309648  0.02672801  0.50007131  1  -0.173704  0  -0.013109  -0.104327  0  3.909648  0
C  C31  1  0.02690707  0.97327505  0.49993193  1  0.065366  0  -0.012826  -0.103966  0  3.909575  0
C  C32  1  0.52532777  0.47177995  0.50157332  1  0.077163  0  -0.01103  -0.102208  0  3.911791  0
C  C33  1  0.52776884  0.02660668  0.49930470  1  0.055897  0  -0.011395  -0.103106  0  3.910652  0
C  C34  1  0.47223048  0.97339638  0.50068746  1  -0.195341  0  -0.011262  -0.102918  0  3.910703  0
C  C35  1  0.38811013  0.88754562  0.22052752  1  1.560678  0  0.227056  0.609507  0  4.183399  0
C  C36  1  0.90933322  0.09093392  0.49982835  1  1.65048  0  0.241007  0.670219  0  4.232006  0
C  C37  1  0.09066922  0.90906767  0.50017425  1  1.650569  0  0.240946  0.670096  0  4.232077  0
C  C38  1  0.58694457  0.40564138  0.50360397  1  1.66055  0  0.243167  0.673442  0  4.228015  0
C  C39  1  0.41305586  0.59435801  0.49639400  1  1.66046  0  0.243172  0.673456  0  4.22807  0
C  C40  1  0.59336559  0.09049942  0.49792430  1  1.672002  0  0.242542  0.67471  0  4.224305  0
C  C41  1  0.88334298  0.39061729  0.21966361  1  1.526328  0  0.23307  0.619591  0  4.166653  0
C  C42  1  0.40663513  0.90950364  0.50206961  1  1.671487  0  0.242455  0.674563  0  4.22447  0
C  C43  1  0.91143979  0.41161704  0.49528996  1  1.647437  0  0.24713  0.678482  0  4.216044  0
C  C44  1  0.08856385  0.58837867  0.50470705  1  1.647216  0  0.24729  0.678736  0  4.215714  0
C  C45  1  0.97463175  0.47416043  0.49754778  1  0.07466  0  -0.006364  -0.095691  0  3.898049  0
C  C46  1  0.02537420  0.52583086  0.50245132  1  -0.167045  0  -0.006383  -0.095657  0  3.897957  0
C  C47  1  0.11665504  0.60938358  0.78033828  1  1.526415  0  0.233058  0.619533  0  4.166673  0
C  C48  1  0.02021829  0.54917279  0.04019113  1  0.083297  0  0.015675  0.010953  0  3.73711  0
C  C49  1  0.97977803  0.45082440  0.95981192  1  0.08321  0  0.01572  0.010989  0  3.737068  0
C  C50  1  0.51579771  0.09873511  0.96717651  1  0.08763  0  0.015539  0.012091  0  3.752958  0
C  C51  1  0.48420543  0.90126648  0.03282109  1  0.087487  0  0.015506  0.011935  0  3.753273  0
C  C52  1  0.98488887  0.59066666  0.96086116  1  -0.043252  0  -0.06395  -0.136774  0  3.594739  0
C  C53  1  0.01510895  0.40933347  0.03914055  1  -0.043135  0  -0.063977  -0.136857  0  3.594698  0
C  C54  1  0.54773219  0.02173487  0.03948171  1  -0.036392  0  -0.060115  -0.137237  0  3.577253  0
C  C55  1  0.45227005  0.97826598  0.96051778  1  -0.036469  0  -0.060149  -0.137245  0  3.577337  0
C  C56  1  0.05933858  0.55280694  0.89519513  1  0.062551  0  0.00283  -0.090073  0  3.683041  0
C  C57  1  0.94065643  0.44719319  0.10480838  1  0.06266  0  0.002891  -0.09  0  3.683074  0
C  C58  1  0.44646281  0.94427695  0.10546153  1  0.029887  0  0.003468  -0.088252  0  3.659924  0
C  C59  1  0.55354013  0.05572391  0.89453766  1  0.029794  0  0.003526  -0.088119  0  3.659727  0
C  C60  1  0.09754151  0.51062292  0.97125541  1  0.520185  0  0.116129  0.194453  0  3.755077  0
C  C61  1  0.90245361  0.48937501  0.02874959  1  0.520127  0  0.116069  0.1943  0  3.754917  0
C  C62  1  0.41157297  0.02064953  0.03530423  1  0.527276  0  0.117826  0.204208  0  3.711723  0
C  C63  1  0.58842987  0.97935354  0.96469345  1  0.52686  0  0.117777  0.204151  0  3.711813  0
C  C64  1  0.03911992  0.59889227  0.08366940  1  0.81305  0  0.161951  0.228544  0  4.037664  0
C  C65  1  0.96087659  0.40110565  0.91633441  1  0.812684  0  0.161905  0.22849  0  4.037783  0
C  C66  1  0.53045828  0.19985329  0.93620628  1  0.820387  0  0.165851  0.234309  0  4.022527  0
C  C67  1  0.46954466  0.80014757  0.06379232  1  0.820434  0  0.165926  0.234342  0  4.022614  0
C  C68  1  0.22413191  0.46981839  0.01307256  1  0.260691  0  -0.134737  -0.203364  0  3.986197  0
C  C69  1  0.77586612  0.53018247  0.98692992  1  0.260907  0  -0.134717  -0.203455  0  3.986204  0
C  C70  1  0.29959414  0.11232216  0.00093963  1  0.262804  0  -0.137864  -0.209485  0  3.987436  0
C  C71  1  0.70040860  0.88768311  0.99905832  1  0.262323  0  -0.137939  -0.209557  0  3.987424  0
N  N72  1  0.05522166  0.63984235  0.11921122  1  -1.1019  0  -0.327956  -0.37413  0  2.676737  0
N  N73  1  0.80399998  0.47218094  0.06167994  1  -1.187874  0  -0.466815  -0.343038  0  3.576461  0
N  N74  1  0.32317839  0.04344762  0.07620645  1  -1.150784  0  -0.465414  -0.346127  0  3.525167  0
N  N75  1  0.67682515  0.95655544  0.92379035  1  -1.148393  0  -0.4654  -0.346164  0  3.525145  0
N  N76  1  0.19599674  0.52781772  0.93832406  1  -1.187991  0  -0.466835  -0.343358  0  3.576625  0
N  N77  1  0.94478128  0.36015851  0.88078913  1  -1.101638  0  -0.327911  -0.374077  0  2.676833  0
N  N78  1  0.53942744  0.28189639  0.91397492  1  -1.100053  0  -0.318709  -0.363708  0  2.672309  0
N  N79  1  0.46057500  0.71810520  0.08602182  1  -1.100072  0  -0.318736  -0.363667  0  2.672335  0
O  O80  1  0.75049924  0.24995358  0.49978288  1  -1.198182  0  -0.569738  -1.040102  0  2.528946  0
O  O81  1  0.36071902  0.79435979  0.26557268  1  -1.155002  0  -0.303542  -0.533076  0  2.350228  0
O  O82  1  0.93291808  0.35926475  0.26293372  1  -1.159957  0  -0.307597  -0.536613  0  2.322333  0
O  O83  1  0.06708004  0.64073391  0.73706791  1  -1.159862  0  -0.307609  -0.536626  0  2.322312  0
O  O84  1  0.81847680  0.04891859  0.56529170  1  -1.139431  0  -0.299223  -0.524572  0  2.27797  0
O  O85  1  0.18152544  0.95108227  0.43471014  1  -1.139541  0  -0.299181  -0.524579  0  2.278055  0
O  O86  1  0.60282280  0.37269778  0.44417762  1  -1.141702  0  -0.301441  -0.5266  0  2.277918  0
O  O87  1  0.39717983  0.62729940  0.55582152  1  -1.141637  0  -0.301407  -0.526572  0  2.278001  0
O  O88  1  0.24949868  0.75004434  0.50021975  1  -1.198184  0  -0.569759  -1.040113  0  2.528917  0
O  O89  1  0.61957374  0.04868299  0.56371194  1  -1.142127  0  -0.298308  -0.523361  0  2.274167  0
O  O90  1  0.38042408  0.95131714  0.43628508  1  -1.141876  0  -0.298291  -0.523309  0  2.274277  0
O  O91  1  0.61761182  0.18173075  0.43098768  1  -1.139811  0  -0.30011  -0.525195  0  2.276909  0
O  O92  1  0.38239382  0.81827231  0.56900586  1  -1.139686  0  -0.30008  -0.525157  0  2.276891  0
O  O93  1  0.82029429  0.39354971  0.55616522  1  -1.140916  0  -0.297056  -0.522206  0  2.283482  0
O  O94  1  0.17971106  0.60644452  0.44383403  1  -1.140975  0  -0.297131  -0.522312  0  2.283475  0
O  O95  1  0.95332863  0.38105116  0.43349582  1  -1.128722  0  -0.297547  -0.525137  0  2.274001  0
O  O96  1  0.04667350  0.61894675  0.56649971  1  -1.128539  0  -0.297592  -0.525252  0  2.273846  0
O  O97  1  0.95104887  0.18225344  0.43433258  1  -1.142241  0  -0.298726  -0.523034  0  2.275633  0
O  O98  1  0.04895236  0.81774889  0.56566905  1  -1.142186  0  -0.298721  -0.522995  0  2.275582  0
O  O99  1  0.61869634  0.38767717  0.56424500  1  -1.139929  0  -0.295845  -0.520019  0  2.279017  0
O  O100  1  0.38130419  0.61232516  0.43575224  1  -1.139989  0  -0.295902  -0.520094  0  2.278899  0
O  O101  1  0.62961578  0.06141612  0.73694715  1  -1.151795  0  -0.30927  -0.534701  0  2.325579  0
O  O102  1  0.37039017  0.93858547  0.26304925  1  -1.151673  0  -0.309236  -0.534633  0  2.32567  0
O  O103  1  0.79106394  0.37910284  0.26486187  1  -1.172094  0  -0.30514  -0.538211  0  2.334167  0
O  O104  1  0.20893508  0.62090170  0.73513976  1  -1.172084  0  -0.305103  -0.538154  0  2.334249  0
O  O105  1  0.63926515  0.20564184  0.73442666  1  -1.154994  0  -0.303565  -0.533052  0  2.350011  0
