# generated using pymatgen
data_MnH12(C2N)10
_symmetry_space_group_name_H-M   'P 1'
_cell_length_a   7.35303666
_cell_length_b   11.14822430
_cell_length_c   11.14813614
_cell_angle_alpha   74.70029120
_cell_angle_beta   80.30763514
_cell_angle_gamma   80.30847443
_symmetry_Int_Tables_number   1
_chemical_formula_structural   MnH12(C2N)10
_chemical_formula_sum   'Mn2 H24 C40 N20'
_cell_volume   861.46822293
_cell_formula_units_Z   2
loop_
 _symmetry_equiv_pos_site_id
 _symmetry_equiv_pos_as_xyz
  1  'x, y, z'
loop_
 _atom_site_type_symbol
 _atom_site_label
 _atom_site_symmetry_multiplicity
 _atom_site_fract_x
 _atom_site_fract_y
 _atom_site_fract_z
 _atom_site_occupancy
 _atom_site_hle17_ddec_charge
 _atom_site_hle17_ddec_spin_density
 _atom_site_hle17_ddec_sum_bond_order
 _atom_site_hle17_magmom
 _atom_site_hse06_10hf_ddec_charge
 _atom_site_hse06_10hf_ddec_spin_density
 _atom_site_hse06_10hf_ddec_sum_bond_order
 _atom_site_hse06_10hf_magmom
 _atom_site_hse06_ddec_charge
 _atom_site_hse06_ddec_spin_density
 _atom_site_hse06_ddec_sum_bond_order
 _atom_site_hse06_magmom
 _atom_site_pbe_cm5_charge
 _atom_site_pbe_ddec_charge
 _atom_site_pbe_ddec_spin_density
 _atom_site_pbe_ddec_sum_bond_order
 _atom_site_pbe_magmom
Mn  Mn0  1  0.24999463  0.58280316  0.41720229  1  0.503184  -1.200726  2.929696  -1.16  0.368141  -1.118161  3.503439  -1.075  0.398493  -1.050204  3.452759  -1.003  0.724  0.361725  -1.229518  3.523598  -1.191
Mn  Mn1  1  0.74998643  0.41717434  0.58282690  1  0.503302  -1.20077  2.929078  -1.16  0.367907  -1.118224  3.502948  -1.075  0.398321  -1.050206  3.452265  -1.003  0.723742  0.36162  -1.229933  3.523037  -1.191
H  H2  1  0.10477223  0.54665729  0.99597168  1  0.11131  0.000367  0.991888  0.0  0.115681  0.00018  1.064486  0.0  0.119706  0.000181  1.062424  0.0  0.107817  0.1128  0.000132  1.066564  0.0
H  H3  1  0.39523378  0.00402694  0.45334222  1  0.111354  0.000367  0.991942  0.0  0.115705  0.00018  1.064556  0.0  0.119742  0.000181  1.062473  0.0  0.107838  0.112826  0.000132  1.066631  0.0
H  H4  1  0.89521078  0.45336245  0.00402093  1  0.111253  0.000367  0.991711  0.0  0.115675  0.00018  1.064273  0.0  0.119683  0.000181  1.062228  0.0  0.107811  0.112795  0.000132  1.066356  0.0
H  H5  1  0.60479928  0.99596860  0.54663553  1  0.111209  0.000367  0.991798  0.0  0.115693  0.00018  1.064266  0.0  0.119671  0.000181  1.062255  0.0  0.107831  0.112815  0.000132  1.066345  0.0
H  H6  1  0.35436789  0.64915006  0.84437555  1  0.113901  -0.000295  0.925531  -0.001  0.122551  0.00015  0.9884  0.0  0.12604  7.9e-05  0.984939  0.0  0.114163  0.120542  0.000213  0.990135  0.0
H  H7  1  0.14565102  0.15562700  0.35085211  1  0.113954  -0.000295  0.925467  -0.001  0.122608  0.00015  0.988331  0.0  0.126097  7.9e-05  0.984869  0.0  0.114184  0.120598  0.000213  0.990066  0.0
H  H8  1  0.64562725  0.35084533  0.15563643  1  0.113754  -0.000295  0.925545  -0.001  0.122494  0.00015  0.988305  0.0  0.125983  7.8e-05  0.984844  0.0  0.114162  0.120488  0.000213  0.990036  0.0
H  H9  1  0.85438425  0.84437417  0.64914899  1  0.113895  -0.000296  0.92532  -0.001  0.122543  0.00015  0.988186  0.0  0.126031  7.9e-05  0.984729  0.0  0.114176  0.120536  0.000213  0.989919  0.0
H  H10  1  0.63216689  0.66666306  0.27219171  1  0.106063  0.000212  0.969102  0.0  0.111138  0.000113  1.039911  0.0  0.114917  7.8e-05  1.037743  0.0  0.108017  0.108345  0.000229  1.041815  0.0
H  H11  1  0.86784430  0.72780850  0.33334607  1  0.106022  0.000212  0.969121  0.0  0.111117  0.000113  1.039906  0.0  0.114911  7.8e-05  1.037717  0.0  0.108004  0.10832  0.000229  1.041819  0.0
H  H12  1  0.36782608  0.33335015  0.72781758  1  0.106021  0.000212  0.969141  0.0  0.111115  0.000113  1.039931  0.0  0.114891  7.8e-05  1.037767  0.0  0.108049  0.108345  0.000229  1.041812  0.0
H  H13  1  0.13217549  0.27219261  0.66664346  1  0.105892  0.000213  0.969332  0.0  0.111035  0.000113  1.04008  0.0  0.114848  7.8e-05  1.03787  0.0  0.107991  0.108242  0.000229  1.041993  0.0
H  H14  1  0.89975064  0.75289797  0.12429211  1  0.080896  -3.3e-05  0.981706  0.0  0.095132  0.000147  1.035963  0.0  0.096954  4.1e-05  1.03612  0.0  0.098373  0.093445  0.000267  1.036474  0.0
H  H15  1  0.60026137  0.87570015  0.24709809  1  0.08083  -3.3e-05  0.981784  0.0  0.095111  0.000147  1.035982  0.0  0.096932  4.1e-05  1.036137  0.0  0.098354  0.093423  0.000267  1.036495  0.0
H  H16  1  0.10023054  0.24709549  0.87569784  1  0.080959  -3.3e-05  0.98181  0.0  0.095173  0.000147  1.036046  0.0  0.096983  4.2e-05  1.036191  0.0  0.098418  0.093492  0.000266  1.036562  0.0
H  H17  1  0.39977520  0.12431886  0.75287120  1  0.080986  -3.4e-05  0.981795  0.0  0.095239  0.000147  1.036042  0.0  0.097058  4.2e-05  1.036173  0.0  0.098379  0.093553  0.000266  1.036558  0.0
H  H18  1  0.90717523  0.79064241  0.89607894  1  0.088124  0.000169  0.979313  0.0  0.09794  4.6e-05  1.043836  0.0  0.100169  2.7e-05  1.04366  0.0  0.097887  0.096466  7.6e-05  1.043926  0.0
H  H19  1  0.59282602  0.10390829  0.20935540  1  0.088193  0.000168  0.979346  0.0  0.098019  4.6e-05  1.043818  0.0  0.100243  2.7e-05  1.043656  0.0  0.097922  0.096505  7.6e-05  1.043954  0.0
H  H20  1  0.09282551  0.20934267  0.10390818  1  0.08807  0.000169  0.97947  0.0  0.097883  4.6e-05  1.043969  0.0  0.100107  2.7e-05  1.04382  0.0  0.097846  0.096369  7.6e-05  1.044105  0.0
H  H21  1  0.40718054  0.89611061  0.79063190  1  0.088224  0.000169  0.97942  0.0  0.097971  4.6e-05  1.043961  0.0  0.100228  2.7e-05  1.043794  0.0  0.097943  0.096456  7.6e-05  1.044099  0.0
H  H22  1  0.64687758  0.73536092  0.81063530  1  0.096649  4.4e-05  0.968335  0.0  0.101521  0.000125  1.042992  0.0  0.104826  3.4e-05  1.040566  0.0  0.102731  0.099051  0.000266  1.045099  0.0
H  H23  1  0.85311382  0.18936767  0.26463007  1  0.096665  4.4e-05  0.968354  0.0  0.101561  0.000125  1.042982  0.0  0.104817  3.4e-05  1.04061  0.0  0.102696  0.09909  0.000266  1.045088  0.0
H  H24  1  0.35309389  0.26462124  0.18937766  1  0.096554  4.4e-05  0.968352  0.0  0.101462  0.000125  1.042971  0.0  0.104758  3.4e-05  1.040552  0.0  0.102726  0.098993  0.000266  1.045072  0.0
H  H25  1  0.14689725  0.81063622  0.73536516  1  0.096517  4.4e-05  0.968351  0.0  0.101459  0.000125  1.04297  0.0  0.10476  3.4e-05  1.040548  0.0  0.102714  0.098988  0.000266  1.045076  0.0
C  C26  1  0.06683129  0.50983813  0.24406003  1  0.205892  0.004095  3.870909  0.002  0.179463  -0.000446  4.145715  -0.001  0.187536  -0.003808  4.158621  -0.003  0.214219  0.169813  0.010969  4.141212  0.006
C  C27  1  0.43316015  0.75594480  0.49016103  1  0.205687  0.004129  3.870897  0.002  0.179298  -0.000439  4.145686  -0.001  0.187365  -0.003805  4.158588  -0.003  0.214078  0.169666  0.01098  4.141187  0.006
C  C28  1  0.93317377  0.49014321  0.75596255  1  0.205534  0.004108  3.870896  0.002  0.178984  -0.000452  4.145773  -0.001  0.187036  -0.003812  4.158697  -0.003  0.213931  0.169338  0.010952  4.141256  0.006
C  C29  1  0.56681739  0.24404207  0.50985533  1  0.205628  0.00408  3.870876  0.002  0.179208  -0.000456  4.145592  -0.001  0.187268  -0.003819  4.158514  -0.003  0.21408  0.169579  0.010955  4.141091  0.006
C  C30  1  0.21009939  0.56955467  0.15759389  1  0.1728  0.015749  3.797301  0.01  0.170041  0.01302  4.041169  0.008  0.183884  0.00741  4.051564  0.005  0.126756  0.161925  0.016835  4.035015  0.009
C  C31  1  0.28989190  0.84241009  0.43044436  1  0.172913  0.015735  3.796943  0.01  0.170116  0.013017  4.040868  0.008  0.183984  0.007405  4.051218  0.005  0.126784  0.161951  0.016832  4.034783  0.009
C  C32  1  0.78989889  0.43042383  0.84241053  1  0.172632  0.015743  3.797164  0.01  0.169982  0.013016  4.040986  0.008  0.183866  0.007404  4.051326  0.005  0.126725  0.161912  0.016833  4.03477  0.009
C  C33  1  0.71009743  0.15759373  0.56956697  1  0.172816  0.015761  3.797196  0.01  0.170045  0.01302  4.04108  0.008  0.183913  0.007403  4.051426  0.005  0.126752  0.161903  0.016834  4.034962  0.009
C  C34  1  0.21199676  0.58179673  0.02802369  1  -0.136558  -0.007049  3.743247  -0.007  -0.158961  -0.002379  3.998597  -0.003  -0.167794  -0.002179  4.016109  -0.002  -0.083117  -0.153932  -0.001219  3.988093  -0.002
C  C35  1  0.28800519  0.97198003  0.41820502  1  -0.136626  -0.007039  3.743187  -0.007  -0.159031  -0.002376  3.998605  -0.003  -0.167876  -0.002169  4.016094  -0.002  -0.083135  -0.153987  -0.001218  3.988113  -0.002
C  C36  1  0.78798305  0.41820518  0.97197854  1  -0.136537  -0.007049  3.743029  -0.007  -0.159054  -0.002379  3.9985  -0.003  -0.167881  -0.002177  4.016012  -0.002  -0.083153  -0.154033  -0.00122  3.987973  -0.002
C  C37  1  0.71201750  0.02802767  0.58178600  1  -0.13642  -0.007059  3.742924  -0.007  -0.158954  -0.00238  3.998329  -0.003  -0.167757  -0.002174  4.015867  -0.002  -0.08309  -0.153914  -0.00122  3.987824  -0.002
C  C38  1  0.34885182  0.63849393  0.94495064  1  -0.038534  0.017771  3.69955  0.012  -0.064782  0.011814  3.953173  0.007  -0.056798  0.006117  3.966148  0.004  -0.066262  -0.069315  0.015698  3.943646  0.009
C  C39  1  0.15115185  0.05505459  0.36151225  1  -0.038464  0.017755  3.699269  0.012  -0.064726  0.011809  3.952862  0.007  -0.056747  0.006104  3.965849  0.004  -0.066199  -0.069255  0.015695  3.943336  0.009
C  C40  1  0.65112575  0.36149858  0.05505435  1  -0.038267  0.017774  3.699333  0.012  -0.064538  0.011815  3.953032  0.007  -0.056558  0.006111  3.966012  0.004  -0.066106  -0.069065  0.015705  3.943499  0.009
C  C41  1  0.84888226  0.94495878  0.63848217  1  -0.038573  0.017794  3.699035  0.012  -0.064738  0.011819  3.952711  0.007  -0.056766  0.00611  3.965681  0.004  -0.066276  -0.069262  0.015704  3.943177  0.009
C  C42  1  0.48965314  0.67749743  0.99241885  1  0.012787  -0.002656  3.792695  -0.003  0.033567  -0.000822  4.012775  -0.001  0.028515  -0.001592  4.038378  -0.002  -0.00471  0.036154  0.001546  3.996055  0.0
C  C43  1  0.01035293  0.00758734  0.32250159  1  0.012758  -0.00265  3.792523  -0.003  0.033566  -0.000821  4.012559  -0.001  0.02852  -0.001591  4.038149  -0.002  -0.004721  0.03614  0.001548  3.995863  0.0
C  C44  1  0.51033611  0.32248479  0.00758567  1  0.012973  -0.002659  3.792302  -0.003  0.033608  -0.000824  4.012561  -0.001  0.028562  -0.001595  4.038157  -0.002  -0.004624  0.036183  0.001543  3.995862  0.0
C  C45  1  0.98966236  0.99243722  0.67749212  1  0.012767  -0.002665  3.792235  -0.003  0.0333  -0.000824  4.012527  -0.001  0.028275  -0.001597  4.038088  -0.002  -0.004783  0.035874  0.001545  3.99583  0.0
C  C46  1  0.48145404  0.65954770  0.12609378  1  0.203391  0.006488  3.717063  0.004  0.202143  0.002283  3.955948  0.001  0.208214  0.001461  3.977169  0.001  0.111681  0.198391  0.002719  3.941687  0.001
C  C47  1  0.01854301  0.87391077  0.34045333  1  0.20335  0.006478  3.717307  0.004  0.202121  0.002282  3.956162  0.001  0.208184  0.001462  3.977393  0.001  0.111633  0.198374  0.002718  3.941897  0.001
C  C48  1  0.51856229  0.34044401  0.87390584  1  0.203198  0.006486  3.718169  0.004  0.202066  0.002283  3.956973  0.001  0.208141  0.001461  3.978205  0.001  0.11166  0.198317  0.00272  3.942727  0.001
C  C49  1  0.98144098  0.12611086  0.65953776  1  0.203146  0.006497  3.718105  0.004  0.202171  0.002284  3.956678  0.001  0.208228  0.001466  3.977912  0.001  0.11174  0.198424  0.002721  3.942419  0.001
C  C50  1  0.63359936  0.68673532  0.17104593  1  -0.143619  -0.003843  3.709787  -0.003  -0.167556  -0.000847  3.969302  -0.001  -0.170422  -0.001757  3.985962  -0.001  -0.091628  -0.166286  0.001685  3.958357  0.001
C  C51  1  0.86640296  0.82895485  0.31326845  1  -0.143565  -0.003837  3.709758  -0.003  -0.167511  -0.000846  3.969243  -0.001  -0.170388  -0.001758  3.985898  -0.001  -0.091586  -0.166242  0.001688  3.958296  0.001
C  C52  1  0.36640874  0.31327138  0.82896416  1  -0.143564  -0.003847  3.710266  -0.003  -0.167503  -0.000848  3.969683  -0.001  -0.17037  -0.001756  3.98634  -0.001  -0.091641  -0.166248  0.001684  3.958736  0.001
C  C53  1  0.13360154  0.17105184  0.68670529  1  -0.143149  -0.003854  3.710014  -0.003  -0.16715  -0.000848  3.969312  -0.001  -0.170038  -0.001759  3.985955  -0.001  -0.09144  -0.165886  0.001684  3.958377  0.001
C  C54  1  0.78253661  0.73305771  0.08837359  1  -0.045171  0.006931  3.766347  0.005  -0.059199  0.003603  4.010595  0.002  -0.058745  0.002518  4.029972  0.002  -0.086721  -0.0586  0.004321  3.997461  0.002
C  C55  1  0.71746867  0.91162301  0.26693807  1  -0.045147  0.006923  3.766395  0.005  -0.059204  0.003601  4.010647  0.002  -0.058746  0.002517  4.030026  0.002  -0.086763  -0.058604  0.00432  3.997503  0.002
C  C56  1  0.21745227  0.26693859  0.91161467  1  -0.045482  0.006936  3.766617  0.005  -0.059473  0.003604  4.010881  0.002  -0.058994  0.002515  4.030238  0.002  -0.086807  -0.058878  0.004325  3.997745  0.002
C  C57  1  0.28255174  0.08840063  0.73303015  1  -0.045496  0.006945  3.766676  0.005  -0.059583  0.003606  4.010977  0.002  -0.059112  0.002517  4.030359  0.002  -0.086769  -0.058978  0.004325  3.997829  0.002
C  C58  1  0.78714623  0.75495273  0.95798992  1  -0.062276  -0.003512  3.76736  -0.003  -0.076981  -0.000717  4.014701  -0.001  -0.079221  -0.001656  4.035561  -0.001  -0.091042  -0.076222  0.001994  4.000988  0.001
C  C59  1  0.71285595  0.04200386  0.24504935  1  -0.062357  -0.003505  3.767515  -0.003  -0.077062  -0.000716  4.014856  -0.001  -0.079299  -0.001656  4.035698  -0.001  -0.091044  -0.076273  0.001997  4.001158  0.001
C  C60  1  0.21283976  0.24503700  0.04199685  1  -0.062129  -0.003514  3.767508  -0.003  -0.076835  -0.000718  4.01481  -0.001  -0.079086  -0.001657  4.035653  -0.001  -0.090986  -0.076041  0.001991  4.001099  0.001
C  C61  1  0.28716140  0.95801695  0.75494152  1  -0.062408  -0.003522  3.767432  -0.003  -0.077022  -0.00072  4.014761  -0.001  -0.079306  -0.001656  4.035585  -0.001  -0.091122  -0.076227  0.001991  4.00105  0.001
C  C62  1  0.64272187  0.72644356  0.91082539  1  -0.106019  0.007385  3.753835  0.005  -0.126001  0.003357  4.003069  0.002  -0.127759  0.002546  4.024273  0.002  -0.087746  -0.124526  0.003413  3.989125  0.002
C  C63  1  0.85727729  0.08917533  0.27355921  1  -0.106093  0.007376  3.753931  0.005  -0.126123  0.003357  4.003184  0.002  -0.127841  0.002546  4.0244  0.002  -0.087751  -0.124641  0.003412  3.989229  0.002
C  C64  1  0.35724772  0.27354704  0.08917749  1  -0.105982  0.00739  3.753516  0.005  -0.125954  0.00336  4.002832  0.002  -0.127708  0.002549  4.024044  0.002  -0.087786  -0.124464  0.003417  3.988861  0.002
C  C65  1  0.14274557  0.91083894  0.72643542  1  -0.105783  0.007401  3.753218  0.005  -0.125805  0.003361  4.002506  0.002  -0.127569  0.002548  4.023717  0.002  -0.087727  -0.124319  0.003417  3.988544  0.002
N  N66  1  0.03870545  0.51597698  0.36508270  1  -0.229222  0.016786  3.142796  0.013  -0.188006  0.007912  3.444364  0.007  -0.200097  0.002908  3.454286  0.003  -0.230715  -0.182059  0.016309  3.438109  0.013
N  N67  1  0.46129186  0.63492387  0.48402060  1  -0.229131  0.016774  3.142634  0.013  -0.187929  0.007908  3.444126  0.007  -0.200015  0.002903  3.454057  0.003  -0.230645  -0.181983  0.016309  3.437863  0.013
N  N68  1  0.96133293  0.48402326  0.63492545  1  -0.22894  0.016781  3.143141  0.013  -0.187492  0.007915  3.444461  0.007  -0.199598  0.002902  3.454438  0.003  -0.230321  -0.181557  0.016322  3.438189  0.013
N  N69  1  0.53867150  0.36507703  0.51597939  1  -0.229071  0.016801  3.143294  0.013  -0.187661  0.007923  3.444613  0.007  -0.199771  0.002917  3.45458  0.003  -0.230465  -0.181726  0.016326  3.438353  0.013
N  N70  1  0.89379742  0.44684861  0.41578943  1  -0.046086  0.040799  3.199853  0.04  -0.010085  0.029476  3.526467  0.031  -0.018593  0.027809  3.537908  0.029  -0.141719  -0.004191  0.028413  3.519508  0.028
N  N71  1  0.60620471  0.58421575  0.55314503  1  -0.046312  0.040815  3.199926  0.04  -0.010221  0.02948  3.526477  0.031  -0.01875  0.02781  3.537928  0.029  -0.141819  -0.004325  0.028416  3.519515  0.028
N  N72  1  0.10620313  0.55312615  0.58422198  1  -0.046244  0.040802  3.200686  0.04  -0.010312  0.029468  3.527308  0.031  -0.018836  0.0278  3.538777  0.029  -0.141882  -0.004409  0.028401  3.52033  0.028
N  N73  1  0.39380429  0.41578719  0.44687223  1  -0.045977  0.040805  3.200258  0.04  -0.010036  0.029472  3.526868  0.031  -0.018553  0.027801  3.538329  0.029  -0.141729  -0.004141  0.028405  3.519907  0.028
N  N74  1  0.84536524  0.40231981  0.32680562  1  -0.053419  -0.010817  2.928871  -0.012  -0.053407  -0.011375  3.234127  -0.013  -0.0514  -0.013833  3.247596  -0.015  -0.078153  -0.059466  0.001771  3.228016  0.0
N  N75  1  0.65463769  0.67319991  0.59767405  1  -0.053295  -0.010793  2.928982  -0.012  -0.053316  -0.011368  3.234216  -0.013  -0.051301  -0.013828  3.247698  -0.015  -0.078066  -0.059376  0.001782  3.228101  0.0
N  N76  1  0.15462664  0.59766524  0.67321667  1  -0.053345  -0.010813  2.928508  -0.012  -0.053341  -0.011384  3.233746  -0.013  -0.051348  -0.013836  3.247239  -0.015  -0.078048  -0.059383  0.001756  3.22761  0.0
N  N77  1  0.34537448  0.32679930  0.40232858  1  -0.053548  -0.010838  2.928142  -0.013  -0.053572  -0.011391  3.233445  -0.013  -0.051579  -0.013845  3.246932  -0.015  -0.078224  -0.059617  0.001759  3.227321  0.0
N  N78  1  0.95088738  0.44056024  0.21973287  1  -0.262858  -0.007123  2.990076  -0.007  -0.238555  -0.006018  3.283794  -0.005  -0.252535  -0.003737  3.301339  -0.003  -0.192046  -0.225534  -0.011199  3.272783  -0.011
N  N79  1  0.54910217  0.78026729  0.55944284  1  -0.262812  -0.007136  2.990251  -0.007  -0.238538  -0.006023  3.283992  -0.005  -0.252514  -0.00374  3.301533  -0.003  -0.192042  -0.225516  -0.011206  3.272976  -0.011
N  N80  1  0.04908257  0.55943694  0.78028167  1  -0.26265  -0.007129  2.990242  -0.007  -0.238326  -0.006017  3.283964  -0.005  -0.252291  -0.003736  3.301516  -0.003  -0.192051  -0.22532  -0.011196  3.272959  -0.011
N  N81  1  0.45090499  0.21972909  0.44055844  1  -0.262696  -0.007118  2.990094  -0.007  -0.23843  -0.006013  3.283856  -0.005  -0.252395  -0.003731  3.301402  -0.003  -0.192065  -0.225419  -0.011194  3.272842  -0.011
N  N82  1  0.33421720  0.61050120  0.20879117  1  -0.319645  0.018907  3.102582  0.016  -0.269681  0.009481  3.372349  0.009  -0.286607  0.002471  3.383981  0.003  -0.28972  -0.257672  0.020427  3.358753  0.018
N  N83  1  0.16576969  0.79121241  0.38950004  1  -0.319576  0.018904  3.102563  0.016  -0.269641  0.009483  3.37237  0.009  -0.286561  0.002471  3.383983  0.003  -0.289716  -0.257618  0.020431  3.358793  0.018
N  N84  1  0.66576647  0.38948851  0.79121473  1  -0.319423  0.018878  3.103334  0.016  -0.269582  0.009477  3.373171  0.009  -0.286537  0.002471  3.384812  0.003  -0.289819  -0.257596  0.02042  3.359573  0.018
N  N85  1  0.83423039  0.20879145  0.61049832  1  -0.319582  0.018888  3.103334  0.016  -0.269677  0.00948  3.373043  0.009  -0.2866  0.002476  3.38466  0.003  -0.289838  -0.257666  0.020426  3.35946  0.018
