# generated using pymatgen
data_CuP2H48Au2C39S2(NO2)2
_symmetry_space_group_name_H-M   'P 1'
_cell_length_a   7.87275631
_cell_length_b   14.23687573
_cell_length_c   21.35814958
_cell_angle_alpha   77.40185155
_cell_angle_beta   81.07443184
_cell_angle_gamma   75.80308635
_symmetry_Int_Tables_number   1
_chemical_formula_structural   CuP2H48Au2C39S2(NO2)2
_chemical_formula_sum   'Cu2 P4 H96 Au4 C78 S4 N4 O8'
_cell_volume   2251.79441972
_cell_formula_units_Z   2
loop_
 _symmetry_equiv_pos_site_id
 _symmetry_equiv_pos_as_xyz
  1  'x, y, z'
loop_
 _atom_site_type_symbol
 _atom_site_label
 _atom_site_symmetry_multiplicity
 _atom_site_fract_x
 _atom_site_fract_y
 _atom_site_fract_z
 _atom_site_occupancy
 _atom_site_pbe_bader_charge
 _atom_site_pbe_bader_spin_density
 _atom_site_pbe_cm5_charge
 _atom_site_pbe_ddec_charge
 _atom_site_pbe_ddec_spin_density
 _atom_site_pbe_ddec_sum_bond_order
 _atom_site_pbe_magmom
Cu  Cu0  1  0.32788808  0.80728966  0.76500803  1  0.790149  -0.436843  0.567231  0.512054  -0.613286  2.530277  -0.438
Cu  Cu1  1  0.63576850  0.74881232  0.42152676  1  0.789936  0.430266  0.567316  0.504901  0.609163  2.543662  0.432
P  P2  1  0.07193269  0.19047478  0.84682299  1  1.534917  -0.000882  -0.008659  0.400069  -0.000488  4.430442  0.001
P  P3  1  0.26374934  0.91300994  0.00170117  1  1.546236  0.000245  0.001517  0.394172  0.000245  4.362678  0.001
P  P4  1  0.84757493  0.45539987  0.26047870  1  1.549768  0.000844  -0.001475  0.401247  0.000434  4.391342  -0.001
P  P5  1  0.65814290  0.35227703  0.48152571  1  1.540949  -3.5e-05  -0.00443  0.391509  -8.9e-05  4.398595  -0.001
H  H6  1  0.96170360  0.13716280  0.95720119  1  0.049273  -6e-06  0.103383  0.129179  2e-05  0.984029  0.0
H  H7  1  0.81419103  0.24278058  0.91912164  1  0.053465  5.1e-05  0.103662  0.127303  4.2e-05  0.982366  0.0
H  H8  1  0.01920662  0.31679817  0.94758368  1  0.065417  -3e-06  0.102757  0.102701  4e-06  1.002791  0.0
H  H9  1  0.40859476  0.22682819  0.79324273  1  0.061371  -8e-05  0.092714  0.084228  6e-06  1.051542  0.0
H  H10  1  0.93688097  0.40594884  0.80918393  1  0.04259  -2.1e-05  0.100198  0.097782  -1.1e-05  1.01179  0.0
H  H11  1  0.96082592  0.14063157  0.73808497  1  0.064899  -0.000268  0.096804  0.10076  -0.00013  1.018748  0.0
H  H12  1  0.73759675  0.13239598  0.85199705  1  0.044387  -7.5e-05  0.087478  0.085999  -5.8e-05  0.993018  0.0
H  H13  1  0.87557836  0.03037699  0.89565312  1  0.05089  -0.000543  0.06574  0.059092  -0.000535  1.079693  0.0
H  H14  1  0.20790389  0.42169129  0.96802488  1  0.08953  -7e-05  0.104293  0.102935  -4.9e-05  1.029294  0.0
H  H15  1  0.59305259  0.33267446  0.81378826  1  0.102287  -9e-06  0.095569  0.092779  -3e-06  1.053425  0.0
H  H16  1  0.77322770  0.50601785  0.71614368  1  0.107167  -1e-06  0.106976  0.114425  2e-06  0.995787  0.0
H  H17  1  0.79566924  0.24082505  0.64682686  1  0.087106  -2.5e-05  0.100696  0.101402  2e-06  1.023116  0.0
H  H18  1  0.68511589  0.07240991  0.99937962  1  0.035214  -8.7e-05  0.084403  0.079938  -2.8e-05  1.004132  0.0
H  H19  1  0.54032096  0.16258302  0.95005042  1  0.025134  -8.7e-05  0.084124  0.08019  -2.4e-05  1.005673  0.0
H  H20  1  0.49009945  0.43038641  0.90286087  1  0.092181  0.0  0.106311  0.112379  1e-05  1.005429  0.0
H  H21  1  0.70200340  0.42337246  0.63703519  1  0.090834  -6e-06  0.100489  0.099874  -1.2e-05  1.046701  0.0
H  H22  1  0.63313130  0.93897801  0.95286261  1  0.032499  -0.000188  0.088997  0.089672  -0.000139  0.979714  0.0
H  H23  1  0.50629794  0.02450577  0.89563069  1  0.039117  -0.000942  0.070337  0.069343  -0.000915  1.052899  0.0
H  H24  1  0.28045612  0.08319742  0.98165644  1  0.061359  -6e-06  0.098196  0.120593  2.4e-05  0.998209  0.0
H  H25  1  0.41341923  0.01084420  0.04184112  1  0.041744  4.5e-05  0.103947  0.122563  3.2e-05  0.997758  0.0
H  H26  1  0.23176218  0.00135393  0.12036620  1  0.061136  7e-06  0.102639  0.098579  7e-06  1.016387  0.0
H  H27  1  0.91352324  0.87533312  0.02718946  1  0.093026  4.9e-05  0.091283  0.090997  9e-05  1.034131  0.0
H  H28  1  0.44968070  0.74797338  0.94075588  1  0.132495  -0.000127  0.090687  0.10133  -7.5e-05  1.07225  0.0
H  H29  1  0.41540749  0.82963547  0.12735176  1  0.073521  -1e-06  0.100726  0.0963  -1.4e-05  1.033716  0.0
H  H30  1  0.99177545  0.03257061  0.20436693  1  0.14437  -9e-06  0.107422  0.125917  -4e-06  1.023905  0.0
H  H31  1  0.66788455  0.90830853  0.11277876  1  0.053254  -2e-06  0.094679  0.087641  3e-06  1.034684  0.0
H  H32  1  0.63689317  0.58885230  0.97988137  1  0.072972  -1e-06  0.106697  0.107917  1.3e-05  0.98985  0.0
H  H33  1  0.61935965  0.67076198  0.16420936  1  0.043826  -9e-06  0.088531  0.076174  -4.8e-05  1.072261  0.0
H  H34  1  0.70090232  0.99172150  0.20063794  1  0.116922  -1.4e-05  0.10466  0.108829  -1e-05  1.026392  0.0
H  H35  1  0.72672895  0.54904663  0.09201960  1  0.08809  -3e-06  0.095104  0.088812  -3e-06  1.044249  0.0
H  H36  1  0.34965234  0.63215875  0.74684233  1  0.439065  -0.000522  0.312028  0.304372  -0.000754  0.908922  0.0
H  H37  1  0.14534874  0.69094054  0.73397541  1  0.412665  -0.001144  0.302987  0.287631  -0.001031  0.935943  0.0
H  H38  1  0.38445486  0.85294771  0.64048698  1  0.42592  -0.001018  0.297563  0.288826  -0.000961  0.931388  -0.001
H  H39  1  0.52605537  0.75116452  0.66415228  1  0.497553  0.00031  0.284892  0.297313  -0.000159  0.989373  0.0
H  H40  1  0.15101946  0.57556199  0.84040179  1  0.055103  -0.00346  0.103119  0.072509  -0.002053  0.978793  -0.002
H  H41  1  0.83197867  0.64739303  0.82760240  1  0.049594  -0.001108  0.09003  0.135223  -0.000515  0.988805  -0.001
H  H42  1  0.74281163  0.77342049  0.82933034  1  0.07726  -0.000683  0.085692  0.142966  -0.00052  1.023694  0.0
H  H43  1  0.89118052  0.74056677  0.76282241  1  -0.021023  4.6e-05  0.083625  0.111639  0.000168  1.024326  0.0
H  H44  1  0.93336357  0.62660262  0.93870811  1  0.017693  -0.000369  0.089117  0.127121  -0.000138  1.001483  0.0
H  H45  1  0.83793739  0.75382378  0.93642771  1  0.049253  -0.000362  0.082462  0.126724  -0.000275  1.014973  0.0
H  H46  1  0.06225600  0.70462730  0.95236958  1  0.054041  -9e-06  0.076987  0.115781  5.9e-05  1.067574  0.0
H  H47  1  0.26686902  0.00188510  0.66573750  1  0.028172  0.000369  0.088129  0.125151  0.000323  1.016853  0.0
H  H48  1  0.32064990  0.10316687  0.68725007  1  0.026631  6.1e-05  0.070126  0.104746  0.000121  1.078977  0.0
H  H49  1  0.41636518  0.06516976  0.61256560  1  0.062105  0.000177  0.090792  0.131052  0.000112  1.02695  0.0
H  H50  1  0.71493347  0.83303680  0.69172264  1  0.057561  0.000215  0.109378  0.083321  0.000288  0.979471  0.0
H  H51  1  0.78517540  0.97926680  0.72170801  1  0.021099  -0.000473  0.083285  0.128587  -0.000373  1.017232  0.0
H  H52  1  0.62330179  0.09199847  0.71790948  1  0.049491  -0.000591  0.078347  0.114443  -0.000442  1.025221  0.0
H  H53  1  0.73001977  0.05082224  0.64539242  1  0.080271  -0.003254  0.090144  0.135337  -0.001534  1.009516  -0.002
H  H54  1  0.40900196  0.90503750  0.43244017  1  0.441113  -0.000542  0.309593  0.300554  4.6e-05  0.903977  0.0
H  H55  1  0.54222046  0.93659356  0.36749737  1  0.468861  0.000378  0.28708  0.285484  0.000618  0.96738  0.001
H  H56  1  0.86656314  0.82631995  0.45729879  1  0.403619  0.000972  0.297457  0.279784  0.000854  0.937226  0.001
H  H57  1  0.67253492  0.85950959  0.49903642  1  0.489212  5e-05  0.283576  0.287665  0.00052  1.009453  0.0
H  H58  1  0.21610073  0.88484148  0.37227854  1  0.049174  0.000429  0.106328  0.076712  0.000117  0.968719  0.0
H  H59  1  0.66728527  0.83312610  0.27648260  1  0.047472  -0.000381  0.088307  0.125512  -0.000362  1.015212  0.0
H  H60  1  0.60755797  0.75707069  0.23177526  1  0.019962  -2.6e-05  0.070511  0.106355  -7.3e-05  1.06946  0.0
H  H61  1  0.51298387  0.88653801  0.21897169  1  0.047994  -0.000179  0.090493  0.129671  -0.00012  1.01345  0.0
H  H62  1  0.14475927  0.77070257  0.31349045  1  0.011039  0.000354  0.081716  0.123205  0.000237  1.01502  0.0
H  H63  1  0.19387975  0.86059832  0.24507753  1  0.085121  0.002923  0.087809  0.134365  0.001364  1.038938  0.002
H  H64  1  0.29342070  0.73227528  0.24763248  1  0.02003  0.000649  0.07883  0.117325  0.000447  1.018979  0.001
H  H65  1  0.85775989  0.73933179  0.56943362  1  0.068726  0.004356  0.107863  0.084852  0.002527  0.99431  0.002
H  H66  1  0.85447396  0.50960417  0.55906478  1  0.034672  -1.9e-05  0.075018  0.110218  -7.9e-05  1.072164  0.0
H  H67  1  0.08577962  0.48517861  0.53401840  1  0.034882  0.000335  0.081474  0.12306  0.000243  1.018676  0.0
H  H68  1  0.99855778  0.54916526  0.59867806  1  0.020629  0.000274  0.08808  0.128913  0.000104  1.008981  0.0
H  H69  1  0.11809785  0.74190427  0.45633379  1  0.005321  5.4e-05  0.08152  0.115341  -8.6e-05  1.018556  0.0
H  H70  1  0.16654970  0.68153474  0.53561900  1  0.05586  0.001123  0.091885  0.139909  0.000506  0.989362  0.0
H  H71  1  0.23052797  0.61781904  0.46992714  1  0.065978  0.000932  0.081819  0.129117  0.000791  1.027873  0.0
H  H72  1  0.89295933  0.23669377  0.26798822  1  0.09586  1.7e-05  0.106765  0.109299  1.3e-05  1.0135  0.0
H  H73  1  0.69373722  0.14273918  0.24319030  1  0.118825  8e-06  0.109304  0.118112  -1e-06  1.001822  0.0
H  H74  1  0.42454796  0.22858430  0.19175616  1  0.08754  -4e-06  0.105682  0.103495  -1e-06  0.994504  0.0
H  H75  1  0.34650291  0.41405843  0.16602196  1  0.090927  8e-06  0.094311  0.092254  1e-06  1.046492  0.0
H  H76  1  0.53095823  0.50921586  0.19791580  1  0.035983  6.6e-05  0.094382  0.08752  2.1e-05  1.046243  0.0
H  H77  1  0.99691477  0.40909579  0.13088359  1  0.077741  3e-06  0.103825  0.103646  -0.0  0.99448  0.0
H  H78  1  0.16465293  0.50193762  0.03796741  1  0.071418  -2.1e-05  0.102263  0.101826  -9e-06  1.027333  0.0
H  H79  1  0.22653500  0.65878013  0.04568126  1  0.103042  3e-06  0.099996  0.099998  1.1e-05  1.046187  0.0
H  H80  1  0.12317748  0.72941728  0.14605972  1  0.084746  1e-06  0.099128  0.100786  -1.9e-05  1.019266  0.0
H  H81  1  0.95421249  0.64000360  0.23799768  1  0.091997  0.000174  0.095442  0.100503  6.4e-05  1.020572  0.0
H  H82  1  0.99523696  0.34289002  0.52110933  1  0.07835  -4e-05  0.090366  0.090302  -8.6e-05  1.052173  0.0
H  H83  1  0.25512030  0.20794682  0.54470722  1  0.054636  -0.0  0.093675  0.086328  -6e-06  1.042875  0.0
H  H84  1  0.25370604  0.03577894  0.53624177  1  0.10774  3.8e-05  0.101274  0.107818  3.3e-05  1.026509  0.0
H  H85  1  0.97786011  0.99985853  0.51095275  1  0.13071  -2.8e-05  0.102816  0.118492  -4.6e-05  1.022808  0.0
H  H86  1  0.72049534  0.13268126  0.48759156  1  0.066121  1.8e-05  0.103904  0.102039  1.2e-05  1.008967  0.0
H  H87  1  0.49074171  0.52805821  0.53600654  1  0.169579  0.000156  0.094117  0.105761  9e-05  1.072766  0.0
H  H88  1  0.31024943  0.55393075  0.63666993  1  0.064649  -0.000224  0.102411  0.098778  -0.000171  1.002632  0.0
H  H89  1  0.21685538  0.41087966  0.71488486  1  0.067114  -9.8e-05  0.094335  0.089315  -8.1e-05  1.029579  0.0
H  H90  1  0.31119635  0.24341649  0.68919039  1  0.050061  1.7e-05  0.091436  0.081817  4.6e-05  1.061654  0.0
H  H91  1  0.50672634  0.21430674  0.58916788  1  0.077993  -9e-06  0.100928  0.095618  4e-06  1.029054  0.0
H  H92  1  0.63605209  0.28465673  0.39088059  1  0.080757  2.1e-05  0.104411  0.130579  -6e-06  0.982786  0.0
H  H93  1  0.49072669  0.24602518  0.45814763  1  0.073897  -6.8e-05  0.104904  0.123276  -4.9e-05  0.992855  0.0
H  H94  1  0.29530018  0.42139083  0.43982141  1  0.023042  0.000477  0.087069  0.086081  0.000356  0.983212  0.0
H  H95  1  0.43635273  0.45005624  0.36916160  1  0.054911  0.000455  0.070008  0.066094  0.000401  1.050037  0.0
H  H96  1  0.22418429  0.28780455  0.39893653  1  0.018114  4.4e-05  0.086169  0.082908  -2e-06  0.998525  0.0
H  H97  1  0.37779617  0.30300976  0.33016796  1  0.045048  0.000173  0.088411  0.088407  7.7e-05  0.997713  0.0
H  H98  1  0.20429730  0.46631239  0.28794176  1  0.048037  5.5e-05  0.086222  0.08409  2.8e-05  0.999256  0.0
H  H99  1  0.06388979  0.46874526  0.36074048  1  0.053939  0.00112  0.066246  0.062205  0.001187  1.080299  0.0
H  H100  1  0.95631305  0.32446664  0.34567909  1  0.051561  1.5e-05  0.101816  0.125081  -2.5e-05  0.990763  0.0
H  H101  1  0.09774563  0.31867467  0.27254579  1  0.079833  -5.4e-05  0.110278  0.138476  -3.6e-05  0.966018  0.0
Au  Au102  1  0.25413109  0.05304636  0.81766435  1  -0.044132  -0.014757  0.286792  -0.062104  -0.021094  2.935149  -0.009
Au  Au103  1  0.15977879  0.88779958  0.91368562  1  -0.021044  -0.00678  0.290617  -0.02193  -0.011137  2.878976  -0.005
Au  Au104  1  0.66254466  0.57051717  0.31371213  1  -0.04916  0.011312  0.266823  -0.073832  0.015923  2.872142  0.006
Au  Au105  1  0.76483525  0.49122530  0.44508769  1  -0.025389  0.008187  0.298393  -0.028264  0.013162  2.937281  0.006
C  C106  1  0.20106591  0.26532971  0.86850090  1  -0.579089  -0.000496  -0.033581  -0.088867  -0.000252  4.019843  0.0
C  C107  1  0.95713381  0.26687942  0.77975341  1  -0.573486  -0.000241  -0.030521  -0.084602  -9.1e-05  4.008745  0.0
C  C108  1  0.89816795  0.17054729  0.91269146  1  -0.469355  -0.000474  -0.161702  -0.311354  -0.000248  3.91133  0.0
C  C109  1  0.14520880  0.31944575  0.91840044  1  -0.072864  -0.000209  -0.089435  -0.106012  -0.00014  4.001587  0.0
C  C110  1  0.36377942  0.26996425  0.83148993  1  0.006203  -5.1e-05  -0.086235  -0.088671  1e-06  3.985366  0.0
C  C111  1  0.90493106  0.36985369  0.77374495  1  0.062598  3e-05  -0.087832  -0.101755  3.3e-05  4.001367  0.0
C  C112  1  0.91765423  0.22053793  0.73381887  1  -0.04332  -0.000233  -0.086349  -0.096026  -0.000156  3.986559  0.0
C  C113  1  0.78891432  0.10319937  0.89918772  1  -0.042848  -0.000799  -0.166528  -0.113283  -0.000723  3.939729  -0.001
C  C114  1  0.25135198  0.37756360  0.93048806  1  -0.043634  -0.000187  -0.086669  -0.074094  -0.000129  3.998941  0.0
C  C115  1  0.46833906  0.32875511  0.84347513  1  -0.075339  -6.8e-05  -0.088489  -0.074068  -3.2e-05  3.983244  0.0
C  C116  1  0.81356513  0.42584138  0.72214359  1  -0.146597  -2.2e-05  -0.080913  -0.074055  -2e-05  3.96989  0.0
C  C117  1  0.82539451  0.27677120  0.68262704  1  -0.023032  -3.4e-05  -0.086891  -0.072474  6e-06  3.970647  0.0
C  C118  1  0.63610624  0.09137264  0.95157502  1  -0.031456  -0.000147  -0.167717  -0.137943  -5.7e-05  3.914957  0.0
C  C119  1  0.41250973  0.38241557  0.89322351  1  -0.026325  6.6e-05  -0.082922  -0.068064  5.9e-05  3.965376  0.0
C  C120  1  0.77388737  0.37909476  0.67685178  1  -0.038144  2.6e-05  -0.079246  -0.053898  5e-06  3.944233  0.0
C  C121  1  0.54269316  0.01205595  0.94506934  1  -0.015993  -0.001168  -0.166485  -0.109416  -0.001032  3.929312  -0.001
C  C122  1  0.37815136  0.01362829  0.99343882  1  -0.478027  4.5e-05  -0.163735  -0.308335  0.00011  3.921358  0.0
C  C123  1  0.08943522  0.93692487  0.06669445  1  -0.572121  -9.2e-05  -0.035739  -0.095555  -4e-05  4.010677  0.0
C  C124  1  0.42032349  0.80078862  0.03114134  1  -0.580242  -0.000239  -0.033029  -0.086611  -0.000139  3.994023  0.0
C  C125  1  0.10880456  0.98120525  0.11716845  1  -0.050514  8.8e-05  -0.085525  -0.092291  6.7e-05  3.979058  0.0
C  C126  1  0.92902489  0.91072911  0.06586616  1  -0.047602  6.5e-05  -0.087875  -0.093995  7.1e-05  3.999447  0.0
C  C127  1  0.48616829  0.73276577  0.98987014  1  -0.068432  -0.000154  -0.08199  -0.088974  -8.6e-05  3.963376  0.0
C  C128  1  0.46874686  0.77846916  0.09422279  1  -0.055507  4e-06  -0.089381  -0.097816  2e-06  3.985352  0.0
C  C129  1  0.96994842  0.00043864  0.16516236  1  -0.029915  3.7e-05  -0.083082  -0.073977  2.8e-05  3.958424  0.0
C  C130  1  0.79071957  0.92999882  0.11395838  1  -0.071779  -5e-06  -0.092853  -0.077323  -3e-06  3.990807  0.0
C  C131  1  0.59508723  0.64205127  0.01196446  1  0.033554  -1.6e-05  -0.078606  -0.053182  3.3e-05  3.96914  0.0
C  C132  1  0.58129567  0.68856639  0.11529881  1  -0.036093  -2.4e-05  -0.092323  -0.077112  -2.4e-05  3.997109  0.0
C  C133  1  0.01479387  0.72281660  0.85189297  1  -0.018201  -0.000228  -0.000561  0.233215  0.000307  3.725926  0.002
C  C134  1  0.80981517  0.97580979  0.16329703  1  -0.064741  2.2e-05  -0.076964  -0.062971  1.9e-05  3.94575  0.0
C  C135  1  0.64266273  0.62001591  0.07447806  1  -0.089366  1e-05  -0.083932  -0.067089  1.6e-05  3.971527  0.0
C  C136  1  0.53078206  0.97214106  0.69662377  1  -0.00534  -0.000162  -0.002863  0.224049  0.000639  3.754067  0.002
C  C137  1  0.18405059  0.64865981  0.83176824  1  0.272149  -0.002526  -0.012208  -0.028227  -0.002258  3.814189  0.0
C  C138  1  0.86282299  0.72098311  0.81550962  1  -0.05494  -0.001797  -0.248327  -0.414948  -0.001572  3.889248  -0.001
C  C139  1  0.95958445  0.70114373  0.92426267  1  -0.061208  -0.001097  -0.254549  -0.424967  -0.00103  3.92657  0.0
C  C140  1  0.37435879  0.03953380  0.66355181  1  -0.081642  -0.000525  -0.256419  -0.434071  -5.1e-05  3.925189  0.0
C  C141  1  0.60167439  0.87852837  0.66716680  1  0.269632  -0.000967  -0.008291  -0.01556  -0.00093  3.800556  0.0
C  C142  1  0.67632894  0.02682931  0.69543416  1  -0.103308  -0.005528  -0.247817  -0.415895  -0.005177  3.894606  -0.004
C  C143  1  0.33827623  0.63960293  0.87185908  1  1.603838  -0.000957  0.177782  0.543181  -0.000722  4.249621  -0.001
C  C144  1  0.66546166  0.90682606  0.59444698  1  1.618692  -0.0028  0.18763  0.552315  -0.002126  4.237986  -0.002
C  C145  1  0.40398581  0.80397196  0.30639098  1  -0.008554  0.001525  -0.000539  0.232844  0.000345  3.732624  0.0
C  C146  1  0.34571401  0.88896441  0.34542150  1  0.276467  0.002238  -0.007907  -0.014456  0.002193  3.743113  0.001
C  C147  1  0.33261197  0.99229633  0.29776300  1  1.62774  0.00241  0.175093  0.553046  0.001959  4.282126  0.002
C  C148  1  0.55761442  0.82102801  0.25542849  1  -0.083322  0.000517  -0.254131  -0.434053  6.9e-05  3.927377  0.0
C  C149  1  0.24934733  0.79100996  0.27625583  1  -0.075406  0.004593  -0.252327  -0.421468  0.004402  3.903994  0.003
C  C150  1  0.95153130  0.63759409  0.50465273  1  -0.016801  -0.000113  -0.002121  0.230384  -0.000562  3.730633  -0.003
C  C151  1  0.80411339  0.71691723  0.53176436  1  0.267547  0.002489  -0.01555  -0.04016  0.002269  3.808825  0.0
C  C152  1  0.63496204  0.67996870  0.56280772  1  1.615677  0.001441  0.189484  0.576039  0.000939  4.185406  0.001
C  C153  1  0.97352778  0.53931762  0.55156431  1  -0.04579  0.00106  -0.254411  -0.425348  0.000984  3.933652  0.0
C  C154  1  0.12553915  0.67184532  0.49094796  1  -0.073337  0.002442  -0.248589  -0.409783  0.002201  3.892528  0.001
C  C155  1  0.72633002  0.38031023  0.23423798  1  -0.577937  0.000374  -0.031868  -0.087636  0.000187  4.007415  0.0
C  C156  1  0.77297708  0.27663833  0.24621825  1  -0.010434  -5.5e-05  -0.086897  -0.101158  -4.1e-05  3.974018  0.0
C  C157  1  0.66306888  0.22300151  0.23109172  1  -0.069007  8.1e-05  -0.080605  -0.06791  5.1e-05  3.972762  0.0
C  C158  1  0.51009992  0.27184724  0.20209313  1  -0.012599  -0.000107  -0.080533  -0.07007  -8.2e-05  3.978728  0.0
C  C159  1  0.46556519  0.37499524  0.18857866  1  -0.074838  8.6e-05  -0.091205  -0.076583  4.8e-05  3.991707  0.0
C  C160  1  0.57097210  0.42889946  0.20573254  1  -0.041987  -2.1e-05  -0.088906  -0.094965  -2.9e-05  3.992108  0.0
C  C161  1  0.96537507  0.51874070  0.19034154  1  -0.535016  0.000124  -0.02679  -0.076664  1.4e-05  3.986685  0.0
C  C162  1  0.02507681  0.47920231  0.13412011  1  -0.073409  -3.9e-05  -0.088027  -0.104846  -3.4e-05  4.002257  0.0
C  C163  1  0.11819132  0.53049861  0.08238768  1  -0.036028  -4e-06  -0.08103  -0.069949  3e-06  3.974231  0.0
C  C164  1  0.15350168  0.62024285  0.08657626  1  -0.082944  -2.7e-05  -0.081679  -0.0582  -8e-06  3.949315  0.0
C  C165  1  0.09608409  0.65929983  0.14268574  1  0.020091  3e-05  -0.084556  -0.069941  5e-06  3.975564  0.0
C  C166  1  0.00152586  0.60906278  0.19432686  1  -0.110965  0.000192  -0.086463  -0.093499  0.000127  3.978693  0.0
C  C167  1  0.83968996  0.24809031  0.50229349  1  -0.596296  0.000103  -0.037554  -0.096912  2.6e-05  4.019045  0.0
C  C168  1  0.99201695  0.26745646  0.51894378  1  -0.039439  -4.5e-05  -0.090623  -0.099504  -6.5e-05  4.003843  0.0
C  C169  1  0.13889035  0.19129732  0.53154972  1  -0.079408  1.4e-05  -0.092487  -0.075128  6e-06  3.997931  0.0
C  C170  1  0.13725634  0.09499890  0.52711337  1  -0.022468  2.6e-05  -0.082212  -0.068851  2e-05  3.955118  0.0
C  C171  1  0.98558858  0.07501767  0.51147805  1  -0.040036  -0.000118  -0.085165  -0.065669  -8.2e-05  3.962627  0.0
C  C172  1  0.83705774  0.15085454  0.49941337  1  -0.039498  -0.000124  -0.084755  -0.090634  -9.5e-05  3.972568  0.0
C  C173  1  0.51004664  0.36907939  0.55481768  1  -0.550958  0.000346  -0.02862  -0.077831  0.000204  3.978024  0.0
C  C174  1  0.45204036  0.46444354  0.56876133  1  -0.088391  0.000207  -0.084622  -0.09391  0.000115  3.956339  0.0
C  C175  1  0.34784821  0.47942647  0.62636795  1  -0.00799  -7.1e-05  -0.07999  -0.061393  -0.000143  3.978767  0.0
C  C176  1  0.29769452  0.39999473  0.66970398  1  -0.025055  -4.8e-05  -0.084639  -0.068785  -8.3e-05  3.984874  0.0
C  C177  1  0.35193179  0.30520004  0.65539934  1  -0.029408  1.9e-05  -0.092085  -0.077526  3.5e-05  3.989878  0.0
C  C178  1  0.45928657  0.28915737  0.59863164  1  -0.11198  9e-06  -0.086348  -0.095182  8e-06  3.982445  0.0
C  C179  1  0.53854787  0.31074493  0.42976807  1  -0.510827  -4.8e-05  -0.160771  -0.309517  -0.000102  3.922571  0.0
C  C180  1  0.38553138  0.38882346  0.40140684  1  -0.047039  0.000819  -0.16514  -0.104768  0.000789  3.928641  0.001
C  C181  1  0.28488710  0.34329680  0.36454778  1  -0.011349  0.000101  -0.167184  -0.136999  4.2e-05  3.899196  0.0
C  C182  1  0.14246923  0.41943636  0.32857871  1  -0.047974  0.001691  -0.171257  -0.119647  0.001337  3.946453  0.001
C  C183  1  0.02158696  0.36894923  0.30454805  1  -0.504202  0.0006  -0.159582  -0.308353  0.000326  3.906794  0.0
S  S184  1  0.05668527  0.85054035  0.82666681  1  -0.288176  -0.117025  -0.213838  -0.277806  -0.082007  2.863772  -0.079
S  S185  1  0.46106490  0.92342469  0.78233828  1  -0.233887  -0.17857  -0.185917  -0.201153  -0.124653  3.00996  -0.12
S  S186  1  0.47361318  0.68931173  0.36651435  1  -0.252384  0.146276  -0.195411  -0.215693  0.102563  3.021033  0.099
S  S187  1  0.89621049  0.62655105  0.42435516  1  -0.288205  0.136534  -0.209721  -0.264853  0.095958  2.888408  0.092
N  N188  1  0.24270512  0.68160232  0.76279917  1  -1.104273  -0.086544  -0.629299  -0.543402  -0.062048  3.427724  -0.07
N  N189  1  0.46598760  0.81977331  0.67611198  1  -1.123306  -0.084664  -0.638069  -0.559367  -0.059812  3.429654  -0.071
N  N190  1  0.47414656  0.88236939  0.39112918  1  -1.13547  0.090033  -0.631252  -0.541311  0.064048  3.408955  0.076
N  N191  1  0.75645844  0.80171436  0.47918625  1  -1.105581  0.098596  -0.643973  -0.545263  0.069834  3.453297  0.082
O  O192  1  0.45326847  0.68980202  0.84482077  1  -1.170998  -0.00682  -0.355677  -0.571789  -0.004694  2.230203  -0.007
O  O193  1  0.33661571  0.58536754  0.92665190  1  -1.191452  -0.002627  -0.338107  -0.563354  -0.00167  2.143103  -0.002
O  O194  1  0.54670180  0.92670946  0.55588681  1  -1.217629  -0.0029  -0.355063  -0.590062  -0.002092  2.11352  -0.003
O  O195  1  0.82646488  0.90586231  0.58023250  1  -1.179582  -0.012335  -0.343782  -0.568679  -0.008282  2.121957  -0.01
O  O196  1  0.46325659  0.03126090  0.29472400  1  -1.184743  0.006533  -0.363657  -0.597773  0.004445  2.090633  0.006
O  O197  1  0.19950944  0.02315348  0.26719171  1  -1.204393  0.020433  -0.368105  -0.599238  0.013913  2.103205  0.017
O  O198  1  0.52292575  0.68448957  0.52476236  1  -1.171135  0.000736  -0.34383  -0.557938  0.00055  2.215272  0.001
O  O199  1  0.62102440  0.64854993  0.62340089  1  -1.226421  -0.000833  -0.363118  -0.601756  -0.000592  2.09801  -0.001
