# generated using pymatgen
data_MgH18C14(NO4)2
_symmetry_space_group_name_H-M   'P 1'
_cell_length_a   9.50658045
_cell_length_b   10.13153979
_cell_length_c   10.13155562
_cell_angle_alpha   70.66222768
_cell_angle_beta   70.73353017
_cell_angle_gamma   70.73381772
_symmetry_Int_Tables_number   1
_chemical_formula_structural   MgH18C14(NO4)2
_chemical_formula_sum   'Mg2 H36 C28 N4 O16'
_cell_volume   842.10893080
_cell_formula_units_Z   2
loop_
 _symmetry_equiv_pos_site_id
 _symmetry_equiv_pos_as_xyz
  1  'x, y, z'
loop_
 _atom_site_type_symbol
 _atom_site_label
 _atom_site_symmetry_multiplicity
 _atom_site_fract_x
 _atom_site_fract_y
 _atom_site_fract_z
 _atom_site_occupancy
 _atom_site_hle17_bader_spin_density
 _atom_site_hle17_ddec_charge
 _atom_site_hle17_ddec_spin_density
 _atom_site_hle17_ddec_sum_bond_order
 _atom_site_hle17_magmom
 _atom_site_hse06_10hf_bader_spin_density
 _atom_site_hse06_10hf_ddec_charge
 _atom_site_hse06_10hf_ddec_spin_density
 _atom_site_hse06_10hf_ddec_sum_bond_order
 _atom_site_hse06_10hf_magmom
 _atom_site_hse06_bader_spin_density
 _atom_site_hse06_ddec_charge
 _atom_site_hse06_ddec_spin_density
 _atom_site_hse06_ddec_sum_bond_order
 _atom_site_hse06_magmom
 _atom_site_pbe_bader_spin_density
 _atom_site_pbe_cm5_charge
 _atom_site_pbe_ddec_charge
 _atom_site_pbe_ddec_spin_density
 _atom_site_pbe_ddec_sum_bond_order
 _atom_site_pbe_magmom
Mg  Mg0  1  0.00000000  0.00000000  0.00000000  1  0  1.519232  0  1.128768  0  0  1.409831  0  1.388171  0  0  1.434281  0  1.350812  0  0  0.821429  1.392782  0  1.414111  0
Mg  Mg1  1  0.49999876  0.99999980  0.00000084  1  0  1.519279  0  1.128711  0  0  1.409872  0  1.388125  0  0  1.434322  0  1.350766  0  0  0.82141  1.392823  0  1.414067  0
H  H2  1  0.68571409  0.26651261  0.94115185  1  0  0.056028  0  0.953533  0  0  0.063819  0  1.022294  0  0  0.066243  0  1.017435  0  0  0.128254  0.061821  0  1.026062  0
H  H3  1  0.81429506  0.05884534  0.73348135  1  0  0.055967  0  0.953542  0  0  0.063758  0  1.022315  0  0  0.066179  0  1.017457  0  0  0.128224  0.061763  0  1.026087  0
H  H4  1  0.31428748  0.73348382  0.05884746  1  0  0.055916  0  0.953602  0  0  0.063776  0  1.022295  0  0  0.066202  0  1.017436  0  0  0.128243  0.061778  0  1.026064  0
H  H5  1  0.18570454  0.94115433  0.26651947  1  0  0.055957  0  0.953528  0  0  0.063752  0  1.022306  0  0  0.066173  0  1.017448  0  0  0.128216  0.061757  0  1.026077  0
H  H6  1  0.53943969  0.48166300  0.86823242  1  0  0.114179  0  0.961286  0  0  0.13095  0  1.029055  0  0  0.132477  0  1.028267  0  0  0.109397  0.129615  0  1.029863  0
H  H7  1  0.96056617  0.13176615  0.51833165  1  0  0.114139  0  0.961281  0  0  0.130929  0  1.029048  0  0  0.132454  0  1.028262  0  0  0.10939  0.129595  0  1.029854  0
H  H8  1  0.46055990  0.51833667  0.13176742  1  0  0.114189  0  0.961271  0  0  0.130958  0  1.029045  0  0  0.132486  0  1.028256  0  0  0.109403  0.129625  0  1.029851  0
H  H9  1  0.03943373  0.86823244  0.48166945  1  0  0.114151  0  0.961277  0  0  0.13094  0  1.029043  0  0  0.132465  0  1.028257  0  0  0.109393  0.129607  0  1.029848  0
H  H10  1  0.61024192  0.59182605  0.69649757  1  0  0.095967  0  0.938515  0  0  0.118131  0  0.99855  0  0  0.118753  0  0.998929  0  0  0.102137  0.117651  0  0.998245  0
H  H11  1  0.88976399  0.30350287  0.40816972  1  0  0.09593  0  0.938544  0  0  0.118097  0  0.998591  0  0  0.118719  0  0.99897  0  0  0.102126  0.117619  0  0.998287  0
H  H12  1  0.38975908  0.40817254  0.30350219  1  0  0.095956  0  0.938522  0  0  0.118124  0  0.998554  0  0  0.118745  0  0.998932  0  0  0.102139  0.117645  0  0.99825  0
H  H13  1  0.11023783  0.69649681  0.59182942  1  0  0.095947  0  0.938543  0  0  0.118117  0  0.998582  0  0  0.118739  0  0.99896  0  0  0.102135  0.11764  0  0.998273  0
H  H14  1  0.63153444  0.61573127  0.85490131  1  0  0.105901  0  0.938356  0  0  0.123915  0  1.003635  0  0  0.124589  0  1.003788  0  0  0.103145  0.12305  0  1.004161  0
H  H15  1  0.86846916  0.14509917  0.38426366  1  0  0.105924  0  0.93832  0  0  0.123958  0  1.003586  0  0  0.124632  0  1.003736  0  0  0.103184  0.123092  0  1.004113  0
H  H16  1  0.36846514  0.38426839  0.14509755  1  0  0.105886  0  0.93837  0  0  0.123898  0  1.003657  0  0  0.124572  0  1.003808  0  0  0.10314  0.123033  0  1.004184  0
H  H17  1  0.13153043  0.85490050  0.61573618  1  0  0.105922  0  0.938332  0  0  0.123954  0  1.003598  0  0  0.124628  0  1.003748  0  0  0.10318  0.123088  0  1.004125  0
H  H18  1  0.96141900  0.52324642  0.74979182  1  0  0.089522  0  0.968554  0  0  0.107595  0  1.039307  0  0  0.106074  0  1.042897  0  0  0.098008  0.108394  0  1.037191  0
H  H19  1  0.53858468  0.25021067  0.47675341  1  0  0.089588  0  0.968528  0  0  0.107678  0  1.039252  0  0  0.106158  0  1.042841  0  0  0.09803  0.10848  0  1.037137  0
H  H20  1  0.03857949  0.47675325  0.25020935  1  0  0.089554  0  0.968579  0  0  0.10763  0  1.039309  0  0  0.106108  0  1.042901  0  0  0.098018  0.108427  0  1.037199  0
H  H21  1  0.46141433  0.74979115  0.52324589  1  0  0.089586  0  0.968543  0  0  0.107677  0  1.039271  0  0  0.106157  0  1.042861  0  0  0.098032  0.108476  0  1.037157  0
H  H22  1  0.88176269  0.56270630  0.60001084  1  0  0.097956  0  0.942005  0  0  0.11972  0  1.002337  0  0  0.120567  0  1.001867  0  0  0.105565  0.118907  0  1.002984  0
H  H23  1  0.61824439  0.39998948  0.43729362  1  0  0.098019  0  0.942082  0  0  0.119781  0  1.002403  0  0  0.120626  0  1.001935  0  0  0.105573  0.118969  0  1.003052  0
H  H24  1  0.11823551  0.43729444  0.39999007  1  0  0.097969  0  0.942008  0  0  0.119735  0  1.002331  0  0  0.120582  0  1.001859  0  0  0.105565  0.118921  0  1.002978  0
H  H25  1  0.38175743  0.60001019  0.56270551  1  0  0.098002  0  0.942057  0  0  0.119757  0  1.002385  0  0  0.120604  0  1.001916  0  0  0.105564  0.118943  0  1.003034  0
H  H26  1  0.00264816  0.38651076  0.65812878  1  0  0.115303  0  0.938956  0  0  0.132229  0  1.00263  0  0  0.134349  0  1.000625  0  0  0.110107  0.130587  0  1.004211  0
H  H27  1  0.49735878  0.34187043  0.61349171  1  0  0.115339  0  0.938944  0  0  0.132258  0  1.002625  0  0  0.134377  0  1.000621  0  0  0.110107  0.130618  0  1.004207  0
H  H28  1  0.99735114  0.61348998  0.34187079  1  0  0.115354  0  0.938903  0  0  0.132241  0  1.002614  0  0  0.13436  0  1.00061  0  0  0.110115  0.130599  0  1.004195  0
H  H29  1  0.50264164  0.65813033  0.38650849  1  0  0.115353  0  0.938919  0  0  0.132269  0  1.002601  0  0  0.134389  0  1.000595  0  0  0.110113  0.130625  0  1.004182  0
H  H30  1  0.64418610  0.85940924  0.68793797  1  0  0.120579  0  0.942446  0  0  0.130379  0  1.003189  0  0  0.134398  0  1.000554  0  0  0.110967  0.127407  0  1.005337  0
H  H31  1  0.85581550  0.31206123  0.14058940  1  0  0.120569  0  0.942452  0  0  0.130375  0  1.003193  0  0  0.134395  0  1.000557  0  0  0.110958  0.127401  0  1.005344  0
H  H32  1  0.35581433  0.14059152  0.31206223  1  0  0.120602  0  0.942407  0  0  0.130401  0  1.003148  0  0  0.134421  0  1.000511  0  0  0.110978  0.127427  0  1.0053  0
H  H33  1  0.14418633  0.68793845  0.85941072  1  0  0.120571  0  0.942468  0  0  0.130371  0  1.003208  0  0  0.134391  0  1.000571  0  0  0.110957  0.127399  0  1.005354  0
H  H34  1  0.15530953  0.08669118  0.68541112  1  0  0.387594  0  0.89728  0  0  0.358086  0  0.975798  0  0  0.370167  0  0.962283  0  0  0.303361  0.349449  0  0.98543  0
H  H35  1  0.34469070  0.31459089  0.91330567  1  0  0.387523  0  0.897448  0  0  0.358032  0  0.975933  0  0  0.370109  0  0.962423  0  0  0.303335  0.349397  0  0.985565  0
H  H36  1  0.84469006  0.91330849  0.31458872  1  0  0.387572  0  0.897321  0  0  0.358079  0  0.975818  0  0  0.37015  0  0.96232  0  0  0.303356  0.349442  0  0.985445  0
H  H37  1  0.65531000  0.68540878  0.08669283  1  0  0.387521  0  0.897465  0  0  0.358047  0  0.975915  0  0  0.370115  0  0.962422  0  0  0.303346  0.349413  0  0.985539  0
C  C38  1  0.79397635  0.29330027  0.87002980  1  0  0.407954  0  3.789416  0  0  0.330669  0  4.084507  0  0  0.358019  0  4.083911  0  0  0.180907  0.312327  0  4.084297  0
C  C39  1  0.70603305  0.12996882  0.70669488  1  0  0.408302  0  3.789293  0  0  0.330981  0  4.084443  0  0  0.358336  0  4.083841  0  0  0.18114  0.312631  0  4.084236  0
C  C40  1  0.20602213  0.70669939  0.12997039  1  0  0.408114  0  3.789487  0  0  0.33078  0  4.084592  0  0  0.358127  0  4.084  0  0  0.180947  0.312434  0  4.084379  0
C  C41  1  0.29396765  0.87003085  0.29330363  1  0  0.408265  0  3.789378  0  0  0.33091  0  4.084587  0  0  0.358263  0  4.083989  0  0  0.1811  0.312554  0  4.084385  0
C  C42  1  0.63211427  0.53527146  0.80358338  1  0  -0.176828  0  3.653172  0  0  -0.277139  0  3.899246  0  0  -0.274291  0  3.910199  0  0  -0.132423  -0.278499  0  3.891721  0
C  C43  1  0.86789035  0.19641729  0.46472398  1  0  -0.176733  0  3.653005  0  0  -0.27709  0  3.899098  0  0  -0.274243  0  3.910061  0  0  -0.132407  -0.27845  0  3.891575  0
C  C44  1  0.36788561  0.46472712  0.19641673  1  0  -0.176797  0  3.653172  0  0  -0.277109  0  3.899247  0  0  -0.274261  0  3.910204  0  0  -0.132426  -0.278469  0  3.891725  0
C  C45  1  0.13211007  0.80358347  0.53527622  1  0  -0.176775  0  3.653058  0  0  -0.277128  0  3.899143  0  0  -0.274279  0  3.910103  0  0  -0.132425  -0.278491  0  3.891616  0
C  C46  1  0.91452621  0.47827338  0.69317111  1  0  -0.170421  0  3.650119  0  0  -0.269016  0  3.892118  0  0  -0.265352  0  3.902665  0  0  -0.134397  -0.271182  0  3.885236  0
C  C47  1  0.58547957  0.30682961  0.52172630  1  0  -0.170596  0  3.650241  0  0  -0.269202  0  3.892236  0  0  -0.265537  0  3.902781  0  0  -0.134399  -0.271365  0  3.885358  0
C  C48  1  0.08547338  0.52172629  0.30682873  1  0  -0.170526  0  3.650145  0  0  -0.269088  0  3.892147  0  0  -0.265423  0  3.902693  0  0  -0.134425  -0.27125  0  3.885269  0
C  C49  1  0.41452084  0.69317114  0.47827291  1  0  -0.170592  0  3.650219  0  0  -0.269189  0  3.892218  0  0  -0.265526  0  3.902764  0  0  -0.134416  -0.271348  0  3.885338  0
C  C50  1  0.34489877  0.95571640  0.80372197  1  0  0.721055  0  3.848289  0  0  0.664606  0  4.145866  0  0  0.699737  0  4.133955  0  0  0.231205  0.640705  0  4.153321  0
C  C51  1  0.15509706  0.19627662  0.04428252  1  0  0.720928  0  3.848461  0  0  0.664522  0  4.145958  0  0  0.699652  0  4.134048  0  0  0.231148  0.640611  0  4.153431  0
C  C52  1  0.65510193  0.04428327  0.19627751  1  0  0.721025  0  3.848335  0  0  0.664599  0  4.145884  0  0  0.69973  0  4.13397  0  0  0.231202  0.640694  0  4.153351  0
C  C53  1  0.84490225  0.80372412  0.95571804  1  0  0.720879  0  3.848575  0  0  0.664458  0  4.146081  0  0  0.699588  0  4.134172  0  0  0.23113  0.640553  0  4.153541  0
C  C54  1  0.58186287  0.92012164  0.60468213  1  0  -0.176884  0  3.751652  0  0  -0.210394  0  4.015513  0  0  -0.211689  0  4.031959  0  0  -0.102445  -0.209345  0  4.004441  0
C  C55  1  0.91813582  0.39531807  0.07987873  1  0  -0.176892  0  3.751611  0  0  -0.21042  0  4.015511  0  0  -0.211712  0  4.031953  0  0  -0.10244  -0.20937  0  4.004441  0
C  C56  1  0.41813645  0.07987912  0.39531941  1  0  -0.176912  0  3.751604  0  0  -0.210408  0  4.015478  0  0  -0.2117  0  4.031921  0  0  -0.102449  -0.209359  0  4.004414  0
C  C57  1  0.08186489  0.60468161  0.92012174  1  0  -0.176944  0  3.751718  0  0  -0.210444  0  4.015592  0  0  -0.211738  0  4.032037  0  0  -0.102434  -0.209394  0  4.004514  0
C  C58  1  0.42344781  0.97890261  0.64699054  1  0  -0.183184  0  3.766408  0  0  -0.168268  0  4.012825  0  0  -0.175901  0  4.032049  0  0  -0.033503  -0.163229  0  3.999986  0
C  C59  1  0.07655413  0.35300939  0.02109441  1  0  -0.183184  0  3.766395  0  0  -0.168262  0  4.01282  0  0  -0.175898  0  4.032045  0  0  -0.033476  -0.163225  0  3.999986  0
C  C60  1  0.57655178  0.02109705  0.35300930  1  0  -0.183164  0  3.766372  0  0  -0.168284  0  4.012818  0  0  -0.175919  0  4.032041  0  0  -0.0335  -0.163245  0  3.999982  0
C  C61  1  0.92344658  0.64699028  0.97890508  1  0  -0.183176  0  3.766538  0  0  -0.168238  0  4.012906  0  0  -0.175872  0  4.032135  0  0  -0.033507  -0.163195  0  4.000057  0
C  C62  1  0.33979283  0.06059041  0.54062652  1  0  0.295235  0  3.834286  0  0  0.27939  0  4.105254  0  0  0.290054  0  4.121063  0  0  0.072397  0.271784  0  4.09473  0
C  C63  1  0.16020664  0.45937529  0.93940790  1  0  0.295372  0  3.834243  0  0  0.279478  0  4.105275  0  0  0.290144  0  4.121082  0  0  0.072421  0.271875  0  4.094746  0
C  C64  1  0.66020759  0.93941035  0.45937368  1  0  0.295233  0  3.83425  0  0  0.279405  0  4.105221  0  0  0.290071  0  4.121026  0  0  0.072405  0.2718  0  4.094693  0
C  C65  1  0.83979377  0.54062546  0.06059033  1  0  0.295331  0  3.834311  0  0  0.279463  0  4.105303  0  0  0.290127  0  4.121109  0  0  0.072439  0.271864  0  4.094766  0
N  N66  1  0.77943448  0.42901802  0.78867107  1  0  -0.090376  0  3.501937  0  0  0.014594  0  3.736041  0  0  -0.005742  0  3.762079  0  0  -0.281894  0.028295  0  3.717806  0
N  N67  1  0.72057142  0.21132701  0.57098046  1  0  -0.090458  0  3.50182  0  0  0.01453  0  3.73594  0  0  -0.005806  0  3.761974  0  0  -0.282005  0.028229  0  3.717709  0
N  N68  1  0.22056651  0.57098057  0.21132869  1  0  -0.090433  0  3.501912  0  0  0.014535  0  3.736034  0  0  -0.005803  0  3.762071  0  0  -0.281904  0.028232  0  3.717803  0
N  N69  1  0.27942817  0.78867266  0.42901938  1  0  -0.090456  0  3.501858  0  0  0.014543  0  3.735965  0  0  -0.005792  0  3.761999  0  0  -0.281973  0.028244  0  3.717733  0
O  O70  1  0.19700166  0.99324086  0.83493939  1  0  -0.717454  0  2.074075  0  0  -0.651091  0  2.310023  0  0  -0.674736  0  2.296433  0  0  -0.340355  -0.634461  0  2.319395  0
O  O71  1  0.30300160  0.16506283  0.00675280  1  0  -0.717484  0  2.073989  0  0  -0.651125  0  2.309894  0  0  -0.674769  0  2.296304  0  0  -0.340396  -0.634491  0  2.319269  0
O  O72  1  0.80299794  0.00675881  0.16506143  1  0  -0.717389  0  2.074066  0  0  -0.651039  0  2.310009  0  0  -0.67468  0  2.296421  0  0  -0.340328  -0.63441  0  2.319382  0
O  O73  1  0.69699882  0.83493793  0.99324740  1  0  -0.717401  0  2.074023  0  0  -0.651062  0  2.309964  0  0  -0.674703  0  2.29638  0  0  -0.340354  -0.634434  0  2.319335  0
O  O74  1  0.42395126  0.90035178  0.89633105  1  0  -0.709276  0  2.026673  0  0  -0.658355  0  2.275625  0  0  -0.679735  0  2.261728  0  0  -0.347794  -0.64359  0  2.285566  0
O  O75  1  0.07605238  0.10367248  0.09964412  1  0  -0.709138  0  2.026932  0  0  -0.658212  0  2.275831  0  0  -0.679586  0  2.261932  0  0  -0.347705  -0.643439  0  2.28577  0
O  O76  1  0.57604834  0.09964789  0.10366977  1  0  -0.709306  0  2.026725  0  0  -0.658377  0  2.275649  0  0  -0.679757  0  2.261751  0  0  -0.34782  -0.643596  0  2.285557  0
O  O77  1  0.92394805  0.89632827  0.90035608  1  0  -0.709151  0  2.026928  0  0  -0.658224  0  2.275833  0  0  -0.679598  0  2.261934  0  0  -0.347722  -0.64346  0  2.285776  0
O  O78  1  0.92040867  0.20076935  0.86573792  1  0  -0.610978  0  2.090884  0  0  -0.559131  0  2.350173  0  0  -0.580744  0  2.341798  0  0  -0.329469  -0.544028  0  2.35528  0
O  O79  1  0.57960062  0.13425900  0.79923046  1  0  -0.611209  0  2.090874  0  0  -0.559357  0  2.350222  0  0  -0.58097  0  2.341841  0  0  -0.329607  -0.54425  0  2.355328  0
O  O80  1  0.07959483  0.79922817  0.13426041  1  0  -0.610978  0  2.09098  0  0  -0.559143  0  2.350328  0  0  -0.580753  0  2.341952  0  0  -0.329482  -0.544036  0  2.35543  0
O  O81  1  0.42039645  0.86574173  0.20076883  1  0  -0.611161  0  2.090991  0  0  -0.559287  0  2.350347  0  0  -0.580899  0  2.341971  0  0  -0.329574  -0.544169  0  2.355435  0
O  O82  1  0.18612260  0.12150846  0.57621616  1  0  -0.531504  0  2.090214  0  0  -0.48563  0  2.30797  0  0  -0.504408  0  2.298513  0  0  -0.3639  -0.472085  0  2.314574  0
O  O83  1  0.31387734  0.42378602  0.87848822  1  0  -0.531499  0  2.090319  0  0  -0.485619  0  2.308075  0  0  -0.504395  0  2.298624  0  0  -0.363901  -0.472074  0  2.314678  0
O  O84  1  0.81387589  0.87849120  0.42378501  1  0  -0.531481  0  2.090224  0  0  -0.485613  0  2.307954  0  0  -0.504385  0  2.298516  0  0  -0.363876  -0.472068  0  2.314553  0
O  O85  1  0.68612225  0.57621365  0.12151064  1  0  -0.531496  0  2.090343  0  0  -0.485631  0  2.308068  0  0  -0.504402  0  2.298636  0  0  -0.363909  -0.472091  0  2.314666  0
