# generated using pymatgen
data_LaP2H17C16O11
_symmetry_space_group_name_H-M   'P 1'
_cell_length_a   5.61029071
_cell_length_b   9.69460621
_cell_length_c   18.21440097
_cell_angle_alpha   105.80407984
_cell_angle_beta   91.76809624
_cell_angle_gamma   95.17429753
_symmetry_Int_Tables_number   1
_chemical_formula_structural   LaP2H17C16O11
_chemical_formula_sum   'La2 P4 H34 C32 O22'
_cell_volume   947.75125897
_cell_formula_units_Z   2
loop_
 _symmetry_equiv_pos_site_id
 _symmetry_equiv_pos_as_xyz
  1  'x, y, z'
loop_
 _atom_site_type_symbol
 _atom_site_label
 _atom_site_symmetry_multiplicity
 _atom_site_fract_x
 _atom_site_fract_y
 _atom_site_fract_z
 _atom_site_occupancy
 _atom_site_hle17_bader_spin_density
 _atom_site_hle17_ddec_charge
 _atom_site_hle17_ddec_spin_density
 _atom_site_hle17_ddec_sum_bond_order
 _atom_site_hle17_magmom
 _atom_site_hse06_10hf_bader_spin_density
 _atom_site_hse06_10hf_ddec_charge
 _atom_site_hse06_10hf_ddec_spin_density
 _atom_site_hse06_10hf_ddec_sum_bond_order
 _atom_site_hse06_10hf_magmom
 _atom_site_hse06_bader_spin_density
 _atom_site_hse06_ddec_charge
 _atom_site_hse06_ddec_spin_density
 _atom_site_hse06_ddec_sum_bond_order
 _atom_site_hse06_magmom
 _atom_site_pbe_bader_spin_density
 _atom_site_pbe_cm5_charge
 _atom_site_pbe_ddec_charge
 _atom_site_pbe_ddec_spin_density
 _atom_site_pbe_ddec_sum_bond_order
 _atom_site_pbe_magmom
La  La0  1  0.13105840  0.80117635  0.00381890  1  0  2.214498  0  1.752241  0  0  2.101638  0  2.261555  0  0  2.194666  0  2.169502  0  0  1.481447  2.03191  0  2.32581  0
La  La1  1  0.86893069  0.19882063  0.99617659  1  0  2.214579  0  1.752244  0  0  2.101699  0  2.261561  0  0  2.194731  0  2.1695  0  0  1.481467  2.031986  0  2.325772  0
P  P2  1  0.37220983  0.10511452  0.11222146  1  0  1.521624  0  4.854175  0  0  1.371095  0  5.360615  0  0  1.421101  0  5.327257  0  0  0.329971  1.336387  0  5.381724  0
P  P3  1  0.62779243  0.89487685  0.88777009  1  0  1.521633  0  4.854204  0  0  1.371099  0  5.360653  0  0  1.421072  0  5.327403  0  0  0.329893  1.336399  0  5.381753  0
P  P4  1  0.26400073  0.53477599  0.11173936  1  0  1.562926  0  4.730999  0  0  1.417463  0  5.228977  0  0  1.468371  0  5.190238  0  0  0.386806  1.38201  0  5.254302  0
P  P5  1  0.73598677  0.46522214  0.88825957  1  0  1.562918  0  4.731057  0  0  1.417474  0  5.229025  0  0  1.468389  0  5.190279  0  0  0.386806  1.38202  0  5.254345  0
H  H6  1  0.58569580  0.14747668  0.32632441  1  0  0.097469  0  0.984605  0  0  0.104791  0  1.05328  0  0  0.108028  0  1.051961  0  0  0.098524  0.102673  0  1.054027  0
H  H7  1  0.41429952  0.85252454  0.67367174  1  0  0.097395  0  0.984455  0  0  0.1047  0  1.053161  0  0  0.107918  0  1.051863  0  0  0.098455  0.102581  0  1.053906  0
H  H8  1  0.46849862  0.00615629  0.41541169  1  0  0.117625  0  0.946282  0  0  0.125956  0  1.007544  0  0  0.129818  0  1.004276  0  0  0.111522  0.123358  0  1.00965  0
H  H9  1  0.53150965  0.99383822  0.58457816  1  0  0.117759  0  0.946108  0  0  0.126026  0  1.007462  0  0  0.129888  0  1.004195  0  0  0.111496  0.123433  0  1.00956  0
H  H10  1  0.77043052  0.88724451  0.29918800  1  0  0.093147  0  0.949665  0  0  0.103899  0  1.011695  0  0  0.106913  0  1.009664  0  0  0.104912  0.101821  0  1.013241  0
H  H11  1  0.22958613  0.11275647  0.70081000  1  0  0.093178  0  0.949713  0  0  0.103888  0  1.011776  0  0  0.1069  0  1.00975  0  0  0.104928  0.10181  0  1.013317  0
H  H12  1  0.88516535  0.03109076  0.20938699  1  0  0.099714  0  0.948015  0  0  0.113335  0  1.00363  0  0  0.116602  0  1.002529  0  0  0.105132  0.111135  0  1.00441  0
H  H13  1  0.11484486  0.96890490  0.79060964  1  0  0.099726  0  0.948162  0  0  0.113414  0  1.003682  0  0  0.116683  0  1.002574  0  0  0.10513  0.111215  0  1.00446  0
H  H14  1  0.49037172  0.25885264  0.23526637  1  0  0.137565  0  0.950707  0  0  0.15208  0  1.007114  0  0  0.154085  0  1.007083  0  0  0.111107  0.15068  0  1.007396  0
H  H15  1  0.50962808  0.74114416  0.76472591  1  0  0.137526  0  0.950718  0  0  0.152041  0  1.007127  0  0  0.154048  0  1.007095  0  0  0.111101  0.150639  0  1.007408  0
H  H16  1  0.18872324  0.26935094  0.20862492  1  0  0.144093  0  0.95539  0  0  0.15699  0  1.014293  0  0  0.158754  0  1.015619  0  0  0.114324  0.155443  0  1.014206  0
H  H17  1  0.81127849  0.73065563  0.79137371  1  0  0.144071  0  0.955454  0  0  0.156971  0  1.014357  0  0  0.158738  0  1.015678  0  0  0.114327  0.155424  0  1.014265  0
H  H18  1  0.50833172  0.64910090  0.31724860  1  0  0.105875  0  0.954872  0  0  0.114899  0  1.018864  0  0  0.118329  0  1.017394  0  0  0.102264  0.112586  0  1.020055  0
H  H19  1  0.49166536  0.35090894  0.68274824  1  0  0.105829  0  0.954977  0  0  0.114847  0  1.018969  0  0  0.118271  0  1.017521  0  0  0.102234  0.11253  0  1.020164  0
H  H20  1  0.46262971  0.51885912  0.41665326  1  0  0.112736  0  0.957952  0  0  0.121883  0  1.019776  0  0  0.125438  0  1.016828  0  0  0.109605  0.119379  0  1.021864  0
H  H21  1  0.53736421  0.48116158  0.58334673  1  0  0.112783  0  0.957902  0  0  0.121938  0  1.019712  0  0  0.125494  0  1.01676  0  0  0.109616  0.119475  0  1.021749  0
H  H22  1  0.74480977  0.35583379  0.32774849  1  0  0.086755  0  0.985723  0  0  0.095285  0  1.054216  0  0  0.098136  0  1.052162  0  0  0.10187  0.093269  0  1.055772  0
H  H23  1  0.25520192  0.64416950  0.67225637  1  0  0.086762  0  0.985853  0  0  0.095287  0  1.054321  0  0  0.098139  0  1.052264  0  0  0.101854  0.093272  0  1.055876  0
H  H24  1  0.78916377  0.48289058  0.22588137  1  0  0.106958  0  0.971856  0  0  0.1164  0  1.034532  0  0  0.11953  0  1.033294  0  0  0.102735  0.114289  0  1.035175  0
H  H25  1  0.21082109  0.51709460  0.77411515  1  0  0.106937  0  0.97186  0  0  0.116379  0  1.034542  0  0  0.11951  0  1.033301  0  0  0.102722  0.114268  0  1.035183  0
H  H26  1  0.31357092  0.74171749  0.21909433  1  0  0.148744  0  0.925148  0  0  0.163107  0  0.978045  0  0  0.165119  0  0.97873  0  0  0.115314  0.161336  0  0.978361  0
H  H27  1  0.68641996  0.25827946  0.78090062  1  0  0.148802  0  0.92508  0  0  0.163176  0  0.977954  0  0  0.165186  0  0.978639  0  0  0.115376  0.161404  0  0.978264  0
H  H28  1  0.00887849  0.68553635  0.18824371  1  0  0.14939  0  0.945717  0  0  0.16145  0  1.00488  0  0  0.164123  0  1.004152  0  0  0.115837  0.15947  0  1.005764  0
H  H29  1  0.99110055  0.31446404  0.81175600  1  0  0.14951  0  0.945519  0  0  0.161554  0  1.004697  0  0  0.164227  0  1.003968  0  0  0.115887  0.159574  0  1.005576  0
H  H30  1  0.16501755  0.81276404  0.51159304  1  0  0.39375  0  0.913065  0  0  0.362668  0  0.988958  0  0  0.375708  0  0.970899  0  0  0.303215  0.353486  0  0.999386  0
H  H31  1  0.83498189  0.18724912  0.48841308  1  0  0.393823  0  0.91297  0  0  0.362669  0  0.988946  0  0  0.375708  0  0.970892  0  0  0.303241  0.353485  0  0.999383  0
H  H32  1  0.52562277  0.37917328  0.11335141  1  0  0.430834  0  0.876642  0  0  0.398562  0  0.943568  0  0  0.409569  0  0.92784  0  0  0.315971  0.391048  0  0.954313  0
H  H33  1  0.47436431  0.62082267  0.88664556  1  0  0.430847  0  0.876624  0  0  0.398586  0  0.943535  0  0  0.409597  0  0.927799  0  0  0.315996  0.391074  0  0.954276  0
H  H34  1  0.20103189  0.30080229  0.52411049  1  0  0.397521  0  0.883469  0  0  0.365399  0  0.963134  0  0  0.378536  0  0.949498  0  0  0.304813  0.356114  0  0.972802  0
H  H35  1  0.79898689  0.69921819  0.47589632  1  0  0.397451  0  0.883543  0  0  0.365339  0  0.963173  0  0  0.378475  0  0.949542  0  0  0.304807  0.35606  0  0.972821  0
H  H36  1  0.67229921  0.68821183  0.07487065  1  0  0.445716  0  0.828371  0  0  0.420387  0  0.888696  0  0  0.430613  0  0.873778  0  0  0.321921  0.413022  0  0.899424  0
H  H37  1  0.32770654  0.31177959  0.92512753  1  0  0.445759  0  0.828391  0  0  0.420436  0  0.888645  0  0  0.430662  0  0.873727  0  0  0.321927  0.41307  0  0.899375  0
H  H38  1  0.67791108  0.85505957  0.09772202  1  0  0.454519  0  0.842202  0  0  0.423206  0  0.906462  0  0  0.434484  0  0.890231  0  0  0.305174  0.415183  0  0.917961  0
H  H39  1  0.32209048  0.14492861  0.90227236  1  0  0.454797  0  0.841807  0  0  0.423419  0  0.906199  0  0  0.4347  0  0.889961  0  0  0.305228  0.415394  0  0.917702  0
C  C40  1  0.24484104  0.09920782  0.26100821  1  0  0.166863  0  3.752185  0  0  0.182339  0  3.988103  0  0  0.18596  0  4.012863  0  0  0.001149  0.180131  0  3.972635  0
C  C41  1  0.75517288  0.90078035  0.73899672  1  0  0.167113  0  3.752101  0  0  0.182527  0  3.988125  0  0  0.186152  0  4.012877  0  0  0.001261  0.180312  0  3.972646  0
C  C42  1  0.40699394  0.08975810  0.31910197  1  0  -0.13538  0  3.718922  0  0  -0.155267  0  3.971564  0  0  -0.161133  0  3.992891  0  0  -0.094193  -0.151138  0  3.956995  0
C  C43  1  0.59302711  0.91022997  0.68090193  1  0  -0.135369  0  3.718581  0  0  -0.155226  0  3.971283  0  0  -0.161075  0  3.992619  0  0  -0.094183  -0.151118  0  3.956762  0
C  C44  1  0.34209386  0.01088088  0.36983965  1  0  -0.044056  0  3.70463  0  0  -0.071467  0  3.956175  0  0  -0.068525  0  3.974025  0  0  -0.078405  -0.07277  0  3.94378  0
C  C45  1  0.65790789  0.98910842  0.63015819  1  0  -0.044242  0  3.704451  0  0  -0.071605  0  3.955989  0  0  -0.068668  0  3.973846  0  0  -0.078352  -0.072907  0  3.943593  0
C  C46  1  0.11171272  0.93758987  0.36297274  1  0  -0.093705  0  3.779701  0  0  -0.073895  0  4.019776  0  0  -0.084426  0  4.044408  0  0  -0.022846  -0.067006  0  4.005213  0
C  C47  1  0.88829813  0.06240044  0.63702807  1  0  -0.093584  0  3.779342  0  0  -0.073741  0  4.019434  0  0  -0.08427  0  4.044064  0  0  -0.022836  -0.066877  0  4.004895  0
C  C48  1  0.94954797  0.94385167  0.30408134  1  0  -0.041597  0  3.728745  0  0  -0.067102  0  3.981645  0  0  -0.064414  0  4.000799  0  0  -0.076089  -0.068941  0  3.969356  0
C  C49  1  0.05046639  0.05615589  0.69592305  1  0  -0.041629  0  3.728624  0  0  -0.067099  0  3.981532  0  0  -0.06441  0  4.00068  0  0  -0.076051  -0.068927  0  3.969235  0
C  C50  1  0.01500394  0.02454733  0.25384312  1  0  -0.13784  0  3.705209  0  0  -0.157531  0  3.958642  0  0  -0.163258  0  3.979739  0  0  -0.089684  -0.15376  0  3.945089  0
C  C51  1  0.98500932  0.97545485  0.74616105  1  0  -0.137962  0  3.705243  0  0  -0.157665  0  3.958679  0  0  -0.163387  0  3.97977  0  0  -0.089755  -0.153894  0  3.945116  0
C  C52  1  0.32181418  0.19368177  0.21113182  1  0  -0.489122  0  3.685859  0  0  -0.506095  0  3.91016  0  0  -0.51532  0  3.916742  0  0  -0.160338  -0.500086  0  3.906969  0
C  C53  1  0.67818135  0.80631191  0.78886492  1  0  -0.489126  0  3.686213  0  0  -0.506113  0  3.910615  0  0  -0.515341  0  3.917214  0  0  -0.160338  -0.500092  0  3.907399  0
C  C54  1  0.04446211  0.85745083  0.41915615  1  0  0.658064  0  3.819305  0  0  0.602108  0  4.125047  0  0  0.636231  0  4.117128  0  0  0.23404  0.578011  0  4.13212  0
C  C55  1  0.95552621  0.14256032  0.58085012  1  0  0.658183  0  3.818744  0  0  0.602087  0  4.124668  0  0  0.636211  0  4.11675  0  0  0.234091  0.577994  0  4.13174  0
C  C56  1  0.15316693  0.57219260  0.26357666  1  0  0.166709  0  3.754013  0  0  0.181805  0  3.990015  0  0  0.185446  0  4.013945  0  0  0.002192  0.178974  0  3.976053  0
C  C57  1  0.84683615  0.42780317  0.73642210  1  0  0.166699  0  3.754186  0  0  0.181818  0  3.990174  0  0  0.185458  0  4.014107  0  0  0.002141  0.178991  0  3.976204  0
C  C58  1  0.34147609  0.58257648  0.31792877  1  0  -0.129295  0  3.690309  0  0  -0.14949  0  3.944141  0  0  -0.155053  0  3.965358  0  0  -0.089846  -0.14561  0  3.931123  0
C  C59  1  0.65852207  0.41743016  0.68207148  1  0  -0.129179  0  3.690451  0  0  -0.149381  0  3.944292  0  0  -0.154948  0  3.965506  0  0  -0.089808  -0.145491  0  3.931258  0
C  C60  1  0.31706170  0.51043021  0.37429022  1  0  -0.038592  0  3.687422  0  0  -0.065479  0  3.937901  0  0  -0.062675  0  3.956541  0  0  -0.077065  -0.067623  0  3.925653  0
C  C61  1  0.68294004  0.48956773  0.62570883  1  0  -0.038652  0  3.687524  0  0  -0.065562  0  3.938006  0  0  -0.062765  0  3.956666  0  0  -0.077071  -0.067737  0  3.925737  0
C  C62  1  0.10232849  0.42667348  0.37688893  1  0  -0.097117  0  3.795934  0  0  -0.077084  0  4.036456  0  0  -0.087807  0  4.061446  0  0  -0.025039  -0.069377  0  4.020554  0
C  C63  1  0.89767805  0.57333101  0.62312043  1  0  -0.097389  0  3.796393  0  0  -0.077282  0  4.036869  0  0  -0.088009  0  4.06186  0  0  -0.025097  -0.069582  0  4.02098  0
C  C64  1  0.91262802  0.41780088  0.32327014  1  0  -0.055336  0  3.752331  0  0  -0.083286  0  4.00683  0  0  -0.081307  0  4.026653  0  0  -0.081461  -0.084287  0  3.993569  0
C  C65  1  0.08738744  0.58220346  0.67673600  1  0  -0.05521  0  3.752566  0  0  -0.083125  0  4.006971  0  0  -0.08114  0  4.026785  0  0  -0.081375  -0.084127  0  3.993703  0
C  C66  1  0.93769935  0.48891585  0.26700153  1  0  -0.134547  0  3.714258  0  0  -0.152729  0  3.965596  0  0  -0.157282  0  3.985155  0  0  -0.092428  -0.149268  0  3.952057  0
C  C67  1  0.06229434  0.51108656  0.73300137  1  0  -0.134604  0  3.714252  0  0  -0.152805  0  3.96561  0  0  -0.157352  0  3.985159  0  0  -0.092508  -0.149345  0  3.952066  0
C  C68  1  0.17894670  0.64741945  0.20197225  1  0  -0.512027  0  3.719015  0  0  -0.532062  0  3.951692  0  0  -0.542817  0  3.960137  0  0  -0.158448  -0.525008  0  3.947354  0
C  C69  1  0.82104128  0.35258077  0.79802258  1  0  -0.512206  0  3.719008  0  0  -0.532274  0  3.951777  0  0  -0.543021  0  3.960207  0  0  -0.158578  -0.525228  0  3.947435  0
C  C70  1  0.06531244  0.34609741  0.43438666  1  0  0.658929  0  3.80387  0  0  0.602666  0  4.107823  0  0  0.636887  0  4.09961  0  0  0.23896  0.578849  0  4.113675  0
C  C71  1  0.93467913  0.65392134  0.56562731  1  0  0.659236  0  3.80333  0  0  0.602862  0  4.107433  0  0  0.637087  0  4.099219  0  0  0.239056  0.579041  0  4.113287  0
O  O72  1  0.46212189  0.95613474  0.10151250  1  0  -0.927013  0  1.946374  0  0  -0.85393  0  2.207223  0  0  -0.885849  0  2.190029  0  0  -0.410781  -0.830736  0  2.217828  0
O  O73  1  0.53787814  0.04385450  0.89847927  1  0  -0.927166  0  1.946341  0  0  -0.854057  0  2.207251  0  0  -0.88597  0  2.19007  0  0  -0.410795  -0.830866  0  2.217854  0
O  O74  1  0.12720438  0.07550683  0.06517846  1  0  -0.99393  0  1.975492  0  0  -0.9205  0  2.260853  0  0  -0.959521  0  2.245651  0  0  -0.492345  -0.891657  0  2.269666  0
O  O75  1  0.87278469  0.92449019  0.93481977  1  0  -0.993929  0  1.975513  0  0  -0.920494  0  2.26088  0  0  -0.959509  0  2.245685  0  0  -0.492288  -0.891651  0  2.269694  0
O  O76  1  0.55207708  0.21033519  0.08587126  1  0  -0.926674  0  1.973662  0  0  -0.848392  0  2.243961  0  0  -0.881535  0  2.224471  0  0  -0.439369  -0.824436  0  2.256613  0
O  O77  1  0.44792379  0.78966703  0.91412455  1  0  -0.926639  0  1.973639  0  0  -0.848384  0  2.243968  0  0  -0.881526  0  2.224488  0  0  -0.43936  -0.824429  0  2.256617  0
O  O78  1  0.21061891  0.87509940  0.47461286  1  0  -0.541993  0  2.12314  0  0  -0.490542  0  2.344947  0  0  -0.513309  0  2.32796  0  0  -0.322594  -0.474559  0  2.355013  0
O  O79  1  0.78938972  0.12489739  0.52538665  1  0  -0.542184  0  2.123155  0  0  -0.490546  0  2.344977  0  0  -0.51331  0  2.327988  0  0  -0.322621  -0.474564  0  2.355047  0
O  O80  1  0.84901989  0.78134071  0.41424295  1  0  -0.571863  0  1.981695  0  0  -0.518438  0  2.200363  0  0  -0.541672  0  2.192794  0  0  -0.285336  -0.503021  0  2.206555  0
O  O81  1  0.15098761  0.21866796  0.58575713  1  0  -0.571935  0  1.981277  0  0  -0.518484  0  2.200022  0  0  -0.54172  0  2.192452  0  0  -0.285391  -0.503067  0  2.206214  0
O  O82  1  0.29878186  0.63066009  0.05789366  1  0  -0.934639  0  1.939573  0  0  -0.863675  0  2.214892  0  0  -0.897373  0  2.194488  0  0  -0.460805  -0.839263  0  2.227692  0
O  O83  1  0.70120853  0.36933478  0.94210649  1  0  -0.934684  0  1.939657  0  0  -0.863685  0  2.214932  0  0  -0.897386  0  2.194529  0  0  -0.460792  -0.839278  0  2.227731  0
O  O84  1  0.51920521  0.48751909  0.12936135  1  0  -0.753606  0  1.998066  0  0  -0.683787  0  2.219036  0  0  -0.704403  0  2.193355  0  0  -0.378135  -0.669445  0  2.236386  0
O  O85  1  0.48077073  0.51247487  0.87063797  1  0  -0.753678  0  1.998221  0  0  -0.683871  0  2.219177  0  0  -0.704498  0  2.193494  0  0  -0.378196  -0.66953  0  2.23652  0
O  O86  1  0.08350605  0.40217091  0.08281220  1  0  -0.926846  0  1.936516  0  0  -0.858259  0  2.218064  0  0  -0.892222  0  2.19845  0  0  -0.466879  -0.833426  0  2.230502  0
O  O87  1  0.91648329  0.59782711  0.91718069  1  0  -0.926798  0  1.936545  0  0  -0.858221  0  2.2181  0  0  -0.892183  0  2.198482  0  0  -0.466834  -0.833388  0  2.230535  0
O  O88  1  0.24260469  0.36120549  0.48624245  1  0  -0.530063  0  2.108183  0  0  -0.476682  0  2.329301  0  0  -0.499208  0  2.315453  0  0  -0.314  -0.460651  0  2.338514  0
O  O89  1  0.75741211  0.63880529  0.51376297  1  0  -0.530033  0  2.108258  0  0  -0.476575  0  2.329383  0  0  -0.4991  0  2.315537  0  0  -0.313961  -0.460539  0  2.338591  0
O  O90  1  0.87308025  0.26859395  0.43229167  1  0  -0.559462  0  2.035219  0  0  -0.504114  0  2.254245  0  0  -0.527421  0  2.245737  0  0  -0.279179  -0.487929  0  2.259818  0
O  O91  1  0.12692244  0.73142683  0.56772270  1  0  -0.559581  0  2.034755  0  0  -0.504256  0  2.253823  0  0  -0.527564  0  2.24531  0  0  -0.279206  -0.488068  0  2.259397  0
O  O92  1  0.78618398  0.77538664  0.08627306  1  0  -0.897292  0  1.779556  0  0  -0.849555  0  1.971316  0  0  -0.875867  0  1.939384  0  0  -0.623556  -0.830514  0  1.993848  0
O  O93  1  0.21381819  0.22460486  0.91372838  1  0  -0.897572  0  1.779245  0  0  -0.849834  0  1.970986  0  0  -0.876148  0  1.939052  0  0  -0.62363  -0.830797  0  1.993521  0
