# generated using pymatgen
data_MnH12C16N2(ClO2)2
_symmetry_space_group_name_H-M   'P 1'
_cell_length_a   7.40062263
_cell_length_b   11.26458185
_cell_length_c   11.26347256
_cell_angle_alpha   60.42177321
_cell_angle_beta   87.28934233
_cell_angle_gamma   87.29121640
_symmetry_Int_Tables_number   1
_chemical_formula_structural   MnH12C16N2(ClO2)2
_chemical_formula_sum   'Mn2 H24 C32 N4 Cl4 O8'
_cell_volume   815.39034010
_cell_formula_units_Z   2
loop_
 _symmetry_equiv_pos_site_id
 _symmetry_equiv_pos_as_xyz
  1  'x, y, z'
loop_
 _atom_site_type_symbol
 _atom_site_label
 _atom_site_symmetry_multiplicity
 _atom_site_fract_x
 _atom_site_fract_y
 _atom_site_fract_z
 _atom_site_occupancy
 _atom_site_hle17_ddec_charge
 _atom_site_hle17_ddec_spin_density
 _atom_site_hle17_ddec_sum_bond_order
 _atom_site_hle17_magmom
 _atom_site_hse06_10hf_ddec_charge
 _atom_site_hse06_10hf_ddec_spin_density
 _atom_site_hse06_10hf_ddec_sum_bond_order
 _atom_site_hse06_10hf_magmom
 _atom_site_hse06_ddec_charge
 _atom_site_hse06_ddec_spin_density
 _atom_site_hse06_ddec_sum_bond_order
 _atom_site_hse06_magmom
 _atom_site_pbe_cm5_charge
 _atom_site_pbe_ddec_charge
 _atom_site_pbe_ddec_spin_density
 _atom_site_pbe_ddec_sum_bond_order
 _atom_site_pbe_magmom
Mn  Mn0  1  0.24999653  0.61443602  0.38555654  1  1.145605  4.787162  1.825955  4.672  0.979424  4.704496  2.330486  4.523  1.036004  4.752254  2.260733  4.591  0.607897  0.935516  4.653245  2.383175  4.453
Mn  Mn1  1  0.75000359  0.38557229  0.61443960  1  1.145658  4.787225  1.825751  4.672  0.979408  4.704551  2.330277  4.523  1.035995  4.752295  2.260526  4.591  0.607908  0.935496  4.653317  2.38297  4.453
H  H2  1  0.10376710  0.41038440  0.23408822  1  0.123593  8.1e-05  0.945591  0.0  0.128655  0.00043  1.017753  0.001  0.132248  0.000206  1.014703  0.001  0.102228  0.126006  0.000732  1.020159  0.001
H  H3  1  0.39626390  0.76589336  0.58962557  1  0.123559  6.2e-05  0.945663  0.0  0.128666  0.000429  1.017804  0.001  0.13226  0.000206  1.014761  0.001  0.102249  0.126015  0.000731  1.020216  0.001
H  H4  1  0.89622568  0.58960654  0.76592213  1  0.12354  7.1e-05  0.945559  0.0  0.128664  0.00043  1.017693  0.001  0.132255  0.000206  1.014647  0.001  0.102221  0.126017  0.000732  1.020093  0.001
H  H5  1  0.60375341  0.23409461  0.41039160  1  0.123615  6.9e-05  0.945745  0.0  0.128708  0.000429  1.017873  0.001  0.132301  0.000206  1.014828  0.001  0.102239  0.126056  0.000731  1.020279  0.001
H  H6  1  0.00448175  0.57278809  0.11959976  1  0.104909  8.1e-05  0.952713  0.0  0.111319  0.000261  1.024557  0.0  0.11399  0.000138  1.022558  0.0  0.096477  0.109603  0.000407  1.025816  0.001
H  H7  1  0.49554495  0.88036495  0.42720682  1  0.104797  7.9e-05  0.952755  0.0  0.111188  0.00026  1.024718  0.0  0.113866  0.000138  1.022714  0.0  0.09635  0.109467  0.000407  1.025968  0.001
H  H8  1  0.99553421  0.42719573  0.88040265  1  0.104921  8.4e-05  0.952542  0.0  0.111327  0.000261  1.024462  0.0  0.113996  0.000138  1.022466  0.0  0.096475  0.109613  0.000407  1.02572  0.001
H  H9  1  0.50445050  0.11962910  0.57281165  1  0.105  8.3e-05  0.952705  0.0  0.111391  0.000261  1.024611  0.0  0.114067  0.000138  1.022605  0.0  0.096445  0.109672  0.000407  1.025873  0.001
H  H10  1  0.03238749  0.83101522  0.45674934  1  0.082578  -8.5e-05  0.946526  0.0  0.086334  0.000242  1.016877  0.001  0.089114  8.1e-05  1.014459  0.0  0.114105  0.084076  0.000458  1.019023  0.001
H  H11  1  0.46759780  0.54327275  0.16896425  1  0.082332  -8.9e-05  0.946273  0.0  0.086103  0.000244  1.01666  0.001  0.088895  8.3e-05  1.014246  0.0  0.114001  0.08387  0.000462  1.018776  0.001
H  H12  1  0.96759989  0.16897156  0.54324816  1  0.082569  -9.8e-05  0.946456  0.0  0.086336  0.000242  1.016804  0.001  0.089113  8.2e-05  1.014385  0.0  0.114111  0.084071  0.000459  1.01896  0.001
H  H13  1  0.53241717  0.45673455  0.83102476  1  0.082445  -8.7e-05  0.946283  0.0  0.086209  0.000244  1.016671  0.001  0.089  8.3e-05  1.014255  0.0  0.114046  0.083978  0.000461  1.018796  0.001
H  H14  1  0.93088193  0.07877494  0.33480026  1  0.098969  0.000227  0.954315  0.0  0.106013  0.000309  1.019372  0.0  0.109071  0.00024  1.018472  0.0  0.100029  0.103544  0.000416  1.020635  0.0
H  H15  1  0.56911910  0.66523748  0.92117806  1  0.099044  0.000226  0.954638  0.0  0.106075  0.000309  1.01969  0.0  0.109134  0.000239  1.018781  0.0  0.100043  0.103609  0.000416  1.020948  0.0
H  H16  1  0.06910405  0.92121597  0.66520680  1  0.099071  0.00023  0.954411  0.0  0.106072  0.000309  1.0195  0.0  0.109128  0.000239  1.018599  0.0  0.100042  0.103604  0.000416  1.020763  0.0
H  H17  1  0.43088496  0.33477286  0.07881337  1  0.098984  0.000226  0.954479  0.0  0.105997  0.000309  1.019569  0.0  0.109056  0.000239  1.018662  0.0  0.100039  0.103532  0.000416  1.020825  0.0
H  H18  1  0.01330971  0.22271590  0.08774791  1  0.090021  -8.1e-05  0.965832  0.0  0.098207  3.2e-05  1.034978  0.0  0.101028  2e-06  1.032748  0.0  0.096833  0.096245  3.9e-05  1.036461  0.0
H  H19  1  0.48669371  0.91225920  0.77723993  1  0.089934  -8.6e-05  0.965891  0.0  0.097982  3.2e-05  1.03521  0.0  0.100807  3e-06  1.032958  0.0  0.09674  0.096028  3.9e-05  1.036683  0.0
H  H20  1  0.98668168  0.77727503  0.91225982  1  0.089986  -8.1e-05  0.965942  0.0  0.09814  3.2e-05  1.035119  0.0  0.100958  2e-06  1.032897  0.0  0.09682  0.096179  3.9e-05  1.036599  0.0
H  H21  1  0.51329441  0.08774395  0.22275564  1  0.089868  -7.7e-05  0.965848  0.0  0.097934  3.1e-05  1.035148  0.0  0.100756  2e-06  1.032909  0.0  0.096706  0.095982  3.9e-05  1.036614  0.0
H  H22  1  0.16067546  0.23739611  0.87188165  1  0.110624  -0.000223  0.95294  0.0  0.12279  -0.000204  1.011243  0.0  0.125285  -0.000255  1.010897  0.0  0.10705  0.120759  -0.000126  1.011833  0.0
H  H23  1  0.33935753  0.12809618  0.76257615  1  0.110542  -0.000216  0.953139  0.0  0.122881  -0.000204  1.011191  0.0  0.125324  -0.000255  1.010924  0.0  0.107024  0.120854  -0.000126  1.011776  0.0
H  H24  1  0.83931004  0.76260499  0.12811503  1  0.110638  -0.000234  0.953074  0.0  0.122873  -0.000204  1.011265  0.0  0.125348  -0.000255  1.010944  0.0  0.107114  0.120839  -0.000126  1.011849  0.0
H  H25  1  0.66063313  0.87191107  0.23741818  1  0.11057  -0.000231  0.953223  0.0  0.122847  -0.000204  1.011336  0.0  0.125299  -0.000254  1.011045  0.0  0.107  0.120855  -0.000126  1.011886  0.0
C  C26  1  0.91732170  0.48682275  0.33236568  1  0.715571  0.014121  3.850792  0.013  0.666103  0.022441  4.148556  0.02  0.702244  0.01698  4.139832  0.016  0.220659  0.64054  0.028351  4.15352  0.024
C  C27  1  0.58272025  0.66761537  0.51320578  1  0.715416  0.014103  3.850297  0.013  0.665836  0.022426  4.148293  0.02  0.701981  0.016971  4.139572  0.016  0.220592  0.640272  0.028336  4.153265  0.024
C  C28  1  0.08268958  0.51317949  0.66764195  1  0.715557  0.014085  3.850783  0.013  0.666133  0.022425  4.148493  0.02  0.702268  0.016967  4.13977  0.016  0.220798  0.640571  0.028329  4.153457  0.024
C  C29  1  0.41730482  0.33238183  0.48680919  1  0.715536  0.014098  3.850447  0.013  0.666031  0.022425  4.148354  0.02  0.702169  0.016969  4.139627  0.016  0.220684  0.640479  0.028331  4.153314  0.024
C  C30  1  0.97797328  0.47283969  0.20826226  1  -0.192821  0.000816  3.593766  0.001  -0.239489  0.001659  3.868472  0.001  -0.240054  0.000955  3.868116  0.001  -0.1282  -0.239201  0.00247  3.868997  0.002
C  C31  1  0.52203496  0.79172562  0.52716191  1  -0.192297  0.000849  3.593363  0.001  -0.239052  0.001663  3.868173  0.001  -0.239636  0.000958  3.867853  0.001  -0.128003  -0.23875  0.002472  3.868672  0.002
C  C32  1  0.02203024  0.52715125  0.79174060  1  -0.192731  0.000836  3.593394  0.001  -0.239542  0.001656  3.868215  0.001  -0.240104  0.000958  3.867859  0.001  -0.12821  -0.239252  0.002468  3.868733  0.002
C  C33  1  0.47797119  0.20827049  0.47285072  1  -0.192712  0.000838  3.59364  0.001  -0.239449  0.001661  3.868429  0.001  -0.240024  0.000958  3.868096  0.001  -0.128071  -0.239158  0.002471  3.868943  0.002
C  C34  1  0.06453397  0.89721378  0.34854728  1  0.142535  0.001704  3.686354  0.002  0.112436  0.004085  3.941526  0.003  0.119596  0.003169  3.958585  0.003  0.059779  0.107726  0.005082  3.929973  0.004
C  C35  1  0.43542947  0.65150374  0.10274841  1  0.142701  0.001721  3.687801  0.002  0.112593  0.004081  3.942995  0.003  0.11973  0.003165  3.960075  0.003  0.059779  0.107864  0.005076  3.931421  0.004
C  C36  1  0.93544938  0.10277508  0.65146000  1  0.142448  0.001778  3.687278  0.002  0.112329  0.00408  3.942429  0.003  0.119494  0.003161  3.95948  0.003  0.059749  0.107627  0.005074  3.930885  0.004
C  C37  1  0.56457298  0.34851169  0.89723612  1  0.142605  0.00171  3.687068  0.002  0.112481  0.004086  3.942313  0.003  0.119623  0.003168  3.959393  0.003  0.059794  0.10775  0.005079  3.930755  0.004
C  C38  1  0.00902447  0.03567007  0.27992897  1  -0.126234  -0.000475  3.768912  0.0  -0.140319  -0.000104  4.027931  0.0  -0.147279  -0.000553  4.050209  0.0  -0.091825  -0.135678  0.000266  4.01311  0.0
C  C39  1  0.49097588  0.72006838  0.96429416  1  -0.126489  -0.000473  3.76818  0.0  -0.140551  -0.000106  4.027103  0.0  -0.147532  -0.000553  4.049427  0.0  -0.091802  -0.135901  0.000265  4.012271  0.0
C  C40  1  0.99096623  0.96433304  0.72005410  1  -0.126245  -0.000535  3.768731  0.0  -0.140298  -0.000106  4.027712  0.0  -0.14726  -0.000548  4.049997  0.0  -0.091786  -0.135655  0.000267  4.012883  0.0
C  C41  1  0.50902345  0.27992457  0.03570164  1  -0.126317  -0.000471  3.768251  0.0  -0.140363  -0.000109  4.027197  0.0  -0.147333  -0.000553  4.049499  0.0  -0.091797  -0.135712  0.000265  4.012364  0.0
C  C42  1  0.05420438  0.11498197  0.14284683  1  -0.050721  0.001536  3.706324  0.001  -0.077242  0.003002  3.958106  0.002  -0.075459  0.002452  3.977461  0.002  -0.069848  -0.07837  0.003839  3.944983  0.003
C  C43  1  0.44576754  0.85719085  0.88496833  1  -0.050248  0.00154  3.705378  0.001  -0.076665  0.003004  3.95721  0.002  -0.074875  0.002451  3.976559  0.002  -0.069718  -0.077794  0.00384  3.944085  0.003
C  C44  1  0.94577888  0.88500893  0.85715944  1  -0.050645  0.001558  3.705712  0.001  -0.077113  0.003003  3.957468  0.002  -0.075323  0.002447  3.976809  0.002  -0.06979  -0.078239  0.003837  3.944343  0.003
C  C45  1  0.55421444  0.14282861  0.11501403  1  -0.050314  0.001524  3.705679  0.001  -0.076731  0.003006  3.957456  0.002  -0.07494  0.00245  3.976802  0.002  -0.069704  -0.077856  0.003839  3.944317  0.003
C  C46  1  0.15182902  0.05556574  0.07375677  1  0.019715  -0.000415  3.802541  0.0  0.037596  -5.3e-05  4.031988  0.0  0.035025  -0.000374  4.056833  0.0  -0.003203  0.039197  0.00027  4.015448  0.0
C  C47  1  0.34816417  0.92623540  0.94439028  1  0.019276  -0.000414  3.803333  0.0  0.037033  -5.5e-05  4.03284  0.0  0.034471  -0.00037  4.057668  0.0  -0.003274  0.038633  0.000269  4.016305  0.0
C  C48  1  0.84814825  0.94443841  0.92623958  1  0.019597  -0.00042  3.802459  0.0  0.037435  -5.5e-05  4.031934  0.0  0.034874  -0.00037  4.056792  0.0  -0.003242  0.039043  0.00027  4.015379  0.0
C  C49  1  0.65182536  0.07376363  0.05559575  1  0.019424  -0.000404  3.803234  0.0  0.037243  -5.7e-05  4.032633  0.0  0.034675  -0.000373  4.057454  0.0  -0.003203  0.038843  0.000269  4.016105  0.0
C  C50  1  0.20101492  0.91470578  0.15152079  1  0.130778  0.000968  3.743444  0.001  0.125061  0.002765  3.979221  0.002  0.129412  0.002122  4.000067  0.002  0.123928  0.122072  0.003699  3.965232  0.003
C  C51  1  0.29895811  0.84848179  0.08527350  1  0.131019  0.000965  3.742492  0.001  0.125439  0.002767  3.978165  0.002  0.129753  0.00212  3.999033  0.002  0.123923  0.122449  0.003702  3.964181  0.003
C  C52  1  0.79897055  0.08529738  0.84848019  1  0.130631  0.000974  3.743529  0.001  0.124994  0.002761  3.979161  0.002  0.129286  0.002118  4.000065  0.002  0.12381  0.122005  0.003695  3.965171  0.003
C  C53  1  0.70103525  0.15152442  0.91471593  1  0.131081  0.000969  3.743326  0.001  0.125464  0.002765  3.978957  0.002  0.129821  0.002123  3.999798  0.002  0.123968  0.122475  0.003699  3.964974  0.003
C  C54  1  0.20180125  0.13014194  0.93162702  1  -0.088113  -0.00026  3.713173  0.0  -0.112352  -0.000247  3.96907  0.0  -0.11538  -0.000333  3.991861  0.0  -0.08271  -0.110334  -0.000135  3.954174  0.0
C  C55  1  0.29821841  0.06833925  0.86983265  1  -0.088286  -0.000324  3.713544  0.0  -0.112455  -0.000244  3.969251  0.0  -0.115456  -0.000337  3.992107  0.0  -0.082602  -0.110438  -0.000135  3.954355  0.0
C  C56  1  0.79817901  0.86985610  0.06837581  1  -0.087962  -0.000258  3.713036  0.0  -0.112256  -0.000247  3.968938  0.0  -0.115266  -0.000336  3.991733  0.0  -0.082716  -0.110242  -0.000135  3.954046  0.0
C  C57  1  0.70176569  0.93166287  0.13016357  1  -0.088482  -0.00027  3.713868  0.0  -0.112639  -0.000243  3.969615  0.0  -0.115638  -0.000332  3.992468  0.0  -0.082676  -0.110657  -0.000134  3.954687  0.0
N  N58  1  0.15871925  0.83874646  0.28654256  1  -0.331905  0.026285  3.219108  0.017  -0.269304  0.030889  3.485061  0.018  -0.286358  0.027516  3.500046  0.015  -0.303193  -0.257118  0.03431  3.474898  0.021
N  N59  1  0.34127247  0.71345602  0.16122857  1  -0.331976  0.02627  3.219728  0.017  -0.269388  0.030888  3.485677  0.018  -0.286427  0.027519  3.500673  0.015  -0.303275  -0.257205  0.034309  3.475523  0.021
N  N60  1  0.84128691  0.16124343  0.71345008  1  -0.331794  0.026236  3.219339  0.017  -0.26918  0.030888  3.485268  0.018  -0.286218  0.027515  3.50027  0.015  -0.30313  -0.256995  0.034307  3.475105  0.021
N  N61  1  0.65874051  0.28653391  0.83876913  1  -0.332033  0.026276  3.220029  0.017  -0.269481  0.030888  3.486058  0.018  -0.286535  0.027515  3.501044  0.015  -0.303321  -0.2573  0.034307  3.475919  0.021
Cl  Cl62  1  0.81790754  0.39170613  0.15850528  1  -0.126617  -5.5e-05  1.295508  0.0  -0.09281  0.000602  1.540091  0.001  -0.097593  0.000241  1.531962  0.0  -0.033983  -0.089515  0.001156  1.546051  0.001
Cl  Cl63  1  0.68212350  0.84147464  0.60829817  1  -0.126774  -5.6e-05  1.295377  0.0  -0.092908  0.000601  1.540002  0.001  -0.09768  0.000241  1.531871  0.0  -0.033962  -0.089611  0.001156  1.545951  0.001
Cl  Cl64  1  0.18208642  0.60829201  0.84151388  1  -0.126682  -5.6e-05  1.295256  0.0  -0.092808  0.000602  1.539828  0.001  -0.097587  0.000241  1.531695  0.0  -0.033984  -0.089509  0.001157  1.545786  0.001
Cl  Cl65  1  0.31789062  0.15852454  0.39171087  1  -0.126647  -5.5e-05  1.295409  0.0  -0.092782  0.000601  1.540008  0.001  -0.097557  0.000241  1.531867  0.0  -0.033947  -0.089488  0.001155  1.545962  0.001
O  O66  1  0.98071654  0.58702996  0.33677098  1  -0.63863  0.026672  2.026288  0.014  -0.583101  0.037392  2.296536  0.021  -0.612089  0.032306  2.281862  0.016  -0.306771  -0.560873  0.042574  2.30578  0.025
O  O67  1  0.51931116  0.66320894  0.41296539  1  -0.63902  0.026683  2.024969  0.014  -0.583432  0.03739  2.295242  0.021  -0.612433  0.032303  2.280567  0.016  -0.306971  -0.561197  0.042576  2.304488  0.025
O  O68  1  0.01931937  0.41299580  0.66321433  1  -0.638595  0.026673  2.026649  0.014  -0.582989  0.037372  2.29676  0.021  -0.611971  0.03229  2.282092  0.016  -0.306712  -0.560765  0.042551  2.306003  0.025
O  O69  1  0.48070290  0.33679023  0.58703834  1  -0.638856  0.026687  2.0256  0.014  -0.5833  0.037391  2.295884  0.021  -0.612292  0.032305  2.281202  0.016  -0.306923  -0.561073  0.042577  2.305131  0.025
O  O70  1  0.81557725  0.39695722  0.42244023  1  -0.636863  0.035542  2.055822  0.024  -0.569569  0.044262  2.318315  0.028  -0.60074  0.038988  2.305829  0.024  -0.305301  -0.546412  0.049583  2.326075  0.033
O  O71  1  0.68443607  0.57756740  0.60305557  1  -0.636606  0.035533  2.056553  0.024  -0.569146  0.04425  2.318947  0.028  -0.600309  0.038976  2.306464  0.024  -0.305116  -0.545999  0.049568  2.32671  0.033
O  O72  1  0.18445491  0.60306553  0.57756446  1  -0.636883  0.035539  2.055052  0.024  -0.569615  0.044258  2.317511  0.028  -0.600784  0.038983  2.30502  0.024  -0.305442  -0.546463  0.049578  2.325289  0.033
O  O73  1  0.31558174  0.42243892  0.39694270  1  -0.636769  0.035529  2.056051  0.024  -0.569417  0.044253  2.31852  0.028  -0.60058  0.038979  2.306037  0.024  -0.305247  -0.546272  0.04957  2.326287  0.033
