# generated using pymatgen
data_CuH13C19N5O6
_symmetry_space_group_name_H-M   'P 1'
_cell_length_a   9.03448873
_cell_length_b   8.78387764
_cell_length_c   13.46548113
_cell_angle_alpha   80.34207174
_cell_angle_beta   76.30302048
_cell_angle_gamma   87.02622961
_symmetry_Int_Tables_number   1
_chemical_formula_structural   CuH13C19N5O6
_chemical_formula_sum   'Cu2 H26 C38 N10 O12'
_cell_volume   1023.40558184
_cell_formula_units_Z   2
loop_
 _symmetry_equiv_pos_site_id
 _symmetry_equiv_pos_as_xyz
  1  'x, y, z'
loop_
 _atom_site_type_symbol
 _atom_site_label
 _atom_site_symmetry_multiplicity
 _atom_site_fract_x
 _atom_site_fract_y
 _atom_site_fract_z
 _atom_site_occupancy
 _atom_site_hle17_ddec_charge
 _atom_site_hle17_ddec_spin_density
 _atom_site_hle17_ddec_sum_bond_order
 _atom_site_hle17_magmom
 _atom_site_hse06_10hf_ddec_charge
 _atom_site_hse06_10hf_ddec_spin_density
 _atom_site_hse06_10hf_ddec_sum_bond_order
 _atom_site_hse06_10hf_magmom
 _atom_site_hse06_ddec_charge
 _atom_site_hse06_ddec_spin_density
 _atom_site_hse06_ddec_sum_bond_order
 _atom_site_hse06_magmom
 _atom_site_pbe_cm5_charge
 _atom_site_pbe_ddec_charge
 _atom_site_pbe_ddec_spin_density
 _atom_site_pbe_ddec_sum_bond_order
 _atom_site_pbe_magmom
Cu  Cu0  1  0.09848266  0.21404304  0.08445555  1  0.839946  -0.666418  1.868086  -0.488  0.829091  -0.807016  2.255945  -0.651  0.924681  -0.898665  2.190405  -0.752  0.710736  0.762626  -0.657056  2.304439  -0.517
Cu  Cu1  1  0.90147197  0.78577166  0.91560813  1  0.839876  0.666448  1.868582  0.488  0.82922  0.807076  2.256199  0.651  0.924442  0.898732  2.191247  0.752  0.710765  0.762908  0.657067  2.304348  0.517
H  H2  1  0.49294337  0.56496440  0.29234718  1  0.295158  -0.000149  0.886862  0.0  0.277083  -0.000119  0.951444  0.0  0.284859  -8.2e-05  0.945072  0.0  0.319425  0.271274  -0.000131  0.956387  0.0
H  H3  1  0.50738583  0.43490668  0.70741814  1  0.295659  0.000149  0.885945  0.0  0.277502  0.000119  0.950754  0.0  0.285301  8.1e-05  0.944342  0.0  0.319686  0.271692  0.000131  0.955708  0.0
H  H4  1  0.65082912  0.78772018  0.35005684  1  0.298886  0.0  0.883547  0.0  0.283911  -1e-06  0.942069  0.0  0.292238  -2e-06  0.934708  0.0  0.32008  0.277849  -1e-06  0.947587  0.0
H  H5  1  0.34934004  0.21258008  0.64992585  1  0.298196  1e-06  0.884144  0.0  0.283574  1e-06  0.94222  0.0  0.291926  2e-06  0.934857  0.0  0.320031  0.277506  1e-06  0.947736  0.0
H  H6  1  0.16700923  0.39124402  0.22763560  1  0.115951  -0.000813  0.971594  -0.002  0.117868  -0.000743  1.039306  -0.002  0.121666  -0.000528  1.035267  -0.001  0.123516  0.114621  -0.000795  1.042672  -0.002
H  H7  1  0.83302113  0.60956649  0.77191997  1  0.116073  0.000812  0.972099  0.002  0.118193  0.000741  1.039464  0.002  0.122038  0.000527  1.035353  0.001  0.123779  0.114936  0.000793  1.042837  0.002
H  H8  1  0.43562261  0.17910970  0.99352462  1  0.096182  -0.000792  0.918207  -0.001  0.105007  -0.00074  0.976391  -0.001  0.107968  -0.00055  0.973486  -0.001  0.122974  0.102217  -0.000775  0.979095  -0.001
H  H9  1  0.56409280  0.82002172  0.00678715  1  0.096397  0.000793  0.918657  0.001  0.105439  0.00074  0.976504  0.001  0.108397  0.000549  0.973607  0.001  0.123052  0.102629  0.000775  0.979214  0.001
H  H10  1  0.67500783  0.28990519  0.01738549  1  0.124152  -0.000731  0.943651  -0.001  0.133885  -0.000622  0.998466  -0.001  0.138295  -0.000425  0.995921  0.0  0.111443  0.130151  -0.000683  1.001026  -0.001
H  H11  1  0.32498897  0.70854762  0.98300377  1  0.123359  0.00073  0.943545  0.001  0.133544  0.000621  0.997934  0.001  0.138038  0.000424  0.995277  0.0  0.111246  0.129726  0.000682  1.000592  0.001
H  H12  1  0.65451588  0.45807036  0.15189139  1  0.124384  -0.000124  0.949052  0.0  0.136505  1.9e-05  1.006047  0.0  0.140256  3.7e-05  1.003145  0.0  0.112311  0.133199  6e-06  1.008859  0.0
H  H13  1  0.34580865  0.54076666  0.84825747  1  0.124258  0.000124  0.949973  0.0  0.136236  -2e-05  1.007083  0.0  0.140074  -3.8e-05  1.004049  0.0  0.11252  0.132944  -7e-06  1.009889  0.0
H  H14  1  0.09650392  0.50601991  0.55853732  1  0.127355  -0.0  0.966617  0.0  0.130582  -3e-06  1.035405  0.0  0.135174  -2e-06  1.031954  0.0  0.1135  0.127239  -3e-06  1.0381  0.0
H  H15  1  0.90350041  0.49428104  0.44095141  1  0.126903  0.0  0.966822  0.0  0.130195  2e-06  1.035461  0.0  0.134788  1e-06  1.031997  0.0  0.113371  0.126867  3e-06  1.038109  0.0
H  H16  1  0.14259031  0.62891439  0.70459264  1  0.122345  0.000109  0.952774  0.0  0.131121  0.000109  1.011214  0.0  0.136033  5.1e-05  1.007546  0.0  0.112308  0.127387  0.000134  1.014123  0.0
H  H17  1  0.85728568  0.37095668  0.29511931  1  0.122353  -0.000109  0.95283  0.0  0.130928  -0.000109  1.011408  0.0  0.135845  -5e-05  1.007732  0.0  0.112298  0.127197  -0.000134  1.014315  0.0
H  H18  1  0.38261345  0.78608310  0.66990170  1  0.113607  -2.9e-05  0.946627  0.0  0.121203  -2.2e-05  1.010628  0.0  0.125275  -2e-05  1.008154  0.0  0.111333  0.118261  -2.1e-05  1.012536  0.0
H  H19  1  0.61727348  0.21372473  0.33004435  1  0.113271  2.9e-05  0.947218  0.0  0.121174  2.2e-05  1.010845  0.0  0.125234  2e-05  1.008368  0.0  0.111327  0.118244  2.1e-05  1.012721  0.0
H  H20  1  0.81107272  0.02269686  0.22906993  1  0.092458  5.5e-05  0.935845  0.0  0.10317  4.6e-05  0.994113  0.0  0.107003  4.4e-05  0.991111  0.0  0.11601  0.100353  5.3e-05  0.996412  0.0
H  H21  1  0.18913020  0.97735133  0.77103272  1  0.09195  -5.4e-05  0.936372  0.0  0.102745  -4.6e-05  0.994526  0.0  0.106579  -4.4e-05  0.991525  0.0  0.115843  0.099935  -5.3e-05  0.996815  0.0
H  H22  1  0.24147047  0.06545816  0.27910494  1  0.080978  5.6e-05  0.944217  0.0  0.087969  3.3e-05  1.008475  0.0  0.091127  3.4e-05  1.005855  0.0  0.112192  0.085863  4.3e-05  1.010325  0.0
H  H23  1  0.75839646  0.93520227  0.72138604  1  0.080896  -5.5e-05  0.943793  0.0  0.08764  -3.3e-05  1.00833  0.0  0.090793  -3.4e-05  1.005716  0.0  0.111901  0.08553  -4.3e-05  1.010201  0.0
H  H24  1  0.17843568  0.89080567  0.44728234  1  0.10281  2.1e-05  0.969112  0.0  0.109856  1.3e-05  1.032758  0.0  0.112417  1.1e-05  1.033403  0.0  0.101902  0.108113  2.1e-05  1.032343  0.0
H  H25  1  0.82127314  0.11004531  0.55326690  1  0.102674  -2.1e-05  0.969368  0.0  0.109775  -1.3e-05  1.032858  0.0  0.112351  -1.1e-05  1.033456  0.0  0.101587  0.108009  -2.2e-05  1.032525  0.0
H  H26  1  0.91790184  0.77021546  0.50802971  1  0.122209  3e-06  0.954409  0.0  0.130892  3e-06  1.015926  0.0  0.133999  2e-06  1.014051  0.0  0.112565  0.128713  5e-06  1.01728  0.0
H  H27  1  0.08197803  0.23019647  0.49226475  1  0.122092  -2e-06  0.95409  0.0  0.130664  -3e-06  1.015664  0.0  0.133762  -2e-06  1.013803  0.0  0.112495  0.128497  -5e-06  1.01698  0.0
C  C28  1  0.08109561  0.96468791  0.98985694  1  0.520665  -0.000569  3.91194  -0.001  0.484984  -0.000253  4.212631  -0.001  0.518751  -0.000267  4.208911  0.0  0.20176  0.460376  -0.000149  4.215396  0.0
C  C29  1  0.91898009  0.03493194  0.01032957  1  0.519507  0.00056  3.911996  0.001  0.483557  0.000251  4.212923  0.001  0.517324  0.000265  4.209217  0.0  0.201769  0.458946  0.000143  4.215686  0.0
C  C30  1  0.95692999  0.50550956  0.05733181  1  0.524995  0.005282  3.892736  0.009  0.493352  0.000704  4.195021  0.003  0.526102  0.000508  4.189808  0.002  0.194645  0.470063  0.000718  4.197716  0.003
C  C31  1  0.04289541  0.49431272  0.94248038  1  0.525221  -0.005287  3.892505  -0.009  0.493324  -0.000707  4.195123  -0.003  0.526081  -0.000509  4.18993  -0.002  0.195089  0.470002  -0.000723  4.19787  -0.003
C  C32  1  0.28101968  0.37041339  0.18360067  1  0.029755  0.005617  3.630299  0.006  -0.007204  0.001188  3.893096  0.002  -0.000596  0.002006  3.90909  0.003  0.042088  -0.011715  0.000542  3.883777  0.001
C  C33  1  0.71901138  0.62992177  0.81611933  1  0.029093  -0.005615  3.632404  -0.006  -0.00773  -0.001181  3.894796  -0.002  -0.001141  -0.002  3.910761  -0.003  0.041603  -0.01224  -0.000538  3.885504  -0.001
C  C34  1  0.43263262  0.25360406  0.05102462  1  0.107039  0.004438  3.687294  0.005  0.077517  0.00034  3.947415  0.001  0.085256  0.001375  3.966276  0.002  0.043644  0.072262  -0.000379  3.93629  0.0
C  C35  1  0.56724878  0.74577704  0.94910721  1  0.107371  -0.004436  3.687662  -0.005  0.077733  -0.000332  3.94788  -0.001  0.08548  -0.001366  3.96672  -0.002  0.044192  0.072549  0.000385  3.936608  0.0
C  C36  1  0.56396348  0.31573375  0.06461651  1  -0.090128  -0.007863  3.737894  -0.008  -0.103726  -0.0037  3.990417  -0.004  -0.10883  -0.003335  4.009635  -0.004  -0.079527  -0.100724  -0.003472  3.97863  -0.004
C  C37  1  0.43606045  0.68326145  0.93557580  1  -0.089947  0.007864  3.736523  0.008  -0.103955  0.003689  3.989267  0.004  -0.109143  0.003326  4.008522  0.004  -0.079574  -0.100891  0.003461  3.977467  0.004
C  C38  1  0.55275083  0.40687965  0.14123758  1  -0.110668  0.006784  3.672039  0.007  -0.133872  0.002587  3.918067  0.003  -0.133217  0.002738  3.935533  0.003  -0.070546  -0.134728  0.00221  3.907571  0.002
C  C39  1  0.44741267  0.59233456  0.85881508  1  -0.109384  -0.006781  3.671072  -0.007  -0.132455  -0.002573  3.917251  -0.003  -0.131897  -0.002726  3.934773  -0.003  -0.070513  -0.133285  -0.002198  3.906683  -0.002
C  C40  1  0.40884353  0.43218911  0.20401569  1  0.214522  -0.006563  3.784138  -0.007  0.212483  -0.003067  4.030751  -0.004  0.215774  -0.002834  4.052954  -0.004  0.106016  0.209735  -0.00281  4.016307  -0.004
C  C41  1  0.59131882  0.56774968  0.79578924  1  0.214451  0.006563  3.783383  0.007  0.212274  0.003058  4.029943  0.004  0.215562  0.002826  4.052172  0.004  0.106122  0.209522  0.002802  4.015525  0.003
C  C42  1  0.27618930  0.51619652  0.36906061  1  0.512836  -0.000294  3.82373  0.0  0.463544  -9.7e-05  4.112334  0.0  0.491534  -0.000116  4.112767  0.0  0.247131  0.444584  -7.2e-05  4.11166  0.0
C  C43  1  0.72392489  0.48423819  0.63055035  1  0.514383  0.000296  3.824013  0.0  0.465592  9.6e-05  4.11189  0.0  0.493557  0.000116  4.112337  0.0  0.248079  0.446662  7.2e-05  4.111223  0.0
C  C44  1  0.30667355  0.59079875  0.45464596  1  0.094271  8.3e-05  3.788183  0.0  0.099852  2.6e-05  4.042972  0.0  0.09937  2e-05  4.062848  0.0  0.111817  0.100001  1.6e-05  4.02959  0.0
C  C45  1  0.69344380  0.40950774  0.54502864  1  0.093701  -9.1e-05  3.787932  0.0  0.0991  -2.4e-05  4.042697  0.0  0.098641  -2.2e-05  4.062533  0.0  0.111242  0.099179  -1.6e-05  4.029437  0.0
C  C46  1  0.19891172  0.57179428  0.54934425  1  -0.091109  -7.5e-05  3.653758  0.0  -0.119558  -1.7e-05  3.90647  0.0  -0.121331  -2e-05  3.923562  0.0  -0.068693  -0.118378  -2e-06  3.895142  0.0
C  C47  1  0.80111317  0.42839960  0.45028625  1  -0.090098  8.4e-05  3.653023  0.0  -0.118484  1.5e-05  3.905532  0.0  -0.120259  2.3e-05  3.922643  0.0  -0.068291  -0.117282  1e-06  3.894222  0.0
C  C48  1  0.22371322  0.64181491  0.62938715  1  -0.005639  0.000157  3.661293  0.0  -0.017006  8.9e-05  3.90752  0.0  -0.016334  3.7e-05  3.923302  0.0  -0.062394  -0.017478  0.000101  3.897145  0.0
C  C49  1  0.77622932  0.35815493  0.37034749  1  -0.006136  -0.000164  3.662712  0.0  -0.017367  -8.6e-05  3.909093  0.0  -0.01669  -4.1e-05  3.924847  0.0  -0.062488  -0.017838  -0.000102  3.898708  0.0
C  C50  1  0.35540552  0.72791201  0.61127725  1  -0.102228  -0.000102  3.685978  0.0  -0.130897  -3.7e-05  3.941879  0.0  -0.133327  -3.9e-05  3.961106  0.0  -0.071463  -0.12921  -2.6e-05  3.928976  0.0
C  C51  1  0.64454554  0.27202021  0.38859487  1  -0.101773  0.000108  3.686865  0.0  -0.130688  3.4e-05  3.942459  0.0  -0.133141  4.3e-05  3.961766  0.0  -0.071543  -0.128982  2.6e-05  3.929529  0.0
C  C52  1  0.45834988  0.73801044  0.51481509  1  0.104324  4e-05  3.772491  0.0  0.107727  1.2e-05  4.028981  0.0  0.107621  9e-06  4.048181  0.0  0.111301  0.10755  8e-06  4.016104  0.0
C  C53  1  0.54166148  0.26207155  0.48507773  1  0.104237  -4.5e-05  3.773618  0.0  0.107653  -1e-05  4.030234  0.0  0.107558  -1.2e-05  4.049426  0.0  0.111623  0.107467  -8e-06  4.01734  0.0
C  C54  1  0.60411476  0.82334637  0.49895582  1  0.508789  1.1e-05  3.858346  0.0  0.461616  7e-06  4.15135  0.0  0.489861  4e-06  4.15092  0.0  0.238587  0.442616  1.9e-05  4.150945  0.0
C  C55  1  0.39584744  0.17675855  0.50108060  1  0.509243  -1e-05  3.857481  0.0  0.461831  -7e-06  4.150778  0.0  0.490094  -3e-06  4.150391  0.0  0.239066  0.442839  -2e-05  4.150337  0.0
C  C56  1  0.84542027  0.88815184  0.37263351  1  0.19396  1.7e-05  3.80699  0.0  0.196447  -1.5e-05  4.048447  0.0  0.199112  -2.1e-05  4.071081  0.0  0.095754  0.194251  4.1e-05  4.033384  0.0
C  C57  1  0.15464777  0.11208738  0.62756130  1  0.194866  -1.3e-05  3.806476  0.0  0.196795  1.3e-05  4.04849  0.0  0.199528  2e-05  4.071079  0.0  0.095986  0.194587  -4.2e-05  4.033426  0.0
C  C58  1  0.89036663  0.98877786  0.27902814  1  0.02628  0.000145  3.703794  0.0  -0.002929  0.000195  3.957853  0.0  0.001123  0.000155  3.975512  0.0  0.038158  -0.005672  0.000222  3.946194  0.0
C  C59  1  0.10976708  0.01139850  0.72113596  1  0.026603  -0.000151  3.703587  0.0  -0.002532  -0.000194  3.957762  0.0  0.001514  -0.000156  3.975383  0.0  0.038565  -0.005285  -0.000223  3.946121  0.0
C  C60  1  0.12969613  0.01236563  0.30646113  1  0.118097  0.000117  3.70806  0.0  0.091135  0.000163  3.965262  0.0  0.097371  0.000133  3.982525  0.0  0.040431  0.087268  0.000175  3.953063  0.0
C  C61  1  0.87023420  0.98816458  0.69392561  1  0.117985  -0.000119  3.70837  0.0  0.091224  -0.000162  3.965772  0.0  0.09747  -0.000133  3.983017  0.0  0.040614  0.087349  -0.000174  3.953588  0.0
C  C62  1  0.09402967  0.91324761  0.40078907  1  -0.102783  6e-06  3.756867  0.0  -0.11138  -2.2e-05  4.002488  0.0  -0.11737  -2.8e-05  4.024139  0.0  -0.086148  -0.107529  2.9e-05  3.987756  0.0
C  C63  1  0.90580656  0.08737190  0.59962370  1  -0.102373  -0.0  3.756025  0.0  -0.111052  2.2e-05  4.001581  0.0  -0.117042  2.8e-05  4.023243  0.0  -0.085674  -0.107209  -2.9e-05  3.986839  0.0
C  C64  1  0.94982582  0.84886849  0.43498805  1  -0.094641  6.9e-05  3.684902  0.0  -0.119459  0.000137  3.929862  0.0  -0.117988  0.000102  3.947055  0.0  -0.069177  -0.120079  0.000137  3.918146  0.0
C  C65  1  0.05008559  0.15154585  0.56533148  1  -0.094893  -7.7e-05  3.684751  0.0  -0.119297  -0.000135  3.929664  0.0  -0.117836  -0.000101  3.946857  0.0  -0.068997  -0.119902  -0.000137  3.917913  0.0
N  N66  1  0.29423495  0.28330701  0.10883685  1  -0.279527  -0.064734  3.373485  -0.082  -0.23533  -0.047456  3.675522  -0.064  -0.265874  -0.039681  3.700723  -0.056  -0.343525  -0.217832  -0.044889  3.661827  -0.058
N  N67  1  0.70564811  0.71671334  0.89106007  1  -0.27996  0.06466  3.374304  0.082  -0.23608  0.047389  3.676567  0.064  -0.266526  0.039619  3.701738  0.056  -0.343846  -0.218632  0.044825  3.662888  0.058
N  N68  1  0.02986161  0.04948049  0.24627749  1  -0.318545  0.002336  3.250102  0.002  -0.277221  0.001309  3.536527  0.001  -0.296088  0.001347  3.556264  0.001  -0.326445  -0.264136  0.001912  3.523368  0.002
N  N69  1  0.97021968  0.95078753  0.75398538  1  -0.318302  -0.002352  3.250727  -0.002  -0.276976  -0.001326  3.537062  -0.001  -0.295779  -0.001359  3.556788  -0.001  -0.326326  -0.26391  -0.001927  3.523898  -0.002
N  N70  1  0.39689495  0.51535083  0.28561158  1  -0.423025  -0.00052  3.365079  0.0  -0.368947  -0.000391  3.601073  0.0  -0.39088  -0.000318  3.611434  0.0  -0.38849  -0.353742  -0.000401  3.594035  0.0
N  N71  1  0.60335193  0.48476401  0.71408096  1  -0.424403  0.000517  3.365042  0.0  -0.370272  0.000389  3.600708  0.0  -0.392219  0.000318  3.611081  0.0  -0.389028  -0.355082  0.000399  3.593699  0.0
N  N72  1  0.69679775  0.82841708  0.40248761  1  -0.444291  2.5e-05  3.382551  0.0  -0.392895  7e-06  3.622951  0.0  -0.414568  7e-06  3.632168  0.0  -0.39808  -0.377872  1.5e-05  3.616392  0.0
N  N73  1  0.30329659  0.17173404  0.59758631  1  -0.444052  -2.7e-05  3.382867  0.0  -0.3926  -9e-06  3.623099  0.0  -0.414383  -6e-06  3.632408  0.0  -0.398429  -0.377559  -1.5e-05  3.616513  0.0
N  N74  1  0.43559742  0.67063829  0.43724738  1  -0.354405  -0.000137  3.116111  0.0  -0.328672  -6.8e-05  3.377158  0.0  -0.33686  -4.9e-05  3.392209  0.0  -0.308927  -0.322745  -7.8e-05  3.367072  0.0
N  N75  1  0.56452795  0.32958532  0.56254085  1  -0.354231  0.000141  3.117567  0.0  -0.328491  6.7e-05  3.378618  0.0  -0.3367  5.2e-05  3.39367  0.0  -0.308644  -0.322537  7.8e-05  3.368544  0.0
O  O76  1  0.18387987  0.02951246  0.01716425  1  -0.52789  -0.044871  2.051206  -0.06  -0.509758  -0.035692  2.307649  -0.052  -0.548882  -0.029647  2.299188  -0.045  -0.307742  -0.479597  -0.034144  2.312683  -0.048
O  O77  1  0.81616288  0.97017050  0.98300753  1  -0.527108  0.044958  2.052174  0.06  -0.508863  0.035747  2.308679  0.052  -0.547934  0.029691  2.300285  0.045  -0.307581  -0.478733  0.034222  2.31368  0.048
O  O78  1  0.98531766  0.39893343  0.12843240  1  -0.543981  -0.087628  2.121277  -0.118  -0.530242  -0.054615  2.400341  -0.08  -0.574761  -0.04082  2.395319  -0.063  -0.316582  -0.498382  -0.057409  2.403375  -0.082
O  O79  1  0.01449956  0.60096920  0.87140923  1  -0.543704  0.087676  2.120071  0.118  -0.529934  0.054653  2.399223  0.08  -0.574416  0.040847  2.394277  0.063  -0.3167  -0.498098  0.057453  2.402229  0.082
O  O80  1  0.86550968  0.61504779  0.07498409  1  -0.566889  -0.019931  1.987234  -0.026  -0.553182  -0.008798  2.222832  -0.012  -0.579706  -0.004842  2.21279  -0.006  -0.324669  -0.53048  -0.014396  2.227867  -0.02
O  O81  1  0.13423504  0.38471971  0.92482771  1  -0.567096  0.019919  1.987366  0.026  -0.553329  0.008805  2.222988  0.012  -0.579881  0.004844  2.212918  0.006  -0.324718  -0.530651  0.01441  2.228097  0.02
O  O82  1  0.10099670  0.84605750  0.94616192  1  -0.51883  0.052527  2.095451  0.07  -0.494588  0.040451  2.350634  0.059  -0.535774  0.032891  2.347685  0.05  -0.291217  -0.464394  0.037674  2.352615  0.053
O  O83  1  0.89904225  0.15351001  0.05407357  1  -0.518784  -0.052577  2.095838  -0.07  -0.49431  -0.040526  2.351121  -0.059  -0.535578  -0.03296  2.348157  -0.051  -0.291567  -0.464075  -0.037728  2.3531  -0.053
O  O84  1  0.15117233  0.45785386  0.37731852  1  -0.512583  -0.000405  1.964772  0.0  -0.462887  -0.000187  2.178563  0.0  -0.483691  -0.000164  2.173765  0.0  -0.268768  -0.448674  -0.000209  2.181729  0.0
O  O85  1  0.84883474  0.54289904  0.62217409  1  -0.513356  0.000404  1.965094  0.0  -0.464249  0.000188  2.179347  0.0  -0.485063  0.000161  2.174549  0.0  -0.269445  -0.450023  0.000209  2.182505  0.0
O  O86  1  0.63480223  0.88034603  0.56964239  1  -0.524796  1.2e-05  1.910541  0.0  -0.486991  1e-06  2.130489  0.0  -0.506623  0.0  2.126148  0.0  -0.289701  -0.473177  1e-05  2.132915  0.0
O  O87  1  0.36501437  0.11971920  0.43044526  1  -0.52501  -1.2e-05  1.909989  0.0  -0.487308  -1e-06  2.130366  0.0  -0.506919  -3e-06  2.125999  0.0  -0.29002  -0.473535  -1e-05  2.132837  0.0
