# generated using pymatgen
data_MnH10C6S2(NO3)2
_symmetry_space_group_name_H-M   'P 1'
_cell_length_a   5.96308736
_cell_length_b   8.79689328
_cell_length_c   11.52674971
_cell_angle_alpha   111.64391620
_cell_angle_beta   89.99926656
_cell_angle_gamma   89.99987905
_symmetry_Int_Tables_number   1
_chemical_formula_structural   MnH10C6S2(NO3)2
_chemical_formula_sum   'Mn2 H20 C12 S4 N4 O12'
_cell_volume   562.02284978
_cell_formula_units_Z   2
loop_
 _symmetry_equiv_pos_site_id
 _symmetry_equiv_pos_as_xyz
  1  'x, y, z'
loop_
 _atom_site_type_symbol
 _atom_site_label
 _atom_site_symmetry_multiplicity
 _atom_site_fract_x
 _atom_site_fract_y
 _atom_site_fract_z
 _atom_site_occupancy
 _atom_site_hle17_ddec_charge
 _atom_site_hle17_ddec_spin_density
 _atom_site_hle17_ddec_sum_bond_order
 _atom_site_hle17_magmom
 _atom_site_hse06_10hf_ddec_charge
 _atom_site_hse06_10hf_ddec_spin_density
 _atom_site_hse06_10hf_ddec_sum_bond_order
 _atom_site_hse06_10hf_magmom
 _atom_site_hse06_ddec_charge
 _atom_site_hse06_ddec_spin_density
 _atom_site_hse06_ddec_sum_bond_order
 _atom_site_hse06_magmom
 _atom_site_pbe_cm5_charge
 _atom_site_pbe_ddec_charge
 _atom_site_pbe_ddec_spin_density
 _atom_site_pbe_ddec_sum_bond_order
 _atom_site_pbe_magmom
Mn  Mn0  1  0.00000091  0.50000336  0.00000075  1  1.286581  4.804455  1.648644  4.703  1.133493  4.734166  2.132131  4.573  1.189421  4.770196  2.06009  4.625  0.594878  1.094348  4.690888  2.18358  4.513
Mn  Mn1  1  0.50000121  0.99999446  0.00000255  1  1.28666  4.804443  1.648622  4.703  1.133559  4.734155  2.132123  4.573  1.189492  4.770183  2.060059  4.625  0.594886  1.094418  4.690872  2.183577  4.513
H  H2  1  0.33986091  0.65432670  0.18607407  1  0.386607  0.000539  0.920412  0.002  0.358421  0.001399  0.983937  0.003  0.367767  0.000972  0.970471  0.002  0.270434  0.351825  0.001878  0.993545  0.003
H  H3  1  0.83986562  0.84567536  0.81392313  1  0.386596  0.000537  0.920475  0.002  0.358406  0.001399  0.98397  0.003  0.367752  0.000972  0.970504  0.002  0.270421  0.35181  0.001878  0.993577  0.003
H  H4  1  0.66013565  0.34567251  0.81392485  1  0.386595  0.000539  0.920417  0.002  0.358408  0.001399  0.983954  0.003  0.367755  0.000972  0.970488  0.002  0.27042  0.351813  0.001878  0.99356  0.003
H  H5  1  0.16013430  0.15432388  0.18607753  1  0.386588  0.000539  0.920478  0.002  0.358398  0.001398  0.983977  0.003  0.367744  0.000972  0.970512  0.002  0.270422  0.351802  0.001878  0.993586  0.003
H  H6  1  0.35896672  0.67353430  0.05334196  1  0.423533  -0.000617  0.879172  0.0  0.391877  6.8e-05  0.945896  0.001  0.402821  -0.000189  0.930091  0.001  0.299808  0.384152  0.000304  0.956989  0.001
H  H7  1  0.85897323  0.82646642  0.94665387  1  0.42361  -0.000619  0.8791  0.0  0.391944  6.7e-05  0.945806  0.001  0.402887  -0.000189  0.930003  0.001  0.299854  0.384218  0.000304  0.956901  0.001
H  H8  1  0.64103319  0.32646615  0.94665816  1  0.42353  -0.000618  0.879183  0.0  0.391871  6.8e-05  0.945908  0.001  0.402814  -0.000189  0.930104  0.001  0.299803  0.384145  0.000304  0.957002  0.001
H  H9  1  0.14103004  0.17353525  0.05334659  1  0.423597  -0.000617  0.879127  0.0  0.39193  6.8e-05  0.94583  0.001  0.402874  -0.000189  0.930026  0.001  0.299843  0.384204  0.000304  0.956925  0.001
H  H10  1  0.70830971  0.57290407  0.43389739  1  0.25334  -7e-06  0.958105  0.0  0.229398  3.7e-05  1.04109  0.0  0.237024  1e-05  1.036545  0.0  0.276751  0.224158  0.000126  1.044295  0.0
H  H11  1  0.20830814  0.92709882  0.56610871  1  0.253382  -8e-06  0.958073  0.0  0.229426  3.6e-05  1.041058  0.0  0.237052  1e-05  1.036513  0.0  0.276779  0.224187  0.000126  1.044259  0.0
H  H12  1  0.29169189  0.42709392  0.56610119  1  0.253411  -7e-06  0.958017  0.0  0.22945  3.6e-05  1.041043  0.0  0.237076  1e-05  1.036498  0.0  0.276775  0.224209  0.000126  1.044248  0.0
H  H13  1  0.79168842  0.07290163  0.43389141  1  0.253395  -8e-06  0.958052  0.0  0.229441  3.6e-05  1.041038  0.0  0.237067  1e-05  1.036492  0.0  0.276797  0.224203  0.000126  1.04424  0.0
H  H14  1  0.47862534  0.36981712  0.29602390  1  0.104847  -2e-05  0.934823  0.0  0.117373  0.00014  0.999072  0.0  0.119439  4.6e-05  0.997842  0.0  0.110982  0.115837  0.000318  1.000313  0.0
H  H15  1  0.97862170  0.13018624  0.70398696  1  0.104865  -2.5e-05  0.934765  0.0  0.117374  0.00014  0.999048  0.0  0.119448  4.5e-05  0.997811  0.0  0.110961  0.115839  0.000318  1.000291  0.0
H  H16  1  0.52137625  0.63018207  0.70397415  1  0.104807  -2.7e-05  0.934859  0.0  0.117357  0.00014  0.999092  0.0  0.119426  4.5e-05  0.997861  0.0  0.110969  0.115818  0.000318  1.000334  0.0
H  H17  1  0.02137822  0.86981546  0.29601524  1  0.104858  -2.6e-05  0.934784  0.0  0.117369  0.00014  0.999051  0.0  0.119443  4.6e-05  0.997814  0.0  0.110967  0.115841  0.000318  1.000297  0.0
H  H18  1  0.67988222  0.21581853  0.28286901  1  0.115349  -0.000216  0.965211  0.0  0.121293  4.4e-05  1.038646  0.0  0.124477  -9.3e-05  1.036561  0.0  0.113201  0.119013  0.000248  1.040184  0.0
H  H19  1  0.17987902  0.28418875  0.71713623  1  0.115425  -0.000224  0.965173  0.0  0.121358  4.4e-05  1.038614  0.0  0.124544  -9.3e-05  1.036527  0.0  0.113221  0.119078  0.000248  1.040153  0.0
H  H20  1  0.32011937  0.78417943  0.71712783  1  0.115362  -0.000219  0.965189  0.0  0.121286  4.4e-05  1.03866  0.0  0.12447  -9.3e-05  1.036574  0.0  0.113198  0.119002  0.000248  1.040197  0.0
H  H21  1  0.82012257  0.71581293  0.28286510  1  0.115411  -0.000217  0.965147  0.0  0.121319  4.4e-05  1.038613  0.0  0.124504  -9.3e-05  1.036526  0.0  0.113205  0.119046  0.000248  1.040155  0.0
C  C22  1  0.96006698  0.42765865  0.44334477  1  0.232782  0.000384  3.735737  0.0  0.209184  0.001129  4.022959  0.001  0.228349  0.0005  4.030004  0.0  0.14531  0.195795  0.004397  4.018742  0.003
C  C23  1  0.46006338  0.07233980  0.55665705  1  0.23278  0.00035  3.735771  0.0  0.209155  0.001133  4.023042  0.001  0.228331  0.000497  4.03007  0.0  0.1453  0.195765  0.004397  4.01882  0.003
C  C24  1  0.03993461  0.57233936  0.55665555  1  0.232663  0.000337  3.735893  0.0  0.209052  0.001134  4.023133  0.001  0.228218  0.000493  4.030183  0.0  0.145255  0.195661  0.004397  4.018917  0.003
C  C25  1  0.53993318  0.92766064  0.44334307  1  0.232685  0.000361  3.735776  0.0  0.20908  0.00113  4.023038  0.001  0.228246  0.000499  4.030077  0.0  0.145263  0.195695  0.004397  4.018814  0.003
C  C26  1  0.65876708  0.34160816  0.28654836  1  -0.138955  0.0011  3.666227  0.001  -0.199472  0.001721  3.921243  0.001  -0.200548  0.001185  3.927487  0.001  -0.063943  -0.198627  0.002213  3.917574  0.002
C  C27  1  0.15876436  0.15839801  0.71345584  1  -0.139063  0.001121  3.66625  0.001  -0.199511  0.001722  3.921156  0.001  -0.200594  0.00119  3.9274  0.001  -0.063965  -0.198682  0.002213  3.917521  0.002
C  C28  1  0.34123283  0.65839104  0.71344969  1  -0.138939  0.00112  3.666225  0.001  -0.199458  0.001721  3.921244  0.001  -0.200534  0.00119  3.927488  0.001  -0.063932  -0.198587  0.002213  3.917527  0.002
C  C29  1  0.84123388  0.84160490  0.28654582  1  -0.139001  0.001113  3.666219  0.001  -0.199437  0.001723  3.921111  0.001  -0.200517  0.001189  3.927349  0.001  -0.063915  -0.198635  0.002213  3.917513  0.002
C  C30  1  0.73471251  0.34838337  0.16134203  1  0.71002  0.005327  3.811975  0.006  0.658086  0.011049  4.113726  0.011  0.692563  0.008159  4.106787  0.009  0.234294  0.634545  0.014068  4.116943  0.013
C  C31  1  0.23471843  0.15161503  0.83865867  1  0.709898  0.005342  3.81199  0.006  0.65798  0.011049  4.113772  0.011  0.692452  0.008161  4.10684  0.009  0.234246  0.634439  0.014069  4.116986  0.013
C  C32  1  0.26528908  0.65162077  0.83866084  1  0.710108  0.005334  3.811823  0.006  0.658161  0.011051  4.113609  0.011  0.692642  0.008159  4.106667  0.009  0.234355  0.634614  0.014071  4.116827  0.013
C  C33  1  0.76528484  0.84838176  0.16134132  1  0.709988  0.005333  3.811806  0.006  0.658111  0.011053  4.113509  0.011  0.692587  0.008162  4.106571  0.009  0.234287  0.634576  0.014073  4.116732  0.013
S  S34  1  0.10430648  0.25136088  0.39270897  1  -0.349457  -0.000177  1.972311  0.0  -0.336169  0.000413  2.281615  0.0  -0.349278  -3.4e-05  2.276035  0.0  -0.135073  -0.3289  0.001053  2.28661  0.0
S  S35  1  0.60430320  0.24863582  0.60729474  1  -0.349439  -0.000161  1.972247  0.0  -0.336135  0.000413  2.281544  0.0  -0.34925  -3.5e-05  2.27596  0.0  -0.135063  -0.328867  0.001054  2.286535  0.0
S  S36  1  0.89569344  0.74863590  0.60729015  1  -0.349443  -0.000151  1.972324  0.0  -0.336155  0.000412  2.281622  0.0  -0.349265  -3.1e-05  2.276045  0.0  -0.135086  -0.328891  0.001054  2.286617  0.0
S  S37  1  0.39569169  0.75136590  0.39270920  1  -0.349436  -0.000168  1.97228  0.0  -0.336134  0.000414  2.281561  0.0  -0.349246  -3.7e-05  2.275982  0.0  -0.135073  -0.328863  0.001054  2.286552  0.0
N  N38  1  0.77194521  0.45559344  0.39358731  1  -0.25965  0.000137  3.474563  0.0  -0.194171  0.000712  3.708511  0.001  -0.211267  0.000358  3.723443  0.0  -0.383662  -0.183971  0.003011  3.699141  0.003
N  N39  1  0.27194381  0.04440728  0.60641812  1  -0.259643  0.00015  3.47462  0.0  -0.194141  0.000709  3.708623  0.001  -0.211244  0.000361  3.723556  0.0  -0.38363  -0.18394  0.003011  3.69925  0.003
N  N40  1  0.22805471  0.54440334  0.60641181  1  -0.259648  0.000154  3.474601  0.0  -0.194151  0.00071  3.708553  0.001  -0.211248  0.000361  3.723488  0.0  -0.383659  -0.183955  0.003012  3.699176  0.003
N  N41  1  0.72805275  0.95559318  0.39358287  1  -0.259663  0.000151  3.474631  0.0  -0.194172  0.000709  3.708606  0.001  -0.211271  0.000361  3.723539  0.0  -0.383681  -0.183965  0.003011  3.699245  0.003
O  O42  1  0.31410532  0.59813040  0.09583993  1  -0.819772  0.029762  1.921756  0.018  -0.762374  0.038433  2.120927  0.023  -0.78496  0.0344  2.086658  0.02  -0.56865  -0.745332  0.041927  2.144633  0.026
O  O43  1  0.81410929  0.90187179  0.90415660  1  -0.819859  0.029768  1.921755  0.018  -0.762436  0.038434  2.120874  0.023  -0.785023  0.034402  2.086609  0.02  -0.568698  -0.745398  0.041928  2.144583  0.026
O  O44  1  0.68589459  0.40187005  0.90416019  1  -0.819767  0.029761  1.921732  0.018  -0.762368  0.03843  2.120905  0.023  -0.784954  0.034398  2.086638  0.02  -0.568646  -0.745328  0.041925  2.144611  0.026
O  O45  1  0.18589062  0.09812744  0.09584318  1  -0.819851  0.029762  1.921773  0.018  -0.762425  0.038432  2.120896  0.023  -0.785013  0.034402  2.086632  0.02  -0.568686  -0.745382  0.041928  2.144603  0.026
O  O46  1  0.87784289  0.45518543  0.16234753  1  -0.641157  0.032627  2.012415  0.021  -0.571464  0.040591  2.264276  0.026  -0.601325  0.036158  2.252203  0.022  -0.30441  -0.549064  0.044462  2.271232  0.029
O  O47  1  0.37785587  0.04481469  0.83765530  1  -0.641077  0.032622  2.012271  0.021  -0.571421  0.040592  2.264178  0.026  -0.601265  0.036154  2.252095  0.022  -0.304402  -0.549026  0.044463  2.271136  0.029
O  O48  1  0.12215702  0.54481624  0.83765293  1  -0.641198  0.032633  2.012259  0.021  -0.571503  0.040595  2.264139  0.026  -0.601363  0.036162  2.252064  0.022  -0.304453  -0.549105  0.044467  2.271098  0.029
O  O49  1  0.62214572  0.95518332  0.16234503  1  -0.641104  0.032633  2.012257  0.021  -0.571474  0.040597  2.264168  0.026  -0.601326  0.036159  2.252085  0.022  -0.3044  -0.549071  0.044469  2.271124  0.029
O  O50  1  0.64305498  0.24647162  0.06435774  1  -0.660791  0.02893  2.084934  0.016  -0.588713  0.037176  2.342329  0.022  -0.619762  0.033428  2.328675  0.019  -0.292453  -0.566586  0.040545  2.351187  0.025
O  O51  1  0.14306488  0.25352977  0.93564699  1  -0.660733  0.028917  2.084945  0.016  -0.588722  0.037176  2.342411  0.022  -0.619771  0.033426  2.328761  0.019  -0.292462  -0.566587  0.040544  2.351261  0.025
O  O52  1  0.35694829  0.75353249  0.93564251  1  -0.660836  0.028925  2.085072  0.016  -0.588759  0.037183  2.342492  0.022  -0.619813  0.03343  2.328839  0.019  -0.292471  -0.566632  0.04055  2.35135  0.025
O  O53  1  0.85694509  0.74647192  0.06435434  1  -0.660792  0.028925  2.084884  0.016  -0.588795  0.037182  2.342342  0.022  -0.619845  0.033432  2.328687  0.019  -0.292475  -0.566663  0.04055  2.351195  0.025
