# generated using pymatgen
data_UH15C23(NO2)3
_symmetry_space_group_name_H-M   'P 1'
_cell_length_a   10.17680252
_cell_length_b   10.17684721
_cell_length_c   11.73254952
_cell_angle_alpha   107.08163715
_cell_angle_beta   107.08210147
_cell_angle_gamma   103.45447572
_symmetry_Int_Tables_number   1
_chemical_formula_structural   UH15C23(NO2)3
_chemical_formula_sum   'U2 H30 C46 N6 O12'
_cell_volume   1040.43036820
_cell_formula_units_Z   2
loop_
 _symmetry_equiv_pos_site_id
 _symmetry_equiv_pos_as_xyz
  1  'x, y, z'
loop_
 _atom_site_type_symbol
 _atom_site_label
 _atom_site_symmetry_multiplicity
 _atom_site_fract_x
 _atom_site_fract_y
 _atom_site_fract_z
 _atom_site_occupancy
 _atom_site_hle17_bader_spin_density
 _atom_site_hle17_ddec_charge
 _atom_site_hle17_ddec_spin_density
 _atom_site_hle17_ddec_sum_bond_order
 _atom_site_hle17_magmom
 _atom_site_hse06_10hf_bader_spin_density
 _atom_site_hse06_10hf_ddec_charge
 _atom_site_hse06_10hf_ddec_spin_density
 _atom_site_hse06_10hf_ddec_sum_bond_order
 _atom_site_hse06_10hf_magmom
 _atom_site_hse06_bader_spin_density
 _atom_site_hse06_ddec_charge
 _atom_site_hse06_ddec_spin_density
 _atom_site_hse06_ddec_sum_bond_order
 _atom_site_hse06_magmom
 _atom_site_pbe_bader_spin_density
 _atom_site_pbe_cm5_charge
 _atom_site_pbe_ddec_charge
 _atom_site_pbe_ddec_spin_density
 _atom_site_pbe_ddec_sum_bond_order
 _atom_site_pbe_magmom
U  U0  1  0.31527513  0.68471439  0.74999779  1  0  2.316409  0  4.244083  0  0  2.343001  0  4.936922  0  0  2.454188  0  4.901404  0  0  2.15521  2.266178  0  4.960888  0
U  U1  1  0.68472048  0.31528364  0.25000354  1  0  2.31625  0  4.243895  0  0  2.342932  0  4.936676  0  0  2.454083  0  4.901185  0  0  2.154989  2.266108  0  4.960621  0
H  H2  1  0.45771007  0.90300256  0.06791888  1  0  0.088537  0  0.96455  0  0  0.098271  0  1.024328  0  0  0.101008  0  1.021244  0  0  0.130135  0.096197  0  1.026727  0
H  H3  1  0.09699347  0.54228894  0.43207913  1  0  0.088509  0  0.964531  0  0  0.098256  0  1.024322  0  0  0.100993  0  1.021239  0  0  0.130128  0.096179  0  1.026721  0
H  H4  1  0.54229042  0.09699775  0.93208260  1  0  0.088577  0  0.964544  0  0  0.098313  0  1.024315  0  0  0.101051  0  1.021232  0  0  0.13016  0.096239  0  1.026713  0
H  H5  1  0.90300738  0.45771247  0.56792187  1  0  0.088504  0  0.964578  0  0  0.098253  0  1.024371  0  0  0.100992  0  1.021287  0  0  0.130133  0.096177  0  1.026766  0
H  H6  1  0.62449833  0.94779890  0.28674466  1  0  0.113466  0  0.953716  0  0  0.125093  0  1.008648  0  0  0.127704  0  1.008649  0  0  0.11717  0.123182  0  1.008849  0
H  H7  1  0.05219935  0.37550364  0.21325332  1  0  0.113509  0  0.953736  0  0  0.125167  0  1.008639  0  0  0.127779  0  1.008639  0  0  0.117194  0.123254  0  1.00884  0
H  H8  1  0.37550252  0.05220252  0.71325634  1  0  0.113479  0  0.953715  0  0  0.125105  0  1.008651  0  0  0.127714  0  1.008656  0  0  0.117176  0.12319  0  1.00885  0
H  H9  1  0.94780218  0.62449669  0.78674757  1  0  0.11354  0  0.953757  0  0  0.125177  0  1.008675  0  0  0.127787  0  1.008678  0  0  0.117199  0.123264  0  1.008874  0
H  H10  1  0.78279268  0.78968817  0.31017392  1  0  0.095126  0  0.953456  0  0  0.106297  0  1.012995  0  0  0.107631  0  1.013896  0  0  0.109068  0.105247  0  1.012356  0
H  H11  1  0.21031204  0.21721201  0.18982785  1  0  0.095127  0  0.953426  0  0  0.106308  0  1.012935  0  0  0.107642  0  1.013835  0  0  0.109072  0.105258  0  1.012296  0
H  H12  1  0.21720781  0.21031215  0.68982756  1  0  0.095117  0  0.953433  0  0  0.10628  0  1.012977  0  0  0.107616  0  1.013874  0  0  0.109067  0.105227  0  1.012341  0
H  H13  1  0.78969125  0.78279054  0.81017492  1  0  0.095123  0  0.953443  0  0  0.106302  0  1.012962  0  0  0.107631  0  1.013866  0  0  0.109071  0.105255  0  1.012312  0
H  H14  1  0.76262845  0.59855993  0.11318756  1  0  0.122788  0  0.959792  0  0  0.135383  0  1.014488  0  0  0.139097  0  1.011915  0  0  0.118849  0.132736  0  1.016454  0
H  H15  1  0.40144083  0.23737424  0.38681345  1  0  0.122775  0  0.959802  0  0  0.135382  0  1.014487  0  0  0.139095  0  1.011916  0  0  0.118847  0.132736  0  1.016457  0
H  H16  1  0.23737138  0.40144147  0.88681231  1  0  0.122789  0  0.959787  0  0  0.135387  0  1.014481  0  0  0.1391  0  1.011909  0  0  0.118861  0.132741  0  1.016444  0
H  H17  1  0.59855966  0.76262607  0.61318802  1  0  0.122776  0  0.959801  0  0  0.135385  0  1.014483  0  0  0.139099  0  1.01191  0  0  0.118848  0.132739  0  1.016447  0
H  H18  1  0.74856792  0.45721736  0.95542673  1  0  0.127305  0  0.961641  0  0  0.137652  0  1.01865  0  0  0.141832  0  1.015643  0  0  0.117761  0.134566  0  1.021146  0
H  H19  1  0.54278352  0.25143408  0.54457598  1  0  0.127245  0  0.961706  0  0  0.137592  0  1.01872  0  0  0.141769  0  1.015714  0  0  0.117748  0.134506  0  1.021217  0
H  H20  1  0.25143190  0.54278403  0.04457400  1  0  0.127257  0  0.96166  0  0  0.1376  0  1.01869  0  0  0.141781  0  1.015681  0  0  0.117735  0.134515  0  1.021185  0
H  H21  1  0.45721350  0.74856508  0.45542430  1  0  0.127244  0  0.961677  0  0  0.137581  0  1.018709  0  0  0.141764  0  1.0157  0  0  0.117737  0.134495  0  1.021204  0
H  H22  1  0.72307714  0.27692759  0.75000199  1  0  0.118983  0  0.91815  0  0  0.1312  0  0.968701  0  0  0.134723  0  0.965604  0  0  0.120566  0.128369  0  0.971241  0
H  H23  1  0.27692335  0.72307273  0.24999863  1  0  0.118998  0  0.918136  0  0  0.131221  0  0.968685  0  0  0.134746  0  0.965584  0  0  0.120574  0.128393  0  0.971226  0
H  H24  1  0.14859871  0.03033040  0.86875290  1  0  0.099568  0  0.972024  0  0  0.107374  0  1.037934  0  0  0.110001  0  1.037911  0  0  0.102103  0.105333  0  1.038339  0
H  H25  1  0.96966212  0.85139124  0.63123640  1  0  0.099574  0  0.972053  0  0  0.107379  0  1.037961  0  0  0.110006  0  1.03794  0  0  0.102098  0.105341  0  1.038368  0
H  H26  1  0.85139611  0.96966537  0.13125702  1  0  0.099653  0  0.971807  0  0  0.107468  0  1.037713  0  0  0.110108  0  1.037665  0  0  0.102138  0.105425  0  1.038126  0
H  H27  1  0.03033879  0.14860701  0.36874675  1  0  0.099648  0  0.971833  0  0  0.10746  0  1.037737  0  0  0.110092  0  1.037712  0  0  0.102137  0.105417  0  1.038145  0
H  H28  1  0.01304950  0.81983607  0.10359462  1  0  0.104764  0  0.940704  0  0  0.114255  0  0.999775  0  0  0.117978  0  0.997724  0  0  0.105272  0.11166  0  1.001221  0
H  H29  1  0.18016442  0.98695070  0.39640214  1  0  0.104769  0  0.940755  0  0  0.114255  0  0.999828  0  0  0.117979  0  0.997776  0  0  0.105276  0.11166  0  1.001273  0
H  H30  1  0.98694674  0.18016084  0.89641341  1  0  0.104691  0  0.940685  0  0  0.11419  0  0.999763  0  0  0.117914  0  0.99771  0  0  0.105233  0.111592  0  1.001206  0
H  H31  1  0.81983860  0.01305085  0.60358411  1  0  0.104676  0  0.940765  0  0  0.114181  0  0.999839  0  0  0.117904  0  0.997786  0  0  0.105246  0.111587  0  1.001278  0
C  C32  1  0.52530755  0.83608005  0.08060365  1  0  0.163103  0  3.679427  0  0  0.133712  0  3.942561  0  0  0.144397  0  3.956409  0  0  0.068019  0.126171  0  3.933679  0
C  C33  1  0.16391935  0.47469015  0.41939441  1  0  0.163228  0  3.679417  0  0  0.133803  0  3.942588  0  0  0.144489  0  3.956431  0  0  0.068063  0.126261  0  3.933699  0
C  C34  1  0.47469192  0.16392026  0.91939500  1  0  0.163034  0  3.679405  0  0  0.133639  0  3.942542  0  0  0.144325  0  3.956387  0  0  0.067977  0.126094  0  3.933656  0
C  C35  1  0.83608219  0.52531020  0.58060478  1  0  0.163255  0  3.679378  0  0  0.13381  0  3.942576  0  0  0.144496  0  3.95642  0  0  0.06806  0.126271  0  3.933685  0
C  C36  1  0.62112697  0.86177408  0.20364409  1  0  -0.110684  0  3.696543  0  0  -0.122274  0  3.943759  0  0  -0.129164  0  3.963231  0  0  -0.070941  -0.117813  0  3.930876  0
C  C37  1  0.13822333  0.37887525  0.29635396  1  0  -0.110858  0  3.696609  0  0  -0.122496  0  3.943868  0  0  -0.129384  0  3.963334  0  0  -0.07103  -0.118035  0  3.93098  0
C  C38  1  0.37887492  0.13822736  0.79635718  1  0  -0.110698  0  3.696609  0  0  -0.122298  0  3.943832  0  0  -0.129188  0  3.963306  0  0  -0.070961  -0.117834  0  3.930935  0
C  C39  1  0.86177753  0.62112617  0.70364703  1  0  -0.11087  0  3.696626  0  0  -0.122491  0  3.943901  0  0  -0.129379  0  3.963371  0  0  -0.071009  -0.118026  0  3.931011  0
C  C40  1  0.70731627  0.77477385  0.21573477  1  0  0.009139  0  3.714173  0  0  -0.007883  0  3.960771  0  0  -0.003524  0  3.979476  0  0  -0.05956  -0.010317  0  3.947668  0
C  C41  1  0.22522398  0.29268629  0.28426567  1  0  0.009245  0  3.714169  0  0  -0.007742  0  3.960722  0  0  -0.00338  0  3.979421  0  0  -0.05948  -0.01018  0  3.947617  0
C  C42  1  0.29268386  0.22522538  0.78426463  1  0  0.00919  0  3.714107  0  0  -0.007817  0  3.960703  0  0  -0.003454  0  3.979402  0  0  -0.059547  -0.010256  0  3.947589  0
C  C43  1  0.77477688  0.70731513  0.71573533  1  0  0.009221  0  3.714218  0  0  -0.00776  0  3.960763  0  0  -0.003395  0  3.979462  0  0  -0.059514  -0.010193  0  3.94766  0
C  C44  1  0.69609221  0.66733375  0.10426951  1  0  -0.142811  0  3.684252  0  0  -0.163139  0  3.929427  0  0  -0.170219  0  3.948832  0  0  -0.073689  -0.158403  0  3.915786  0
C  C45  1  0.33266536  0.30390947  0.39573045  1  0  -0.142783  0  3.684281  0  0  -0.163159  0  3.929454  0  0  -0.170231  0  3.948869  0  0  -0.073712  -0.158424  0  3.915816  0
C  C46  1  0.30390864  0.33266766  0.89573149  1  0  -0.14284  0  3.684244  0  0  -0.163181  0  3.92942  0  0  -0.170257  0  3.94883  0  0  -0.073721  -0.158446  0  3.915774  0
C  C47  1  0.66733512  0.69609084  0.60427102  1  0  -0.142798  0  3.684256  0  0  -0.163151  0  3.929435  0  0  -0.17023  0  3.948839  0  0  -0.0737  -0.158416  0  3.915795  0
C  C48  1  0.59671580  0.64671911  0.98328392  1  0  0.176016  0  3.765576  0  0  0.178188  0  4.011135  0  0  0.185759  0  4.031527  0  0  0.126408  0.173219  0  3.996831  0
C  C49  1  0.35327845  0.40328270  0.51671693  1  0  0.175938  0  3.765772  0  0  0.178125  0  4.011287  0  0  0.185666  0  4.031724  0  0  0.126393  0.17315  0  3.996983  0
C  C50  1  0.40328262  0.35328117  0.01671700  1  0  0.176017  0  3.765598  0  0  0.178201  0  4.011144  0  0  0.185755  0  4.031566  0  0  0.126407  0.173223  0  3.996842  0
C  C51  1  0.64672099  0.59671758  0.48328512  1  0  0.176018  0  3.765567  0  0  0.178168  0  4.011178  0  0  0.185734  0  4.031577  0  0  0.126467  0.173198  0  3.996881  0
C  C52  1  0.58155448  0.53487861  0.86238335  1  0  0.184252  0  3.776354  0  0  0.183959  0  4.025939  0  0  0.191609  0  4.045884  0  0  0.12608  0.179166  0  4.011909  0
C  C53  1  0.46511872  0.41844455  0.63761529  1  0  0.184153  0  3.776515  0  0  0.183903  0  4.026006  0  0  0.191565  0  4.045943  0  0  0.126072  0.179114  0  4.011977  0
C  C54  1  0.41844462  0.46512060  0.13761577  1  0  0.184222  0  3.776289  0  0  0.183934  0  4.02586  0  0  0.191589  0  4.0458  0  0  0.126067  0.179146  0  4.011831  0
C  C55  1  0.53487934  0.58155463  0.36238441  1  0  0.18422  0  3.77635  0  0  0.183897  0  4.025991  0  0  0.191549  0  4.045929  0  0  0.126051  0.179105  0  4.01197  0
C  C56  1  0.67011889  0.44826394  0.86521360  1  0  -0.126904  0  3.666913  0  0  -0.147763  0  3.909587  0  0  -0.154009  0  3.928669  0  0  -0.068874  -0.144358  0  3.897217  0
C  C57  1  0.55173792  0.32988425  0.63479032  1  0  -0.126752  0  3.666964  0  0  -0.147615  0  3.909616  0  0  -0.153855  0  3.92869  0  0  -0.06882  -0.144212  0  3.897246  0
C  C58  1  0.32988129  0.55173855  0.13478835  1  0  -0.126763  0  3.666861  0  0  -0.147627  0  3.909548  0  0  -0.153871  0  3.928629  0  0  -0.068821  -0.144222  0  3.897178  0
C  C59  1  0.44826086  0.67011712  0.36521099  1  0  -0.126695  0  3.666827  0  0  -0.147524  0  3.9095  0  0  -0.153769  0  3.928582  0  0  -0.068788  -0.144119  0  3.897131  0
C  C60  1  0.65499577  0.34500697  0.75000129  1  0  0.031357  0  3.687951  0  0  0.017839  0  3.929548  0  0  0.022534  0  3.945129  0  0  -0.052027  0.015251  0  3.919051  0
C  C61  1  0.34500333  0.65499223  0.24999869  1  0  0.031261  0  3.688035  0  0  0.017734  0  3.929638  0  0  0.022427  0  3.945221  0  0  -0.052049  0.015148  0  3.919144  0
C  C62  1  0.18242628  0.82256339  0.96739063  1  0  0.642698  0  3.888549  0  0  0.605724  0  4.189312  0  0  0.641463  0  4.18005  0  0  0.219845  0.581201  0  4.194559  0
C  C63  1  0.17743346  0.81756937  0.53260426  1  0  0.642742  0  3.888267  0  0  0.60577  0  4.189064  0  0  0.641499  0  4.179801  0  0  0.219897  0.581245  0  4.194307  0
C  C64  1  0.81757131  0.17743137  0.03261549  1  0  0.642841  0  3.888183  0  0  0.605835  0  4.188983  0  0  0.641572  0  4.179716  0  0  0.219863  0.581311  0  4.194227  0
C  C65  1  0.82257510  0.18243660  0.46739222  1  0  0.642915  0  3.887965  0  0  0.605885  0  4.188791  0  0  0.641625  0  4.179527  0  0  0.219929  0.581361  0  4.194032  0
C  C66  1  0.09077446  0.91713670  0.98530916  1  0  -0.058528  0  3.745682  0  0  -0.037387  0  3.974766  0  0  -0.043445  0  3.995774  0  0  -0.012181  -0.033162  0  3.960148  0
C  C67  1  0.08285728  0.90921982  0.51468242  1  0  -0.05842  0  3.745489  0  0  -0.037311  0  3.974629  0  0  -0.043331  0  3.995587  0  0  -0.012147  -0.033084  0  3.960008  0
C  C68  1  0.90922557  0.08285921  0.01469703  1  0  -0.058484  0  3.745536  0  0  -0.037327  0  3.974622  0  0  -0.043386  0  3.995634  0  0  -0.012125  -0.033101  0  3.96  0
C  C69  1  0.91714007  0.09077397  0.48530293  1  0  -0.058532  0  3.74556  0  0  -0.037322  0  3.974587  0  0  -0.043404  0  3.99563  0  0  -0.012124  -0.033094  0  3.959964  0
C  C70  1  0.08365744  0.01830728  0.92645878  1  0  -0.07516  0  3.728227  0  0  -0.099204  0  3.981406  0  0  -0.099697  0  4.001725  0  0  -0.086198  -0.098706  0  3.967722  0
C  C71  1  0.98168550  0.91633755  0.57353430  1  0  -0.075217  0  3.72816  0  0  -0.099249  0  3.981354  0  0  -0.099756  0  4.001662  0  0  -0.086216  -0.098756  0  3.967678  0
C  C72  1  0.91634092  0.98169293  0.07355064  1  0  -0.075304  0  3.72791  0  0  -0.099376  0  3.981114  0  0  -0.099872  0  4.001441  0  0  -0.086264  -0.098872  0  3.967428  0
C  C73  1  0.01830778  0.08365945  0.42644912  1  0  -0.075281  0  3.727909  0  0  -0.099361  0  3.981093  0  0  -0.099851  0  4.001426  0  0  -0.086257  -0.098856  0  3.9674  0
C  C74  1  0.00653490  0.89944710  0.05899080  1  0  -0.07891  0  3.731159  0  0  -0.101694  0  3.981932  0  0  -0.103659  0  4.002806  0  0  -0.08232  -0.100093  0  3.967587  0
C  C75  1  0.10055238  0.99346337  0.44100581  1  0  -0.07894  0  3.73131  0  0  -0.101703  0  3.982085  0  0  -0.10368  0  4.002949  0  0  -0.082325  -0.100101  0  3.967735  0
C  C76  1  0.99346518  0.10055207  0.94101709  1  0  -0.078906  0  3.731189  0  0  -0.101706  0  3.981964  0  0  -0.103671  0  4.002837  0  0  -0.08232  -0.100104  0  3.96761  0
C  C77  1  0.89944814  0.00653376  0.55898036  1  0  -0.078895  0  3.731405  0  0  -0.101719  0  3.98218  0  0  -0.103676  0  4.003061  0  0  -0.082351  -0.100117  0  3.96783  0
N  N78  1  0.51021287  0.72936071  0.97251945  1  0  -0.405505  0  3.213833  0  0  -0.376611  0  3.502725  0  0  -0.399968  0  3.526334  0  0  -0.358401  -0.360517  0  3.486568  0
N  N79  1  0.27063579  0.48978575  0.52747899  1  0  -0.405499  0  3.213931  0  0  -0.3766  0  3.502835  0  0  -0.399949  0  3.526456  0  0  -0.358445  -0.360507  0  3.486676  0
N  N80  1  0.48978725  0.27063851  0.02748165  1  0  -0.405453  0  3.213701  0  0  -0.376567  0  3.502595  0  0  -0.399919  0  3.526209  0  0  -0.35838  -0.360477  0  3.486438  0
N  N81  1  0.72936403  0.51021564  0.47252258  1  0  -0.405583  0  3.213895  0  0  -0.376657  0  3.502824  0  0  -0.40001  0  3.526434  0  0  -0.358489  -0.360566  0  3.486669  0
N  N82  1  0.47980712  0.52019162  0.75000062  1  0  -0.441096  0  3.200475  0  0  -0.418313  0  3.489084  0  0  -0.441017  0  3.514089  0  0  -0.351414  -0.403026  0  3.471205  0
N  N83  1  0.52019336  0.47980869  0.25000170  1  0  -0.441179  0  3.20049  0  0  -0.418353  0  3.489086  0  0  -0.441054  0  3.514087  0  0  -0.351425  -0.403064  0  3.471205  0
O  O84  1  0.46475838  0.82463304  0.75188479  1  0  -0.694236  0  1.560841  0  0  -0.697198  0  1.852303  0  0  -0.718854  0  1.839261  0  0  -0.7626  -0.684234  0  1.861746  0
O  O85  1  0.17535802  0.53523174  0.74810541  1  0  -0.694124  0  1.560715  0  0  -0.697136  0  1.852272  0  0  -0.718789  0  1.839227  0  0  -0.7626  -0.684171  0  1.861717  0
O  O86  1  0.53523477  0.17536383  0.24811902  1  0  -0.694167  0  1.56067  0  0  -0.697175  0  1.852141  0  0  -0.718809  0  1.839108  0  0  -0.762526  -0.684203  0  1.861582  0
O  O87  1  0.82464571  0.46477520  0.25189435  1  0  -0.694125  0  1.560496  0  0  -0.697175  0  1.852017  0  0  -0.718813  0  1.838981  0  0  -0.762463  -0.684203  0  1.861453  0
O  O88  1  0.25518279  0.84137202  0.89375330  1  0  -0.683591  0  2.054626  0  0  -0.674075  0  2.349116  0  0  -0.712136  0  2.344887  0  0  -0.411805  -0.646137  0  2.350111  0
O  O89  1  0.15861582  0.74480589  0.60623762  1  0  -0.683606  0  2.054434  0  0  -0.674122  0  2.348973  0  0  -0.712173  0  2.344724  0  0  -0.411842  -0.646183  0  2.349964  0
O  O90  1  0.74480648  0.15861933  0.10624724  1  0  -0.683613  0  2.054597  0  0  -0.67405  0  2.349026  0  0  -0.712118  0  2.344834  0  0  -0.411793  -0.646108  0  2.350011  0
O  O91  1  0.84138757  0.25519998  0.39375836  1  0  -0.683563  0  2.054448  0  0  -0.674  0  2.348867  0  0  -0.712083  0  2.344712  0  0  -0.411807  -0.646059  0  2.349853  0
O  O92  1  0.18594964  0.73338233  0.02000560  1  0  -0.563299  0  1.914374  0  0  -0.535558  0  2.137174  0  0  -0.55904  0  2.12961  0  0  -0.290305  -0.518338  0  2.141537  0
O  O93  1  0.26661840  0.81404976  0.47999599  1  0  -0.563341  0  1.914313  0  0  -0.535593  0  2.137122  0  0  -0.559076  0  2.129561  0  0  -0.290332  -0.518377  0  2.141483  0
O  O94  1  0.81405070  0.26661140  0.98000011  1  0  -0.563395  0  1.914136  0  0  -0.535667  0  2.136971  0  0  -0.559145  0  2.129403  0  0  -0.290331  -0.518448  0  2.141335  0
O  O95  1  0.73340164  0.18596294  0.52001030  1  0  -0.563432  0  1.914032  0  0  -0.535699  0  2.136884  0  0  -0.559173  0  2.129316  0  0  -0.290372  -0.518483  0  2.141248  0
