# generated using pymatgen
data_Cu2H14C15N4
_symmetry_space_group_name_H-M   'P 1'
_cell_length_a   7.22226679
_cell_length_b   14.06115955
_cell_length_c   16.17100000
_cell_angle_alpha   68.65218768
_cell_angle_beta   80.65672332
_cell_angle_gamma   81.62539196
_symmetry_Int_Tables_number   1
_chemical_formula_structural   Cu2H14C15N4
_chemical_formula_sum   'Cu8 H56 C60 N16'
_cell_volume   1502.54558784
_cell_formula_units_Z   4
loop_
 _symmetry_equiv_pos_site_id
 _symmetry_equiv_pos_as_xyz
  1  'x, y, z'
loop_
 _atom_site_type_symbol
 _atom_site_label
 _atom_site_symmetry_multiplicity
 _atom_site_fract_x
 _atom_site_fract_y
 _atom_site_fract_z
 _atom_site_occupancy
 _atom_site_hle17_bader_spin_density
 _atom_site_hle17_ddec_charge
 _atom_site_hle17_ddec_spin_density
 _atom_site_hle17_ddec_sum_bond_order
 _atom_site_hle17_magmom
 _atom_site_hse06_10hf_bader_spin_density
 _atom_site_hse06_10hf_ddec_charge
 _atom_site_hse06_10hf_ddec_spin_density
 _atom_site_hse06_10hf_ddec_sum_bond_order
 _atom_site_hse06_10hf_magmom
 _atom_site_hse06_bader_spin_density
 _atom_site_hse06_ddec_charge
 _atom_site_hse06_ddec_spin_density
 _atom_site_hse06_ddec_sum_bond_order
 _atom_site_hse06_magmom
 _atom_site_pbe_bader_charge
 _atom_site_pbe_bader_spin_density
 _atom_site_pbe_cm5_charge
 _atom_site_pbe_ddec_charge
 _atom_site_pbe_ddec_spin_density
 _atom_site_pbe_ddec_sum_bond_order
 _atom_site_pbe_magmom
Cu  Cu0  1  0.66873214  0.06082361  0.16121987  1  0  0.390081  0  2.226412  0  0  0.291997  0  2.713852  0  0  0.28967  0  2.671817  0  0.651493  0  0.490339  0.29641  0  2.740365  0
Cu  Cu1  1  0.33127907  0.93917302  0.83877587  1  0  0.390145  0  2.226876  0  0  0.292108  0  2.714371  0  0  0.289759  0  2.672343  0  0.651663  0  0.490426  0.296521  0  2.740885  0
Cu  Cu2  1  0.76202399  0.39773760  0.93667118  1  0  0.402987  0  2.204116  0  0  0.311299  0  2.679177  0  0  0.30606  0  2.642168  0  0.657389  0  0.496679  0.317562  0  2.702489  0
Cu  Cu3  1  0.23796665  0.60226440  0.06332992  1  0  0.40306  0  2.204219  0  0  0.31138  0  2.679304  0  0  0.306136  0  2.642292  0  0.657323  0  0.496712  0.317649  0  2.702619  0
Cu  Cu4  1  0.04304460  0.57524915  0.63386877  1  0  0.394766  0  2.218865  0  0  0.297791  0  2.703866  0  0  0.294963  0  2.662218  0  0.653427  0  0.491948  0.302532  0  2.729996  0
Cu  Cu5  1  0.95694925  0.42475055  0.36613221  1  0  0.394805  0  2.219132  0  0  0.297809  0  2.704182  0  0  0.294996  0  2.66256  0  0.653416  0  0.491971  0.302562  0  2.730276  0
Cu  Cu6  1  0.19661267  0.89659044  0.40181812  1  0  0.388144  0  2.220062  0  0  0.289225  0  2.705231  0  0  0.286352  0  2.663831  0  0.652782  0  0.489262  0.294022  0  2.731166  0
Cu  Cu7  1  0.80340123  0.10340696  0.59817966  1  0  0.388092  0  2.220067  0  0  0.289161  0  2.705253  0  0  0.286269  0  2.663818  0  0.652939  0  0.489194  0.293967  0  2.73121  0
H  H8  1  0.34164866  0.96546194  0.03877693  1  0  0.096569  0  0.974306  0  0  0.106145  0  1.042965  0  0  0.109632  0  1.040831  0  0.059914  0  0.103535  0.103553  0  1.044817  0
H  H9  1  0.65835554  0.03453469  0.96122983  1  0  0.096537  0  0.974255  0  0  0.106128  0  1.042944  0  0  0.109615  0  1.040807  0  0.059856  0  0.103492  0.103541  0  1.044784  0
H  H10  1  0.04136600  0.07521977  0.04637823  1  0  0.071994  0  0.956593  0  0  0.081258  0  1.02079  0  0  0.08315  0  1.019893  0  0.091853  0  0.110408  0.079822  0  1.021533  0
H  H11  1  0.95863847  0.92477532  0.95362837  1  0  0.071939  0  0.956579  0  0  0.081196  0  1.020786  0  0  0.083088  0  1.019889  0  0.091733  0  0.110366  0.079756  0  1.021526  0
H  H12  1  0.83043652  0.86225516  0.28337361  1  0  0.068111  0  0.957207  0  0  0.078383  0  1.020683  0  0  0.080055  0  1.019717  0  0.092549  0  0.109977  0.07713  0  1.021436  0
H  H13  1  0.16955163  0.13773687  0.71662649  1  0  0.06809  0  0.957167  0  0  0.078358  0  1.020632  0  0  0.080031  0  1.01966  0  0.092647  0  0.109949  0.077104  0  1.021387  0
H  H14  1  0.12312022  0.74276545  0.28706210  1  0  0.103557  0  0.94547  0  0  0.116553  0  1.003433  0  0  0.119306  0  1.002809  0  0.053225  0  0.10688  0.114552  0  1.004119  0
H  H15  1  0.87687034  0.25722888  0.71293463  1  0  0.103717  0  0.945372  0  0  0.116608  0  1.003449  0  0  0.11936  0  1.002831  0  0.053271  0  0.1069  0.114608  0  1.004134  0
H  H16  1  0.39909891  0.70604334  0.14898994  1  0  0.077728  0  0.960537  0  0  0.089541  0  1.036928  0  0  0.092083  0  1.034692  0  0.073895  0  0.089979  0.087725  0  1.038373  0
H  H17  1  0.60089968  0.29395329  0.85101352  1  0  0.077763  0  0.960492  0  0  0.089543  0  1.036916  0  0  0.092092  0  1.034658  0  0.073982  0  0.089978  0.087731  0  1.03835  0
H  H18  1  0.47476928  0.74034104  0.23199012  1  0  0.079369  0  0.918023  0  0  0.101297  0  0.970485  0  0  0.101934  0  0.971314  0  0.026747  0  0.095813  0.100831  0  0.969932  0
H  H19  1  0.52523532  0.25965329  0.76801363  1  0  0.079406  0  0.918018  0  0  0.101318  0  0.970467  0  0  0.101954  0  0.971297  0  0.026836  0  0.095821  0.100852  0  0.969916  0
H  H20  1  0.56604081  0.84840048  0.02914623  1  0  0.066596  0  0.944547  0  0  0.085774  0  1.006385  0  0  0.086555  0  1.007038  0  0.043398  0  0.088678  0.085149  0  1.005987  0
H  H21  1  0.43395089  0.15159538  0.97085364  1  0  0.066564  0  0.944608  0  0  0.085742  0  1.006446  0  0  0.08652  0  1.007103  0  0.043445  0  0.088654  0.085116  0  1.006049  0
H  H22  1  0.63797114  0.88450901  0.11271943  1  0  0.058662  0  0.955144  0  0  0.07226  0  1.029085  0  0  0.074581  0  1.027018  0  0.024084  0  0.08264  0.070446  0  1.03072  0
H  H23  1  0.36201964  0.11549222  0.88728128  1  0  0.058644  0  0.955143  0  0  0.07226  0  1.029047  0  0  0.074579  0  1.026983  0  0.02383  0  0.082622  0.070445  0  1.030683  0
H  H24  1  0.90391452  0.78305401  0.06787420  1  0  0.081262  0  0.946312  0  0  0.096398  0  1.012578  0  0  0.097638  0  1.012119  0  0.039661  0  0.092763  0.095439  0  1.01297  0
H  H25  1  0.09608067  0.21695413  0.93212215  1  0  0.081254  0  0.946273  0  0  0.096433  0  1.012542  0  0  0.097676  0  1.012075  0  0.039698  0  0.092786  0.095472  0  1.012939  0
H  H26  1  0.80712880  0.70284428  0.17266553  1  0  0.075528  0  0.946366  0  0  0.093065  0  1.008923  0  0  0.093434  0  1.009864  0  0.041602  0  0.090672  0.09272  0  1.008346  0
H  H27  1  0.19288095  0.29716079  0.82733197  1  0  0.075419  0  0.946409  0  0  0.093022  0  1.008956  0  0  0.093389  0  1.009896  0  0.041575  0  0.090649  0.092698  0  1.008358  0
H  H28  1  0.84570799  0.75934980  0.92555787  1  0  0.10568  0  0.944094  0  0  0.120147  0  0.998104  0  0  0.122583  0  0.998475  0  0.095745  0  0.108347  0.118404  0  0.998031  0
H  H29  1  0.15429962  0.24065143  0.07444162  1  0  0.105609  0  0.944116  0  0  0.120086  0  0.998128  0  0  0.122521  0  0.998499  0  0.095728  0  0.108314  0.118343  0  0.998055  0
H  H30  1  0.82580783  0.62270434  0.86315701  1  0  0.075653  0  0.942107  0  0  0.088062  0  1.000026  0  0  0.089599  0  0.999362  0  0.062805  0  0.113056  0.08687  0  1.000604  0
H  H31  1  0.17419504  0.37729996  0.13684185  1  0  0.07564  0  0.942121  0  0  0.088064  0  1.000012  0  0  0.089605  0  0.999343  0  0.062835  0  0.113066  0.086856  0  1.000606  0
H  H32  1  0.65548495  0.41851579  0.11329498  1  0  0.068291  0  0.958427  0  0  0.078783  0  1.022604  0  0  0.080746  0  1.020631  0  0.061114  0  0.11043  0.077305  0  1.024111  0
H  H33  1  0.34452307  0.58148314  0.88670582  1  0  0.068361  0  0.958494  0  0  0.078841  0  1.022657  0  0  0.080802  0  1.020688  0  0.061033  0  0.110483  0.077366  0  1.024159  0
H  H34  1  0.67475584  0.54415359  0.18682703  1  0  0.104152  0  0.944971  0  0  0.117514  0  1.001942  0  0  0.120092  0  1.001692  0  0.051659  0  0.106674  0.115641  0  1.002342  0
H  H35  1  0.32525712  0.45584918  0.81317097  1  0  0.104236  0  0.944968  0  0  0.117634  0  1.0019  0  0  0.120215  0  1.001651  0  0.051612  0  0.106719  0.11576  0  1.002301  0
H  H36  1  0.36849352  0.49768703  0.35659996  1  0  0.105927  0  0.957059  0  0  0.11993  0  1.011665  0  0  0.122049  0  1.011818  0  0.090097  0  0.106086  0.118407  0  1.01174  0
H  H37  1  0.63151102  0.50231574  0.64340236  1  0  0.105915  0  0.957054  0  0  0.119895  0  1.01169  0  0  0.122013  0  1.011844  0  0.090089  0  0.106079  0.118372  0  1.011765  0
H  H38  1  0.22805165  0.60714467  0.44655267  1  0  0.073486  0  0.946354  0  0  0.083837  0  1.009307  0  0  0.085562  0  1.00827  0  0.129784  0  0.110957  0.082496  0  1.010159  0
H  H39  1  0.77195557  0.39285886  0.55344921  1  0  0.073467  0  0.946394  0  0  0.083809  0  1.009352  0  0  0.085546  0  1.008314  0  0.129824  0  0.110936  0.082484  0  1.010189  0
H  H40  1  0.19617108  0.35641976  0.68126218  1  0  0.061652  0  0.965861  0  0  0.069942  0  1.034856  0  0  0.072344  0  1.032587  0  0.073362  0  0.106136  0.068168  0  1.036531  0
H  H41  1  0.80381294  0.64357993  0.31873703  1  0  0.061626  0  0.96592  0  0  0.06997  0  1.034878  0  0  0.072385  0  1.032573  0  0.07337  0  0.106121  0.0682  0  1.036546  0
H  H42  1  0.35003611  0.23664857  0.60202510  1  0  0.106968  0  0.957138  0  0  0.118279  0  1.018002  0  0  0.121239  0  1.017338  0  0.078762  0  0.105247  0.11615  0  1.018603  0
H  H43  1  0.64994677  0.76334959  0.39797406  1  0  0.106982  0  0.957171  0  0  0.118348  0  1.017976  0  0  0.121315  0  1.017303  0  0.078723  0  0.105257  0.116217  0  1.01858  0
H  H44  1  0.54954783  0.22911532  0.45861387  1  0  0.077577  0  0.968387  0  0  0.091316  0  1.040484  0  0  0.092512  0  1.040049  0  0.0819  0  0.089158  0.090436  0  1.040737  0
H  H45  1  0.45044996  0.77088591  0.54138572  1  0  0.077634  0  0.968308  0  0  0.091383  0  1.040425  0  0  0.092575  0  1.039989  0  0.081929  0  0.089183  0.090503  0  1.040676  0
H  H46  1  0.31751840  0.23487762  0.43455450  1  0  0.084193  0  0.930796  0  0  0.104684  0  0.989396  0  0  0.104942  0  0.990108  0  0.046994  0  0.096639  0.104449  0  0.988954  0
H  H47  1  0.68248180  0.76512591  0.56544233  1  0  0.08417  0  0.9308  0  0  0.104685  0  0.989411  0  0  0.104937  0  0.990126  0  0.047227  0  0.096626  0.104449  0  0.988968  0
H  H48  1  0.62703340  0.36576922  0.31188210  1  0  0.060134  0  0.938714  0  0  0.076749  0  1.008264  0  0  0.079255  0  1.005648  0  0.014805  0  0.083464  0.074752  0  1.01036  0
H  H49  1  0.37297128  0.63423278  0.68811984  1  0  0.060173  0  0.938697  0  0  0.076779  0  1.008248  0  0  0.07929  0  1.005625  0  0.014874  0  0.083469  0.074783  0  1.010347  0
H  H50  1  0.38792336  0.38493445  0.29059913  1  0  0.068652  0  0.96774  0  0  0.087585  0  1.029891  0  0  0.087681  0  1.031247  0  0.056098  0  0.086905  0.087469  0  1.02891  0
H  H51  1  0.61207991  0.61506755  0.70939858  1  0  0.068622  0  0.967825  0  0  0.087555  0  1.029977  0  0  0.087649  0  1.031335  0  0.056134  0  0.086906  0.087456  0  1.028978  0
H  H52  1  0.40306341  0.20506905  0.29482635  1  0  0.077942  0  0.936096  0  0  0.09674  0  0.996077  0  0  0.097844  0  0.995442  0  0.040968  0  0.09474  0.095874  0  0.99663  0
H  H53  1  0.59693973  0.79493372  0.70517174  1  0  0.077969  0  0.936068  0  0  0.096761  0  0.996048  0  0  0.097854  0  0.995408  0  0.040829  0  0.094716  0.095897  0  0.996595  0
H  H54  1  0.55859378  0.27963459  0.20728756  1  0  0.079676  0  0.949907  0  0  0.095786  0  1.013424  0  0  0.096647  0  1.013568  0  0.012662  0  0.092728  0.095139  0  1.013345  0
H  H55  1  0.44141738  0.72037048  0.79270861  1  0  0.079632  0  0.949837  0  0  0.095751  0  1.013366  0  0  0.096608  0  1.013488  0  0.01272  0  0.0927  0.095082  0  1.013313  0
H  H56  1  0.90804128  0.25217066  0.21624750  1  0  0.101799  0  0.948027  0  0  0.11607  0  1.004284  0  0  0.11828  0  1.004693  0  0.081192  0  0.106912  0.114465  0  1.004188  0
H  H57  1  0.09196599  0.74782443  0.78375519  1  0  0.101764  0  0.947999  0  0  0.116022  0  1.004282  0  0  0.118228  0  1.004697  0  0.081134  0  0.106883  0.114422  0  1.00418  0
H  H58  1  0.16999998  0.11715350  0.27304686  1  0  0.072105  0  0.952944  0  0  0.082669  0  1.015616  0  0  0.084592  0  1.014004  0  0.079174  0  0.110657  0.081143  0  1.016925  0
H  H59  1  0.83000155  0.88284237  0.72695601  1  0  0.072081  0  0.95296  0  0  0.082665  0  1.015606  0  0  0.084587  0  1.013996  0  0.079152  0  0.110649  0.081115  0  1.01694  0
H  H60  1  0.80544266  0.93602381  0.47324678  1  0  0.069461  0  0.947383  0  0  0.077939  0  1.014474  0  0  0.080514  0  1.011671  0  0.084981  0  0.109421  0.075962  0  1.016657  0
H  H61  1  0.19455347  0.06397895  0.52675429  1  0  0.069423  0  0.947424  0  0  0.0779  0  1.014516  0  0  0.080475  0  1.011714  0  0.084897  0  0.109421  0.075926  0  1.016698  0
H  H62  1  0.52627076  0.05880799  0.42041704  1  0  0.103974  0  0.947371  0  0  0.118389  0  1.002229  0  0  0.120822  0  1.002594  0  0.100457  0  0.10689  0.116614  0  1.002196  0
H  H63  1  0.47373111  0.94119401  0.57958139  1  0  0.104063  0  0.947311  0  0  0.118462  0  1.002173  0  0  0.120895  0  1.002539  0  0.100444  0  0.106928  0.116688  0  1.002139  0
C  C64  1  0.49455583  0.99125846  0.25041741  1  0  -0.125213  0  3.562418  0  0  -0.125712  0  3.941087  0  0  -0.109592  0  3.932753  0  0.70475  0  -0.065527  -0.137207  0  3.946289  0
C  C65  1  0.50543293  0.00873817  0.74958676  1  0  -0.125045  0  3.562333  0  0  -0.125565  0  3.941051  0  0  -0.10943  0  3.932715  0  0.705086  0  -0.065503  -0.137061  0  3.946254  0
C  C66  1  0.72147369  0.26934022  0.01710526  1  0  -0.119595  0  3.547748  0  0  -0.120993  0  3.925494  0  0  -0.104008  0  3.918149  0  0.708917  0  -0.064504  -0.132991  0  3.930009  0
C  C67  1  0.27852376  0.73065488  0.98289691  1  0  -0.119477  0  3.546747  0  0  -0.120887  0  3.924544  0  0  -0.103891  0  3.917188  0  0.708629  0  -0.064487  -0.132897  0  3.929067  0
C  C68  1  0.92820794  0.50570808  0.74518394  1  0  -0.141631  0  3.581127  0  0  -0.143077  0  3.965386  0  0  -0.125756  0  3.954035  0  0.688294  0  -0.069597  -0.155407  0  3.972653  0
C  C69  1  0.07177367  0.49428932  0.25481988  1  0  -0.141642  0  3.580928  0  0  -0.143094  0  3.965219  0  0  -0.125778  0  3.953881  0  0.688113  0  -0.069643  -0.155426  0  3.97248  0
C  C70  1  0.11845619  0.78204927  0.49284888  1  0  -0.126374  0  3.560204  0  0  -0.125025  0  3.936608  0  0  -0.108815  0  3.928484  0  0.6965  0  -0.065972  -0.136597  0  3.941717  0
C  C71  1  0.88154094  0.21795580  0.50714459  1  0  -0.126349  0  3.560393  0  0  -0.124978  0  3.93676  0  0  -0.108757  0  3.928618  0  0.696559  0  -0.065871  -0.136555  0  3.941889  0
C  C72  1  0.23343971  0.93868446  0.09491218  1  0  -0.167688  0  3.713171  0  0  -0.185292  0  3.953982  0  0  -0.194692  0  3.977827  0  -0.000319  0  -0.085114  -0.179297  0  3.938178  0
C  C73  1  0.76656655  0.06130834  0.90509379  1  0  -0.167536  0  3.71329  0  0  -0.185224  0  3.954096  0  0  -0.194626  0  3.97795  0  -0.000179  0  -0.085025  -0.179243  0  3.938324  0
C  C74  1  0.06592450  0.00063429  0.09836404  1  0  0.118385  0  3.721879  0  0  0.093632  0  3.966415  0  0  0.099906  0  3.984926  0  0.478549  0  0.040072  0.089622  0  3.953974  0
C  C75  1  0.93408037  0.99935851  0.90163770  1  0  0.118399  0  3.722027  0  0  0.093698  0  3.966585  0  0  0.099963  0  3.985096  0  0.479458  0  0.040077  0.089692  0  3.954131  0
C  C76  1  0.94809459  0.88167119  0.23048624  1  0  0.118132  0  3.73048  0  0  0.090886  0  3.979943  0  0  0.097175  0  3.99767  0  0.465027  0  0.038316  0.086778  0  3.968261  0
C  C77  1  0.05190005  0.11832390  0.76951490  1  0  0.118131  0  3.730332  0  0  0.090951  0  3.979759  0  0  0.097235  0  3.997475  0  0.464577  0  0.038329  0.086842  0  3.96808  0
C  C78  1  0.11125981  0.81576789  0.23187700  1  0  -0.172091  0  3.719202  0  0  -0.191007  0  3.966893  0  0  -0.198345  0  3.987163  0  -0.001981  0  -0.083961  -0.186541  0  3.953706  0
C  C79  1  0.88873583  0.18422950  0.76812520  1  0  -0.172207  0  3.719356  0  0  -0.191107  0  3.967074  0  0  -0.198447  0  3.987343  0  -0.001719  0  -0.084  -0.18664  0  3.953889  0
C  C80  1  0.25968727  0.84328704  0.16260751  1  0  0.173174  0  3.69139  0  0  0.192778  0  3.916962  0  0  0.197806  0  3.941279  0  -0.01242  0  0.021936  0.189451  0  3.900542  0
C  C81  1  0.74030563  0.15670192  0.83739322  1  0  0.173003  0  3.691667  0  0  0.192704  0  3.917091  0  0  0.197729  0  3.941411  0  -0.012278  0  0.022026  0.189374  0  3.900673  0
C  C82  1  0.43588021  0.77177024  0.16322276  1  0  -0.158714  0  3.701949  0  0  -0.196294  0  3.937717  0  0  -0.199339  0  3.952706  0  -0.023994  0  -0.158049  -0.193997  0  3.927221  0
C  C83  1  0.56412286  0.22822486  0.83678024  1  0  -0.158747  0  3.702016  0  0  -0.196288  0  3.937696  0  0  -0.199326  0  3.952682  0  -0.024547  0  -0.158089  -0.193992  0  3.927209  0
C  C84  1  0.60346575  0.81891250  0.09797854  1  0  -0.091827  0  3.66893  0  0  -0.127736  0  3.916793  0  0  -0.129927  0  3.93258  0  -0.032452  0  -0.162913  -0.12593  0  3.905641  0
C  C85  1  0.39653077  0.18108796  0.90202138  1  0  -0.091816  0  3.668905  0  0  -0.127713  0  3.916776  0  0  -0.129911  0  3.932569  0  -0.032188  0  -0.162867  -0.125906  0  3.905632  0
C  C86  1  0.77954574  0.74196703  0.10276792  1  0  -0.162486  0  3.697621  0  0  -0.205375  0  3.945592  0  0  -0.206871  0  3.958081  0  -0.000216  0  -0.159352  -0.2041  0  3.936773  0
C  C87  1  0.22045600  0.25803574  0.89722965  1  0  -0.162278  0  3.697427  0  0  -0.205342  0  3.945546  0  0  -0.20683  0  3.958023  0  -0.000294  0  -0.159375  -0.204081  0  3.936722  0
C  C88  1  0.76340998  0.66321839  0.06233984  1  0  0.157701  0  3.714595  0  0  0.174746  0  3.949517  0  0  0.180857  0  3.969793  0  -0.044158  0  0.015287  0.170577  0  3.936114  0
C  C89  1  0.23659724  0.33678514  0.93765771  1  0  0.157726  0  3.714726  0  0  0.174856  0  3.949621  0  0  0.180966  0  3.969902  0  -0.044043  0  0.015329  0.170684  0  3.936226  0
C  C90  1  0.80335874  0.68446827  0.96993726  1  0  -0.170036  0  3.71491  0  0  -0.186781  0  3.959504  0  0  -0.194978  0  3.981005  0  -0.047369  0  -0.082679  -0.181697  0  3.945458  0
C  C91  1  0.19664567  0.31553527  0.03006049  1  0  -0.169888  0  3.715035  0  0  -0.186658  0  3.959596  0  0  -0.194854  0  3.9811  0  -0.047285  0  -0.082619  -0.181574  0  3.945544  0
C  C92  1  0.79180348  0.60930141  0.93459144  1  0  0.12438  0  3.707427  0  0  0.096954  0  3.953752  0  0  0.102766  0  3.972696  0  0.527666  0  0.041551  0.093212  0  3.941135  0
C  C93  1  0.20819712  0.39069982  0.06540670  1  0  0.124366  0  3.707415  0  0  0.096925  0  3.953724  0  0  0.102735  0  3.972668  0  0.527646  0  0.041537  0.093197  0  3.941111  0
C  C94  1  0.69722216  0.49511765  0.07416523  1  0  0.116963  0  3.732201  0  0  0.0864  0  3.989196  0  0  0.09381  0  4.004456  0  0.520486  0  0.038477  0.081448  0  3.979277  0
C  C95  1  0.30279247  0.50488358  0.92583623  1  0  0.117097  0  3.732231  0  0  0.086556  0  3.989235  0  0  0.093968  0  4.004494  0  0.519804  0  0.038502  0.081602  0  3.979318  0
C  C96  1  0.70647561  0.56600631  0.11447225  1  0  -0.168124  0  3.721714  0  0  -0.184561  0  3.966167  0  0  -0.192383  0  3.986854  0  -0.000436  0  -0.08372  -0.179743  0  3.952827  0
C  C97  1  0.29353902  0.43399493  0.88552673  1  0  -0.168478  0  3.721922  0  0  -0.184994  0  3.966387  0  0  -0.192825  0  3.987076  0  0.000127  0  -0.083839  -0.180176  0  3.953052  0
C  C98  1  0.33442828  0.46235391  0.42860545  1  0  -0.183524  0  3.722017  0  0  -0.200943  0  3.970197  0  0  -0.207952  0  3.989087  0  0.0284  0  -0.090308  -0.19674  0  3.958022  0
C  C99  1  0.66557091  0.53764732  0.57139465  1  0  -0.183432  0  3.722219  0  0  -0.200834  0  3.970372  0  0  -0.207841  0  3.989269  0  0.028216  0  -0.090301  -0.196631  0  3.958199  0
C  C100  1  0.25491362  0.52414622  0.47821767  1  0  0.135264  0  3.704983  0  0  0.105859  0  3.955073  0  0  0.112878  0  3.972777  0  0.434237  0  0.042201  0.101369  0  3.943306  0
C  C101  1  0.74508250  0.47585655  0.52178340  1  0  0.135266  0  3.705241  0  0  0.10585  0  3.955305  0  0  0.112856  0  3.973029  0  0.434413  0  0.042233  0.101345  0  3.943533  0
C  C102  1  0.23919144  0.38444052  0.60923130  1  0  0.103956  0  3.755838  0  0  0.078117  0  4.003361  0  0  0.083338  0  4.023128  0  0.469865  0  0.03321  0.074632  0  3.990428  0
C  C103  1  0.76079974  0.61555842  0.39076764  1  0  0.103917  0  3.755782  0  0  0.078006  0  4.003316  0  0  0.083234  0  4.023094  0  0.46983  0  0.033175  0.074513  0  3.990393  0
C  C104  1  0.32150278  0.31830175  0.56486605  1  0  -0.173982  0  3.716187  0  0  -0.19086  0  3.95846  0  0  -0.20014  0  3.982274  0  0.035289  0  -0.087301  -0.184868  0  3.942555  0
C  C105  1  0.67848813  0.68169871  0.43513304  1  0  -0.173944  0  3.716199  0  0  -0.19088  0  3.958454  0  0  -0.200163  0  3.982267  0  0.03529  0  -0.08724  -0.18489  0  3.942558  0
C  C106  1  0.36637035  0.35621958  0.47156526  1  0  0.175057  0  3.692838  0  0  0.190849  0  3.927913  0  0  0.197307  0  3.948326  0  -0.132433  0  0.019588  0.186463  0  3.914365  0
C  C107  1  0.63362310  0.64378242  0.52843502  1  0  0.174952  0  3.692937  0  0  0.190809  0  3.927992  0  0  0.197263  0  3.948405  0  -0.132417  0  0.019525  0.186421  0  3.91444  0
C  C108  1  0.43535218  0.28182814  0.42380640  1  0  -0.169245  0  3.709635  0  0  -0.206821  0  3.945452  0  0  -0.208971  0  3.959285  0  -0.040118  0  -0.16163  -0.205154  0  3.9358  0
C  C109  1  0.56464548  0.71817386  0.57619480  1  0  -0.169208  0  3.709445  0  0  -0.206911  0  3.945456  0  0  -0.209051  0  3.959277  0  -0.040469  0  -0.161634  -0.205241  0  3.935809  0
C  C110  1  0.49758201  0.32716418  0.32377572  1  0  -0.092581  0  3.670171  0  0  -0.131045  0  3.922181  0  0  -0.132534  0  3.936845  0  -0.021289  0  -0.164971  -0.129695  0  3.911838  0
C  C111  1  0.50242140  0.67283705  0.67622531  1  0  -0.09265  0  3.67034  0  0  -0.131079  0  3.922357  0  0  -0.132591  0  3.93701  0  -0.02135  0  -0.164991  -0.129742  0  3.912008  0
C  C112  1  0.53193647  0.24429150  0.28037060  1  0  -0.161277  0  3.702332  0  0  -0.205494  0  3.953894  0  0  -0.206683  0  3.965366  0  0.003394  0  -0.157929  -0.204505  0  3.945853  0
C  C113  1  0.46807114  0.75570973  0.71962642  1  0  -0.161223  0  3.702325  0  0  -0.205436  0  3.953835  0  0  -0.206573  0  3.965247  0  0.003958  0  -0.157893  -0.204429  0  3.945795  0
C  C114  1  0.69363258  0.16680761  0.31361286  1  0  0.157875  0  3.719772  0  0  0.175565  0  3.953132  0  0  0.181323  0  3.974295  0  0.049818  0  0.01499  0.171659  0  3.939061  0
C  C115  1  0.30636635  0.83319515  0.68638925  1  0  0.157718  0  3.71976  0  0  0.175429  0  3.953081  0  0  0.18117  0  3.974237  0  0.049241  0  0.014956  0.171525  0  3.939005  0
C  C116  1  0.87879625  0.18291107  0.27344478  1  0  -0.165729  0  3.708822  0  0  -0.183004  0  3.954098  0  0  -0.19045  0  3.974903  0  -0.08412  0  -0.083405  -0.178377  0  3.940448  0
C  C117  1  0.12120335  0.81708786  0.72655602  1  0  -0.16564  0  3.708736  0  0  -0.182913  0  3.954017  0  0  -0.190356  0  3.97483  0  -0.08399  0  -0.083383  -0.178285  0  3.940353  0
C  C118  1  0.02512777  0.10891923  0.30516703  1  0  0.127315  0  3.709607  0  0  0.09941  0  3.95409  0  0  0.105399  0  3.972941  0  0.502357  0  0.04129  0.095631  0  3.941497  0
C  C119  1  0.97487042  0.89107970  0.69483449  1  0  0.127301  0  3.709484  0  0  0.099401  0  3.953958  0  0  0.105387  0  3.97281  0  0.502307  0  0.041285  0.095642  0  3.941371  0
C  C120  1  0.82111153  0.00735301  0.41639882  1  0  0.112676  0  3.740563  0  0  0.082738  0  3.995002  0  0  0.089694  0  4.011365  0  0.484801  0  0.037827  0.078126  0  3.984261  0
C  C121  1  0.17888485  0.99264822  0.58359901  1  0  0.112751  0  3.740448  0  0  0.082832  0  3.994892  0  0  0.089786  0  4.011257  0  0.484826  0  0.037801  0.07822  0  3.984152  0
C  C122  1  0.66731326  0.07663638  0.38736132  1  0  -0.169638  0  3.731714  0  0  -0.184318  0  3.972232  0  0  -0.193075  0  3.994949  0  -0.093285  0  -0.084764  -0.178794  0  3.957335  0
C  C123  1  0.33268681  0.92336792  0.61264084  1  0  -0.169684  0  3.731602  0  0  -0.184358  0  3.972132  0  0  -0.193119  0  3.994859  0  -0.093135  0  -0.084748  -0.178834  0  3.957235  0
N  N124  1  0.06945699  0.70784114  0.55134492  1  0  -0.388139  0  3.367933  0  0  -0.324239  0  3.701469  0  0  -0.338618  0  3.706072  0  -1.408907  0  -0.451303  -0.315026  0  3.697959  0
N  N125  1  0.93053760  0.29216240  0.44865231  1  0  -0.388108  0  3.368249  0  0  -0.324198  0  3.701752  0  0  -0.338599  0  3.706397  0  -1.409029  0  -0.451364  -0.314983  0  3.698248  0
N  N126  1  0.84979857  0.46004991  0.81547372  1  0  -0.39332  0  3.363617  0  0  -0.330523  0  3.697847  0  0  -0.343594  0  3.699877  0  -1.413588  0  -0.453295  -0.322236  0  3.696156  0
N  N127  1  0.15018979  0.53994902  0.18452294  1  0  -0.393395  0  3.363286  0  0  -0.330605  0  3.697544  0  0  -0.343677  0  3.699576  0  -1.413363  0  -0.453284  -0.322317  0  3.695853  0
N  N128  1  0.70007390  0.18669457  0.06995030  1  0  -0.405149  0  3.392095  0  0  -0.34146  0  3.739545  0  0  -0.355394  0  3.740726  0  -1.426799  0  -0.457924  -0.332536  0  3.738046  0
N  N129  1  0.29992984  0.81331280  0.93004197  1  0  -0.405365  0  3.39129  0  0  -0.34168  0  3.738814  0  0  -0.355613  0  3.739988  0  -1.426704  0  -0.458011  -0.332769  0  3.737363  0
N  N130  1  0.39460648  0.94533569  0.31316472  1  0  -0.40087  0  3.385098  0  0  -0.337494  0  3.725252  0  0  -0.350992  0  3.727037  0  -1.420131  0  -0.459032  -0.328931  0  3.723644  0
N  N131  1  0.60539105  0.05466708  0.68682883  1  0  -0.401119  0  3.384739  0  0  -0.33774  0  3.724905  0  0  -0.351221  0  3.726638  0  -1.420658  0  -0.459077  -0.329176  0  3.72331  0
N  N132  1  0.92352116  0.97324906  0.16454268  1  0  -0.291263  0  3.351879  0  0  -0.22301  0  3.636862  0  0  -0.234756  0  3.646537  0  -1.249336  0  -0.36005  -0.215724  0  3.630457  0
N  N133  1  0.07648037  0.02674680  0.83545895  1  0  -0.291209  0  3.351809  0  0  -0.223041  0  3.636845  0  0  -0.23476  0  3.646494  0  -1.249942  0  -0.360058  -0.215748  0  3.630433  0
N  N134  1  0.74165838  0.51497317  0.98561805  1  0  -0.290434  0  3.35269  0  0  -0.224302  0  3.645056  0  0  -0.235325  0  3.654091  0  -1.262564  0  -0.357269  -0.217478  0  3.639139  0
N  N135  1  0.25834616  0.48502960  0.01438242  1  0  -0.290514  0  3.352652  0  0  -0.224385  0  3.645037  0  0  -0.235408  0  3.654074  0  -1.262512  0  -0.35732  -0.21756  0  3.639116  0
N  N136  1  0.20356363  0.48640402  0.56699072  1  0  -0.296093  0  3.358135  0  0  -0.228316  0  3.646728  0  0  -0.240286  0  3.657085  0  -1.257721  0  -0.361072  -0.220819  0  3.639788  0
N  N137  1  0.79643569  0.51359644  0.43301147  1  0  -0.29606  0  3.358092  0  0  -0.228246  0  3.646663  0  0  -0.240233  0  3.657046  0  -1.257671  0  -0.36102  -0.220747  0  3.639726  0
N  N138  1  0.99798456  0.02160192  0.37520631  1  0  -0.288519  0  3.345751  0  0  -0.219618  0  3.631608  0  0  -0.23146  0  3.641888  0  -1.229216  0  -0.357136  -0.212175  0  3.624711  0
N  N139  1  0.00201236  0.97839625  0.62479493  1  0  -0.288433  0  3.345628  0  0  -0.219577  0  3.631524  0  0  -0.231415  0  3.641796  0  -1.229149  0  -0.3571  -0.212133  0  3.624623  0
