# generated using pymatgen
data_NaH2C4N5O
_symmetry_space_group_name_H-M   'P 1'
_cell_length_a   3.68602875
_cell_length_b   9.67247197
_cell_length_c   20.33012100
_cell_angle_alpha   89.99995055
_cell_angle_beta   90.00006254
_cell_angle_gamma   96.72424426
_symmetry_Int_Tables_number   1
_chemical_formula_structural   NaH2C4N5O
_chemical_formula_sum   'Na4 H8 C16 N20 O4'
_cell_volume   719.84403549
_cell_formula_units_Z   4
loop_
 _symmetry_equiv_pos_site_id
 _symmetry_equiv_pos_as_xyz
  1  'x, y, z'
loop_
 _atom_site_type_symbol
 _atom_site_label
 _atom_site_symmetry_multiplicity
 _atom_site_fract_x
 _atom_site_fract_y
 _atom_site_fract_z
 _atom_site_occupancy
 _atom_site_hle17_bader_spin_density
 _atom_site_hle17_ddec_charge
 _atom_site_hle17_ddec_spin_density
 _atom_site_hle17_ddec_sum_bond_order
 _atom_site_hle17_magmom
 _atom_site_hse06_10hf_bader_spin_density
 _atom_site_hse06_10hf_ddec_charge
 _atom_site_hse06_10hf_ddec_spin_density
 _atom_site_hse06_10hf_ddec_sum_bond_order
 _atom_site_hse06_10hf_magmom
 _atom_site_hse06_bader_spin_density
 _atom_site_hse06_ddec_charge
 _atom_site_hse06_ddec_spin_density
 _atom_site_hse06_ddec_sum_bond_order
 _atom_site_hse06_magmom
 _atom_site_pbe_bader_spin_density
 _atom_site_pbe_cm5_charge
 _atom_site_pbe_ddec_charge
 _atom_site_pbe_ddec_spin_density
 _atom_site_pbe_ddec_sum_bond_order
 _atom_site_pbe_magmom
Na  Na0  1  0.16943146  0.69649581  0.87574380  1  0  0.887631  0  0.397898  0  0  0.823629  0  0.57872  0  0  0.835278  0  0.555354  0  0  0.686293  0.815011  0  0.595932  0
Na  Na1  1  0.83056650  0.80350450  0.37574338  1  0  0.887634  0  0.39789  0  0  0.823631  0  0.578733  0  0  0.83527  0  0.555365  0  0  0.686285  0.815  0  0.595943  0
Na  Na2  1  0.83056721  0.30350473  0.12425654  1  0  0.887637  0  0.397881  0  0  0.823636  0  0.578719  0  0  0.835278  0  0.555352  0  0  0.686287  0.815006  0  0.59593  0
Na  Na3  1  0.16943218  0.19649603  0.62425647  1  0  0.887638  0  0.397889  0  0  0.823639  0  0.578721  0  0  0.835283  0  0.555353  0  0  0.686284  0.81501  0  0.595933  0
H  H4  1  0.70811527  0.69167819  0.76131512  1  0  0.396865  0  0.919002  0  0  0.358387  0  0.994749  0  0  0.369298  0  0.978907  0  0  0.282138  0.350668  0  1.005978  0
H  H5  1  0.29188172  0.80832126  0.26131459  1  0  0.39687  0  0.918995  0  0  0.358392  0  0.994744  0  0  0.369303  0  0.978902  0  0  0.282131  0.350671  0  1.005974  0
H  H6  1  0.29188306  0.30832131  0.23868472  1  0  0.396859  0  0.919015  0  0  0.358376  0  0.994769  0  0  0.369287  0  0.978928  0  0  0.282117  0.350657  0  1.005998  0
H  H7  1  0.70811662  0.19167823  0.73868526  1  0  0.396806  0  0.919084  0  0  0.358333  0  0.994825  0  0  0.369243  0  0.978983  0  0  0.28209  0.350611  0  1.006056  0
H  H8  1  0.67378777  0.55210642  0.80188598  1  0  0.384061  0  0.936682  0  0  0.343169  0  1.018408  0  0  0.35388  0  1.002673  0  0  0.283786  0.33534  0  1.029846  0
H  H9  1  0.32620911  0.94789192  0.30188540  1  0  0.384076  0  0.936664  0  0  0.343186  0  1.018388  0  0  0.353893  0  1.002659  0  0  0.283774  0.335359  0  1.029825  0
H  H10  1  0.32621328  0.44789307  0.19811435  1  0  0.384095  0  0.93664  0  0  0.343202  0  1.018368  0  0  0.353911  0  1.002637  0  0  0.283778  0.335375  0  1.029804  0
H  H11  1  0.67378889  0.05210653  0.69811444  1  0  0.384058  0  0.936688  0  0  0.343164  0  1.018417  0  0  0.353874  0  1.002684  0  0  0.283771  0.335337  0  1.029854  0
C  C12  1  0.11778802  0.31294404  0.91394630  1  0  0.046645  0  3.909975  0  0  0.042009  0  4.17248  0  0  0.041091  0  4.191741  0  0  0.107079  0.04258  0  4.15966  0
C  C13  1  0.88220993  0.18705523  0.41394594  1  0  0.046629  0  3.910026  0  0  0.041967  0  4.17256  0  0  0.041049  0  4.191822  0  0  0.107058  0.042535  0  4.15974  0
C  C14  1  0.88221032  0.68705545  0.08605354  1  0  0.046654  0  3.90994  0  0  0.041995  0  4.172453  0  0  0.041079  0  4.191716  0  0  0.107045  0.042563  0  4.159636  0
C  C15  1  0.11779145  0.81294530  0.58605391  1  0  0.04667  0  3.909997  0  0  0.042018  0  4.17249  0  0  0.041105  0  4.191753  0  0  0.107051  0.042591  0  4.159675  0
C  C16  1  0.02706691  0.20319689  0.86906660  1  0  0.048568  0  3.896074  0  0  0.038627  0  4.161002  0  0  0.038747  0  4.179986  0  0  0.110108  0.038609  0  4.148237  0
C  C17  1  0.97293383  0.29680349  0.36906621  1  0  0.048519  0  3.896121  0  0  0.0386  0  4.161029  0  0  0.038721  0  4.180015  0  0  0.110103  0.038584  0  4.148261  0
C  C18  1  0.97293143  0.79680261  0.13093324  1  0  0.048495  0  3.896113  0  0  0.038584  0  4.161001  0  0  0.038707  0  4.179987  0  0  0.110097  0.03857  0  4.148233  0
C  C19  1  0.02707093  0.70319912  0.63093314  1  0  0.048436  0  3.896215  0  0  0.038524  0  4.161106  0  0  0.038647  0  4.180092  0  0  0.110077  0.038511  0  4.148341  0
C  C20  1  0.27883071  0.30957249  0.97652588  1  0  0.315997  0  3.759911  0  0  0.297993  0  4.031066  0  0  0.311233  0  4.046563  0  0  0.220135  0.288803  0  4.020796  0
C  C21  1  0.72117029  0.19042668  0.47652548  1  0  0.316031  0  3.759742  0  0  0.298028  0  4.030913  0  0  0.311269  0  4.046411  0  0  0.220164  0.288839  0  4.020644  0
C  C22  1  0.72116187  0.69042597  0.02347397  1  0  0.315888  0  3.759883  0  0  0.297882  0  4.031045  0  0  0.311121  0  4.046545  0  0  0.220075  0.288696  0  4.020779  0
C  C23  1  0.27883109  0.80957385  0.52347436  1  0  0.315909  0  3.759925  0  0  0.297907  0  4.031077  0  0  0.311144  0  4.046578  0  0  0.220068  0.288717  0  4.020813  0
C  C24  1  0.08566592  0.06224422  0.87375131  1  0  0.308726  0  3.758912  0  0  0.291643  0  4.030361  0  0  0.303706  0  4.046173  0  0  0.215299  0.283092  0  4.020129  0
C  C25  1  0.91433723  0.43775511  0.37375085  1  0  0.308775  0  3.758987  0  0  0.291691  0  4.030424  0  0  0.303752  0  4.046236  0  0  0.215303  0.283136  0  4.020191  0
C  C26  1  0.91433479  0.93775423  0.12624902  1  0  0.308746  0  3.758833  0  0  0.291653  0  4.030274  0  0  0.303715  0  4.046088  0  0  0.215277  0.283098  0  4.020039  0
C  C27  1  0.08566754  0.56224750  0.62624850  1  0  0.308763  0  3.758777  0  0  0.291667  0  4.030229  0  0  0.303729  0  4.046044  0  0  0.215289  0.283112  0  4.019997  0
N  N28  1  0.87312510  0.25860551  0.81592877  1  0  -0.227195  0  3.02882  0  0  -0.191916  0  3.294176  0  0  -0.200969  0  3.308597  0  0  -0.175484  -0.185274  0  3.284  0
N  N29  1  0.12687773  0.24139390  0.31592824  1  0  -0.227133  0  3.028895  0  0  -0.191854  0  3.294238  0  0  -0.200906  0  3.30866  0  0  -0.175484  -0.185211  0  3.284055  0
N  N30  1  0.12687628  0.74139501  0.18407058  1  0  -0.227067  0  3.028841  0  0  -0.191785  0  3.294159  0  0  -0.200842  0  3.308582  0  0  -0.175448  -0.185144  0  3.28398  0
N  N31  1  0.87312604  0.75860558  0.68407063  1  0  -0.227118  0  3.02885  0  0  -0.191834  0  3.294184  0  0  -0.200892  0  3.308605  0  0  -0.175447  -0.185194  0  3.284009  0
N  N32  1  0.87115269  0.39372437  0.82784899  1  0  -0.056357  0  3.048323  0  0  -0.03094  0  3.332047  0  0  -0.033716  0  3.34623  0  0  -0.079946  -0.02822  0  3.321939  0
N  N33  1  0.12884783  0.10627607  0.32784900  1  0  -0.056487  0  3.048353  0  0  -0.031084  0  3.33209  0  0  -0.033859  0  3.346274  0  0  -0.079978  -0.028364  0  3.321982  0
N  N34  1  0.12884836  0.60627512  0.17215086  1  0  -0.05658  0  3.048415  0  0  -0.031186  0  3.332161  0  0  -0.03396  0  3.346344  0  0  -0.080006  -0.028465  0  3.322052  0
N  N35  1  0.87115356  0.89372446  0.67215085  1  0  -0.056344  0  3.048328  0  0  -0.030934  0  3.332053  0  0  -0.033708  0  3.346236  0  0  -0.079946  -0.028213  0  3.321947  0
N  N36  1  0.01701903  0.43049916  0.88617565  1  0  -0.281323  0  2.987383  0  0  -0.261403  0  3.271637  0  0  -0.269061  0  3.286966  0  0  -0.237883  -0.255781  0  3.260957  0
N  N37  1  0.98297844  0.06949911  0.38617585  1  0  -0.281183  0  2.987303  0  0  -0.261246  0  3.271545  0  0  -0.268904  0  3.286874  0  0  -0.23782  -0.255623  0  3.260863  0
N  N38  1  0.98297660  0.56950034  0.11382419  1  0  -0.28114  0  2.987253  0  0  -0.261205  0  3.271497  0  0  -0.268864  0  3.286827  0  0  -0.237815  -0.255583  0  3.260816  0
N  N39  1  0.01702261  0.93050037  0.61382498  1  0  -0.281331  0  2.987398  0  0  -0.261415  0  3.271672  0  0  -0.269076  0  3.287  0  0  -0.237889  -0.255793  0  3.260994  0
N  N40  1  0.14077915  0.94631487  0.87836547  1  0  -0.431258  0  2.586685  0  0  -0.399795  0  2.809579  0  0  -0.410748  0  2.819038  0  0  -0.345432  -0.392603  0  2.804141  0
N  N41  1  0.85922120  0.55368439  0.37836516  1  0  -0.431325  0  2.586778  0  0  -0.399866  0  2.809671  0  0  -0.410815  0  2.819127  0  0  -0.345453  -0.39267  0  2.804231  0
N  N42  1  0.85921952  0.05368567  0.12163486  1  0  -0.43128  0  2.586597  0  0  -0.399817  0  2.809498  0  0  -0.410767  0  2.818954  0  0  -0.34542  -0.392622  0  2.804056  0
N  N43  1  0.14077985  0.44631510  0.62163469  1  0  -0.431264  0  2.586522  0  0  -0.399796  0  2.809428  0  0  -0.410749  0  2.818886  0  0  -0.345413  -0.392601  0  2.803988  0
N  N44  1  0.41086242  0.30417983  0.02853547  1  0  -0.46578  0  2.624538  0  0  -0.438027  0  2.866279  0  0  -0.449199  0  2.874577  0  0  -0.353382  -0.430395  0  2.860915  0
N  N45  1  0.58913881  0.19582003  0.52853549  1  0  -0.465813  0  2.624305  0  0  -0.438056  0  2.866047  0  0  -0.449229  0  2.874344  0  0  -0.353413  -0.430427  0  2.860683  0
N  N46  1  0.58913287  0.69581863  0.97146437  1  0  -0.465704  0  2.624521  0  0  -0.437936  0  2.866227  0  0  -0.44911  0  2.874528  0  0  -0.35334  -0.430311  0  2.860868  0
N  N47  1  0.41086191  0.80417841  0.47146436  1  0  -0.465702  0  2.624532  0  0  -0.437944  0  2.866254  0  0  -0.449114  0  2.874551  0  0  -0.353308  -0.430311  0  2.860891  0
O  O48  1  0.63922452  0.65198281  0.80545111  1  0  -0.926579  0  1.836126  0  0  -0.873391  0  2.029136  0  0  -0.889551  0  1.993805  0  0  -0.71269  -0.861837  0  2.054881  0
O  O49  1  0.36077576  0.84801761  0.30545107  1  0  -0.926595  0  1.836106  0  0  -0.873387  0  2.029106  0  0  -0.889542  0  1.993776  0  0  -0.712665  -0.86183  0  2.054845  0
O  O50  1  0.36077653  0.34801668  0.19454922  1  0  -0.926589  0  1.836043  0  0  -0.873381  0  2.029081  0  0  -0.889539  0  1.993753  0  0  -0.712661  -0.861828  0  2.054819  0
O  O51  1  0.63921987  0.15198189  0.69454927  1  0  -0.926534  0  1.836196  0  0  -0.873338  0  2.029196  0  0  -0.889494  0  1.993863  0  0  -0.712639  -0.861782  0  2.054937  0
