# generated using pymatgen
data_ZnH7C11N4F
_symmetry_space_group_name_H-M   'P 1'
_cell_length_a   13.01136368
_cell_length_b   13.00575130
_cell_length_c   14.76928006
_cell_angle_alpha   96.43618288
_cell_angle_beta   122.51842364
_cell_angle_gamma   105.10257944
_symmetry_Int_Tables_number   1
_chemical_formula_structural   ZnH7C11N4F
_chemical_formula_sum   'Zn4 H28 C44 N16 F4'
_cell_volume   1934.59937596
_cell_formula_units_Z   4
loop_
 _symmetry_equiv_pos_site_id
 _symmetry_equiv_pos_as_xyz
  1  'x, y, z'
loop_
 _atom_site_type_symbol
 _atom_site_label
 _atom_site_symmetry_multiplicity
 _atom_site_fract_x
 _atom_site_fract_y
 _atom_site_fract_z
 _atom_site_occupancy
 _atom_site_pbe_bader_charge
 _atom_site_pbe_bader_spin_density
 _atom_site_pbe_cm5_charge
 _atom_site_pbe_ddec_charge
 _atom_site_pbe_ddec_spin_density
 _atom_site_pbe_ddec_sum_bond_order
 _atom_site_pbe_magmom
Zn  Zn0  1  0.65534501  0.65536359  0.99990387  1  1.18601  0  0.74425  0.601206  0  2.493949  0
Zn  Zn1  1  0.37284710  0.37280994  0.99974891  1  1.192093  0  0.749444  0.623326  0  2.443047  0
Zn  Zn2  1  0.69448122  0.49594295  0.16435820  1  1.195043  0  0.743398  0.635015  0  2.41527  0
Zn  Zn3  1  0.33141907  0.53019142  0.83543941  1  1.19506  0  0.743775  0.634847  0  2.416572  0
H  H4  1  0.94138359  0.72531946  0.04101780  1  0.079067  0  0.116386  0.102908  0  0.998041  0
H  H5  1  0.90273795  0.94016588  0.72250657  1  0.067764  0  0.101458  0.052602  0  0.955625  0
H  H6  1  0.21719208  0.18106779  0.27720283  1  0.073847  0  0.101731  0.052623  0  0.956165  0
H  H7  1  0.22352804  0.35528343  0.43922138  1  0.043834  0  0.097732  0.116181  0  0.982685  0
H  H8  1  0.91652293  0.78466267  0.56156800  1  0.060973  0  0.098292  0.117315  0  0.982257  0
H  H9  1  0.20208570  0.21355840  0.44084448  1  0.043042  0  0.09657  0.112295  0  0.983203  0
H  H10  1  0.77290886  0.76141108  0.55942962  1  0.053054  0  0.096503  0.112568  0  0.98298  0
H  H11  1  0.68394992  0.89997495  0.95866754  1  0.064701  0  0.116557  0.103573  0  0.997218  0
H  H12  1  0.35279667  0.97231712  0.80794437  1  0.046114  0  0.100075  0.107639  0  0.995408  0
H  H13  1  0.16414490  0.54457801  0.19223162  1  0.057231  0  0.099699  0.106694  0  0.995604  0
H  H14  1  0.65641109  0.07925729  0.95110236  1  0.047108  0  0.095624  0.094809  0  1.00235  0
H  H15  1  0.12900722  0.70581314  0.04949288  1  0.051548  0  0.095525  0.094684  0  1.003657  0
H  H16  1  0.10428830  0.14819184  0.82108779  1  0.106105  0  0.115459  0.105584  0  1.016245  0
H  H17  1  0.32692013  0.28279250  0.17847648  1  0.040892  0  0.115697  0.105201  0  1.017604  0
H  H18  1  0.29881864  0.34831190  0.64291904  1  0.088171  0  0.11414  0.100886  0  1.022049  0
H  H19  1  0.70572058  0.65614352  0.35746631  1  0.079606  0  0.113938  0.100537  0  1.020417  0
H  H20  1  0.33005596  0.15776419  0.83499474  1  0.113257  0  0.118467  0.110168  0  1.006971  0
H  H21  1  0.32240875  0.49429465  0.16487855  1  0.10712  0  0.118104  0.110015  0  1.008255  0
H  H22  1  0.72592954  0.50951539  0.86506904  1  0.06715  0  0.11605  0.103411  0  1.011081  0
H  H23  1  0.64471020  0.86123224  0.13479185  1  0.111709  0  0.116624  0.104159  0  1.01269  0
H  H24  1  0.03695249  0.35042923  0.59642394  1  0.057691  0  0.114731  0.10109  0  1.005221  0
H  H25  1  0.75313150  0.44017920  0.40317705  1  0.060051  0  0.114609  0.100881  0  1.004524  0
H  H26  1  0.99135703  0.50732406  0.24950316  1  0.076719  0  0.117108  0.107807  0  0.993704  0
H  H27  1  0.74272046  0.39900199  0.55704031  1  0.034022  0  0.095322  0.095133  0  1.010815  0
H  H28  1  0.25813007  0.74223099  0.75072088  1  0.051497  0  0.117175  0.108032  0  0.993149  0
H  H29  1  0.73249695  0.41892319  0.71645163  1  0.038451  0  0.100931  0.103975  0  0.997202  0
H  H30  1  0.70319298  0.01638981  0.28332730  1  0.075781  0  0.100281  0.103204  0  0.997246  0
H  H31  1  0.84264431  0.18596836  0.44249955  1  0.054438  0  0.095409  0.09561  0  1.009959  0
C  C32  1  0.93619647  0.67283874  0.09187947  1  0.390518  0  0.004301  -0.061587  0  3.987031  0
C  C33  1  0.25151302  0.61402607  0.06919472  1  0.062723  0  -0.047445  -0.104952  0  4.150041  0
C  C34  1  0.54521355  0.18233822  0.93120723  1  0.00252  0  -0.048703  -0.106149  0  4.153792  0
C  C35  1  0.51522588  0.40518809  0.71462234  1  0.01646  0  -0.03686  -0.036227  0  4.078411  0
C  C36  1  0.69097282  0.80088545  0.28550989  1  0.025845  0  -0.036668  -0.035509  0  4.075157  0
C  C37  1  0.40834718  0.32448942  0.50824084  1  -0.013304  0  -0.012378  0.048866  0  3.903398  0
C  C38  1  0.81669872  0.90039340  0.49194332  1  0.036795  0  -0.011635  0.050684  0  3.903858  0
C  C39  1  0.58073944  0.84411775  0.90785154  1  0.411231  0  0.0037  -0.06348  0  3.989157  0
C  C40  1  0.52011149  0.36752349  0.62068953  1  -0.006208  0  -0.009921  0.035588  0  4.04888  0
C  C41  1  0.74731774  0.89970759  0.37939231  1  -0.066567  0  -0.009749  0.035399  0  4.049612  0
C  C42  1  0.63969169  0.38847145  0.63202024  1  -0.01798  0  -0.092237  -0.129265  0  3.9898  0
C  C43  1  0.75699108  0.00796516  0.36784014  1  -0.021817  0  -0.091668  -0.128877  0  3.990051  0
C  C44  1  0.64577254  0.37736413  0.54001768  1  -0.060029  0  -0.098267  -0.142878  0  4.007322  0
C  C45  1  0.83787009  0.10602774  0.45969292  1  -0.031476  0  -0.098273  -0.143155  0  4.005529  0
C  C46  1  0.53277545  0.34355767  0.42692847  1  0.04227  0  -0.009217  0.059763  0  4.069613  0
C  C47  1  0.91692108  0.10611220  0.57288246  1  -0.016499  0  -0.009215  0.060388  0  4.06586  0
C  C48  1  0.41464586  0.31260854  0.41657186  1  0.00139  0  -0.027845  -0.082069  0  3.927282  0
C  C49  1  0.89629504  0.99832531  0.58346772  1  -0.053471  0  -0.028137  -0.082428  0  3.924727  0
C  C50  1  0.26622328  0.26828340  0.33215840  1  0.463839  0  0.028153  0.196102  0  3.849733  0
C  C51  1  0.93572352  0.93419229  0.66804749  1  0.487062  0  0.028231  0.197321  0  3.848308  0
C  C52  1  0.10401193  0.21349816  0.78129627  1  0.401276  0  0.008684  -0.048162  0  3.980846  0
C  C53  1  0.43189306  0.32230750  0.21835437  1  0.460867  0  0.008869  -0.047951  0  3.983002  0
C  C54  1  0.25902612  0.28811585  0.43496526  1  -0.032604  0  -0.156393  -0.275461  0  3.885271  0
C  C55  1  0.01941995  0.20674233  0.66725449  1  -0.006623  0  -0.039161  -0.040026  0  4.101898  0
C  C56  1  0.85336553  0.82431652  0.56545695  1  -0.059366  0  -0.1573  -0.278848  0  3.887302  0
C  C57  1  0.45354845  0.97551322  0.85000765  1  -0.014856  0  -0.103929  -0.134777  0  4.053109  0
C  C58  1  0.12552456  0.60348695  0.15022352  1  -0.027913  0  -0.103564  -0.13307  0  4.051733  0
C  C59  1  0.55562607  0.07616409  0.90818569  1  -0.008043  0  -0.105107  -0.112629  0  4.077735  0
C  C60  1  0.16844764  0.64762021  0.09226418  1  -0.044041  0  -0.105782  -0.114313  0  4.080116  0
C  C61  1  0.53892151  0.35172659  0.33240972  1  0.044499  0  -0.038775  -0.038095  0  4.102533  0
C  C62  1  0.64929388  0.28330299  0.01222991  1  1.017962  0  0.196733  0.319732  0  4.076054  0
C  C63  1  0.27146702  0.63736259  0.98810538  1  1.008255  0  0.196494  0.320101  0  4.07278  0
C  C64  1  0.40229530  0.39707846  0.71029071  1  0.425277  0  0.010213  -0.042616  0  3.94801  0
C  C65  1  0.68707978  0.69222669  0.28993195  1  0.432235  0  0.010613  -0.041624  0  3.945697  0
C  C66  1  0.43419954  0.20964177  0.89691560  1  0.435089  0  0.014569  -0.027445  0  3.938466  0
C  C67  1  0.31259165  0.53683041  0.10306276  1  0.427956  0  0.014754  -0.027727  0  3.936058  0
C  C68  1  0.62028776  0.47838262  0.82389459  1  0.418467  0  0.010657  -0.041586  0  3.945229  0
C  C69  1  0.65480198  0.79671723  0.17609200  1  0.38394  0  0.00981  -0.043682  0  3.94696  0
C  C70  1  0.06988420  0.31625867  0.66656449  1  0.451909  0  0.003232  -0.060389  0  4.003665  0
C  C71  1  0.64901035  0.40290815  0.33305132  1  0.384548  0  0.003281  -0.06007  0  4.003525  0
C  C72  1  0.96152932  0.56242540  0.19870741  1  0.443434  0  0.004712  -0.05782  0  3.992509  0
C  C73  1  0.36385590  0.76303522  0.80130630  1  0.47654  0  0.004273  -0.058975  0  3.992045  0
C  C74  1  0.01912731  0.61718910  0.15075391  1  0.015617  0  -0.040232  0.014082  0  4.141616  0
C  C75  1  0.46647109  0.86845996  0.84926417  1  -0.001161  0  -0.040312  0.013848  0  4.143506  0
N  N76  1  0.83760979  0.65191081  0.10335728  1  -0.792391  0  -0.277726  -0.179484  0  3.557165  0
N  N77  1  0.33512383  0.58000254  0.97241626  1  -0.81522  0  -0.287793  -0.297831  0  3.584685  0
N  N78  1  0.60746971  0.36268975  0.02746801  1  -0.783258  0  -0.288076  -0.297553  0  3.586016  0
N  N79  1  0.43857091  0.46242197  0.80806668  1  -0.766296  0  -0.281302  -0.188598  0  3.631965  0
N  N80  1  0.65444591  0.63069126  0.19206917  1  -0.782664  0  -0.281216  -0.189214  0  3.631315  0
N  N81  1  0.47256699  0.31616914  0.95476809  1  -0.806598  0  -0.285144  -0.17667  0  3.635457  0
N  N82  1  0.36101504  0.51737045  0.04492301  1  -0.777056  0  -0.28533  -0.176028  0  3.632803  0
N  N83  1  0.54829843  0.73401249  0.89617494  1  -0.768464  0  -0.27702  -0.177817  0  3.555642  0
N  N84  1  0.57239059  0.51229028  0.87772549  1  -0.816808  0  -0.281523  -0.176328  0  3.632335  0
N  N85  1  0.63466955  0.69492666  0.12226811  1  -0.804029  0  -0.28212  -0.176091  0  3.630906  0
N  N86  1  0.17545714  0.38189119  0.77117850  1  -0.806281  0  -0.272066  -0.182054  0  3.538135  0
N  N87  1  0.61021680  0.40391415  0.22838964  1  -0.784839  0  -0.271182  -0.181344  0  3.542072  0
N  N88  1  0.85334894  0.58287687  0.17014961  1  -0.807057  0  -0.277593  -0.189007  0  3.558976  0
N  N89  1  0.41268539  0.68320888  0.82956239  1  -0.821312  0  -0.278063  -0.188457  0  3.556838  0
N  N90  1  0.19641986  0.31755295  0.84254414  1  -0.795766  0  -0.270608  -0.172815  0  3.534341  0
N  N91  1  0.47476374  0.35349418  0.15703874  1  -0.808172  0  -0.271625  -0.173883  0  3.537955  0
F  F92  1  0.21504168  0.33282978  0.25954162  1  -0.63645  0  -0.162264  -0.228048  0  1.225362  0
F  F93  1  0.07257984  0.95546336  0.74131507  1  -0.63873  0  -0.161702  -0.227747  0  1.226185  0
F  F94  1  0.77941490  0.30379320  0.07432078  1  -0.650046  0  -0.095535  -0.147549  0  1.346779  0
F  F95  1  0.23039720  0.70600722  0.92644993  1  -0.644277  0  -0.09568  -0.147495  0  1.344099  0
