# generated using pymatgen
data_ZnH13C8S2N2ClO4
_symmetry_space_group_name_H-M   'P 1'
_cell_length_a   5.81948855
_cell_length_b   9.63156735
_cell_length_c   22.19400000
_cell_angle_alpha   90.00000000
_cell_angle_beta   90.00000000
_cell_angle_gamma   90.00000000
_symmetry_Int_Tables_number   1
_chemical_formula_structural   ZnH13C8S2N2ClO4
_chemical_formula_sum   'Zn4 H52 C32 S8 N8 Cl4 O16'
_cell_volume   1243.99136357
_cell_formula_units_Z   4
loop_
 _symmetry_equiv_pos_site_id
 _symmetry_equiv_pos_as_xyz
  1  'x, y, z'
loop_
 _atom_site_type_symbol
 _atom_site_label
 _atom_site_symmetry_multiplicity
 _atom_site_fract_x
 _atom_site_fract_y
 _atom_site_fract_z
 _atom_site_occupancy
 _atom_site_hle17_bader_spin_density
 _atom_site_hle17_ddec_charge
 _atom_site_hle17_ddec_spin_density
 _atom_site_hle17_ddec_sum_bond_order
 _atom_site_hle17_magmom
 _atom_site_hse06_10hf_bader_spin_density
 _atom_site_hse06_10hf_ddec_charge
 _atom_site_hse06_10hf_ddec_spin_density
 _atom_site_hse06_10hf_ddec_sum_bond_order
 _atom_site_hse06_10hf_magmom
 _atom_site_hse06_bader_spin_density
 _atom_site_hse06_ddec_charge
 _atom_site_hse06_ddec_spin_density
 _atom_site_hse06_ddec_sum_bond_order
 _atom_site_hse06_magmom
 _atom_site_pbe_bader_charge
 _atom_site_pbe_bader_spin_density
 _atom_site_pbe_cm5_charge
 _atom_site_pbe_ddec_charge
 _atom_site_pbe_ddec_spin_density
 _atom_site_pbe_ddec_sum_bond_order
 _atom_site_pbe_magmom
Zn  Zn0  1  0.15436408  0.11575998  0.91399522  1  0  1.044139  0  1.799217  0  0  0.874943  0  2.251989  0  0  0.922109  0  2.196838  0  1.254359  0  0.639084  0.842318  0  2.289511  0
Zn  Zn1  1  0.65436678  0.38423341  0.08600252  1  0  1.044106  0  1.799291  0  0  0.874922  0  2.25205  0  0  0.92209  0  2.196903  0  1.254356  0  0.639052  0.842295  0  2.289573  0
Zn  Zn2  1  0.84563617  0.61576582  0.58600387  1  0  1.044145  0  1.799256  0  0  0.87493  0  2.252026  0  0  0.922097  0  2.196877  0  1.254331  0  0.639053  0.842304  0  2.28955  0
Zn  Zn3  1  0.34562831  0.88423822  0.41399658  1  0  1.044131  0  1.799177  0  0  0.874957  0  2.251937  0  0  0.922123  0  2.196792  0  1.254409  0  0.639123  0.842329  0  2.289462  0
H  H4  1  0.39359644  0.40209447  0.71208029  1  0  0.119091  0  0.976821  0  0  0.130044  0  1.043447  0  0  0.132141  0  1.042734  0  0.12388  0  0.09317  0.128377  0  1.044349  0
H  H5  1  0.89360258  0.09789995  0.28792241  1  0  0.1191  0  0.976783  0  0  0.129974  0  1.043507  0  0  0.132072  0  1.042798  0  0.123842  0  0.093131  0.12831  0  1.044412  0
H  H6  1  0.60640381  0.90209617  0.78792106  1  0  0.119135  0  0.976851  0  0  0.130083  0  1.043468  0  0  0.132178  0  1.042756  0  0.123835  0  0.09319  0.128416  0  1.044367  0
H  H7  1  0.10640282  0.59790269  0.21208209  1  0  0.119101  0  0.976818  0  0  0.13002  0  1.043478  0  0  0.132116  0  1.042766  0  0.123918  0  0.093159  0.128353  0  1.044378  0
H  H8  1  0.69797886  0.42605215  0.70289042  1  0  0.107542  0  0.975755  0  0  0.116841  0  1.044693  0  0  0.119043  0  1.044146  0  0.116433  0  0.085239  0.114855  0  1.045961  0
H  H9  1  0.19798303  0.07394331  0.29711273  1  0  0.107445  0  0.975797  0  0  0.116751  0  1.044729  0  0  0.118953  0  1.044183  0  0.116165  0  0.085201  0.114766  0  1.046001  0
H  H10  1  0.30202310  0.92605177  0.79711183  1  0  0.107536  0  0.975757  0  0  0.116842  0  1.044683  0  0  0.119041  0  1.044136  0  0.116257  0  0.085259  0.114856  0  1.045949  0
H  H11  1  0.80202237  0.57394605  0.20288952  1  0  0.107545  0  0.975783  0  0  0.116839  0  1.044716  0  0  0.119038  0  1.044171  0  0.116416  0  0.085241  0.114852  0  1.045983  0
H  H12  1  0.86387317  0.04501448  0.73614535  1  0  0.110521  0  0.963208  0  0  0.119644  0  1.029219  0  0  0.122239  0  1.027121  0  0.176354  0  0.109362  0.117693  0  1.030886  0
H  H13  1  0.36386359  0.45498618  0.26385374  1  0  0.110506  0  0.963284  0  0  0.119668  0  1.029232  0  0  0.122251  0  1.027137  0  0.176326  0  0.109396  0.117714  0  1.030899  0
H  H14  1  0.13612365  0.54501929  0.76385059  1  0  0.110492  0  0.963366  0  0  0.119618  0  1.029357  0  0  0.122186  0  1.027254  0  0.176406  0  0.109355  0.117659  0  1.03102  0
H  H15  1  0.63612979  0.95498579  0.23614716  1  0  0.110496  0  0.963247  0  0  0.119669  0  1.029215  0  0  0.122238  0  1.027109  0  0.176326  0  0.109377  0.117709  0  1.03088  0
H  H16  1  0.98511406  0.20884348  0.71163918  1  0  0.095612  0  0.937537  0  0  0.103898  0  1.006701  0  0  0.105454  0  1.006401  0  0.115133  0  0.103716  0.102461  0  1.007592  0
H  H17  1  0.48511823  0.29115926  0.28836127  1  0  0.09561  0  0.937558  0  0  0.103891  0  1.006729  0  0  0.105437  0  1.006426  0  0.115109  0  0.103719  0.102456  0  1.007618  0
H  H18  1  0.01488791  0.70884829  0.78835947  1  0  0.095605  0  0.93754  0  0  0.103886  0  1.00673  0  0  0.105416  0  1.006419  0  0.115068  0  0.103678  0.102439  0  1.007615  0
H  H19  1  0.51488889  0.79115576  0.21163963  1  0  0.095615  0  0.937506  0  0  0.103896  0  1.006702  0  0  0.105427  0  1.00639  0  0.115154  0  0.103713  0.102451  0  1.007589  0
H  H20  1  0.65567102  0.42134679  0.81190998  1  0  0.087342  0  0.911595  0  0  0.097646  0  0.970895  0  0  0.099319  0  0.970583  0  0.125303  0  0.12042  0.096132  0  0.971785  0
H  H21  1  0.15568550  0.07864660  0.18809318  1  0  0.087304  0  0.911583  0  0  0.097603  0  0.970913  0  0  0.099273  0  0.970604  0  0.125226  0  0.120387  0.096089  0  0.971802  0
H  H22  1  0.34432579  0.92135679  0.68809273  1  0  0.08727  0  0.911567  0  0  0.097566  0  0.97091  0  0  0.099236  0  0.970598  0  0.125195  0  0.120396  0.096057  0  0.9718  0
H  H23  1  0.84432678  0.57865037  0.31191088  1  0  0.087346  0  0.911567  0  0  0.097672  0  0.970854  0  0  0.09935  0  0.970539  0  0.125236  0  0.120423  0.096159  0  0.971742  0
H  H24  1  0.94509508  0.26848382  0.80668829  1  0  0.310574  0  0.905001  0  0  0.288084  0  0.971721  0  0  0.297567  0  0.964193  0  0.550642  0  0.304727  0.281326  0  0.977023  0
H  H25  1  0.44509582  0.23151061  0.19331306  1  0  0.310603  0  0.904989  0  0  0.288102  0  0.971708  0  0  0.297575  0  0.964187  0  0.550626  0  0.304717  0.281344  0  0.977011  0
H  H26  1  0.05490517  0.76849278  0.69331035  1  0  0.310588  0  0.904954  0  0  0.288088  0  0.971698  0  0  0.29755  0  0.964178  0  0.550585  0  0.304695  0.281329  0  0.977001  0
H  H27  1  0.55490272  0.73151334  0.30668920  1  0  0.310543  0  0.905072  0  0  0.288024  0  0.971809  0  0  0.297505  0  0.964286  0  0.550592  0  0.304686  0.281264  0  0.977111  0
H  H28  1  0.74553803  0.14630641  0.82312472  1  0  0.300166  0  0.884071  0  0  0.276979  0  0.955589  0  0  0.285311  0  0.94894  0  0.505925  0  0.298367  0.270982  0  0.960598  0
H  H29  1  0.24554048  0.35368595  0.17687528  1  0  0.300102  0  0.884263  0  0  0.276942  0  0.955742  0  0  0.285269  0  0.949095  0  0.505521  0  0.298325  0.270945  0  0.960755  0
H  H30  1  0.25446222  0.64631848  0.67687348  1  0  0.300118  0  0.88416  0  0  0.276955  0  0.955665  0  0  0.285269  0  0.949022  0  0.504955  0  0.298352  0.270957  0  0.960679  0
H  H31  1  0.75445977  0.85368868  0.32312607  1  0  0.300135  0  0.884142  0  0  0.276948  0  0.955663  0  0  0.285277  0  0.949022  0  0.505793  0  0.298348  0.270949  0  0.960681  0
H  H32  1  0.16094370  0.88182740  0.97542129  1  0  0.235426  0  0.968177  0  0  0.216196  0  1.045882  0  0  0.222373  0  1.042514  0  0.467254  0  0.270028  0.211708  0  1.048556  0
H  H33  1  0.66095499  0.61817249  0.02457781  1  0  0.235397  0  0.968104  0  0  0.216142  0  1.045865  0  0  0.222324  0  1.042495  0  0.467166  0  0.27002  0.211652  0  1.04854  0
H  H34  1  0.83904624  0.38182986  0.52457871  1  0  0.235405  0  0.968109  0  0  0.216144  0  1.045847  0  0  0.222323  0  1.042478  0  0.46739  0  0.270035  0.211655  0  1.048522  0
H  H35  1  0.33904698  0.11817599  0.47542174  1  0  0.235382  0  0.968113  0  0  0.21614  0  1.045861  0  0  0.222321  0  1.042492  0  0.46705  0  0.27001  0.21165  0  1.048536  0
H  H36  1  0.30799958  0.84857944  0.09617735  1  0  0.088505  0  0.95988  0  0  0.098322  0  1.032952  0  0  0.099756  0  1.032796  0  0.093069  0  0.083335  0.097538  0  1.032613  0
H  H37  1  0.80800228  0.65141838  0.90381905  1  0  0.088451  0  0.959942  0  0  0.098235  0  1.033088  0  0  0.099665  0  1.032932  0  0.093113  0  0.083296  0.097451  0  1.032748  0
H  H38  1  0.69200239  0.34858190  0.40382175  1  0  0.088521  0  0.959923  0  0  0.0983  0  1.033023  0  0  0.099734  0  1.032867  0  0.093122  0  0.083312  0.097516  0  1.032685  0
H  H39  1  0.19199797  0.15142603  0.59617735  1  0  0.088508  0  0.959817  0  0  0.098324  0  1.032901  0  0  0.099763  0  1.032745  0  0.093007  0  0.083327  0.097541  0  1.032562  0
H  H40  1  0.48329849  0.99544027  0.11579301  1  0  0.113777  0  0.951529  0  0  0.127374  0  1.014196  0  0  0.129335  0  1.01356  0  0.113974  0  0.099332  0.12594  0  1.014634  0
H  H41  1  0.98329947  0.50455962  0.88420474  1  0  0.113765  0  0.951532  0  0  0.127363  0  1.014225  0  0  0.129314  0  1.0136  0  0.11399  0  0.099316  0.125929  0  1.014663  0
H  H42  1  0.51670176  0.49544169  0.38420564  1  0  0.113766  0  0.951543  0  0  0.12736  0  1.014199  0  0  0.129312  0  1.013573  0  0.114031  0  0.099312  0.125927  0  1.014636  0
H  H43  1  0.01670422  0.00456624  0.61579616  1  0  0.113783  0  0.951581  0  0  0.127385  0  1.014234  0  0  0.129338  0  1.013608  0  0.114056  0  0.099341  0.125951  0  1.014673  0
H  H44  1  0.59678784  0.01491138  0.94311661  1  0  0.095246  0  0.949171  0  0  0.105661  0  1.015521  0  0  0.107082  0  1.014848  0  0.095308  0  0.100154  0.104469  0  1.016319  0
H  H45  1  0.09680232  0.48508304  0.05687844  1  0  0.09529  0  0.949155  0  0  0.1056  0  1.015666  0  0  0.107033  0  1.014964  0  0.095223  0  0.100178  0.104412  0  1.016451  0
H  H46  1  0.40320382  0.51491619  0.55688069  1  0  0.095268  0  0.949204  0  0  0.105625  0  1.015624  0  0  0.107048  0  1.014935  0  0.095213  0  0.100151  0.104435  0  1.01642  0
H  H47  1  0.90320137  0.98508474  0.44312021  1  0  0.095257  0  0.94919  0  0  0.105606  0  1.015616  0  0  0.107036  0  1.014919  0  0.095231  0  0.100158  0.104415  0  1.016409  0
H  H48  1  0.49489916  0.84317741  0.92809093  1  0  0.081039  0  0.959235  0  0  0.091675  0  1.032076  0  0  0.092425  0  1.032168  0  0.083195  0  0.096863  0.091031  0  1.032101  0
H  H49  1  0.99491733  0.65681729  0.07190727  1  0  0.081094  0  0.959145  0  0  0.091722  0  1.031965  0  0  0.092472  0  1.03206  0  0.083302  0  0.09685  0.09107  0  1.031996  0
H  H50  1  0.50508906  0.34318402  0.57190862  1  0  0.081107  0  0.959173  0  0  0.091728  0  1.031995  0  0  0.092476  0  1.032086  0  0.083282  0  0.096863  0.091081  0  1.032022  0
H  H51  1  0.00508292  0.15682079  0.42809183  1  0  0.081071  0  0.959172  0  0  0.091674  0  1.032011  0  0  0.092421  0  1.032107  0  0.083232  0  0.096841  0.091027  0  1.032039  0
H  H52  1  0.08516040  0.03649666  0.05318239  1  0  0.091481  0  0.916458  0  0  0.098364  0  0.983988  0  0  0.100791  0  0.982449  0  0.098648  0  0.117023  0.096339  0  0.98554  0
H  H53  1  0.58517170  0.46349985  0.94681716  1  0  0.091444  0  0.916454  0  0  0.098335  0  0.983997  0  0  0.10076  0  0.982458  0  0.098651  0  0.117026  0.096321  0  0.985541  0
H  H54  1  0.91483469  0.53650043  0.44681806  1  0  0.09148  0  0.916438  0  0  0.098373  0  0.983965  0  0  0.100799  0  0.982427  0  0.098627  0  0.117041  0.096357  0  0.985512  0
H  H55  1  0.41483199  0.96350466  0.55318284  1  0  0.091431  0  0.916503  0  0  0.098328  0  0.984041  0  0  0.100753  0  0.982501  0  0.098697  0  0.117025  0.096297  0  0.985598  0
C  C56  1  0.83495310  0.15659134  0.73115121  1  0  -0.021328  0  3.514121  0  0  -0.07568  0  3.776872  0  0  -0.071603  0  3.784438  0  0.078396  0  -0.059081  -0.078254  0  3.77194  0
C  C57  1  0.33495040  0.34340932  0.26885014  1  0  -0.021399  0  3.514285  0  0  -0.075766  0  3.777043  0  0  -0.071651  0  3.784543  0  0.078479  0  -0.059157  -0.07834  0  3.772111  0
C  C58  1  0.16504887  0.65659615  0.76884699  1  0  -0.02149  0  3.514418  0  0  -0.075802  0  3.777163  0  0  -0.071615  0  3.784536  0  0.078324  0  -0.059136  -0.078326  0  3.772156  0
C  C59  1  0.66504813  0.84340686  0.23115256  1  0  -0.021326  0  3.514221  0  0  -0.075749  0  3.77705  0  0  -0.071541  0  3.784439  0  0.078296  0  -0.059122  -0.078281  0  3.772055  0
C  C60  1  0.60043765  0.32736209  0.78770524  1  0  0.033962  0  3.524425  0  0  0.012464  0  3.767119  0  0  0.012209  0  3.777442  0  0.212527  0  0.010066  0.012696  0  3.76026  0
C  C61  1  0.10044182  0.17263234  0.21229567  1  0  0.034136  0  3.524277  0  0  0.012615  0  3.766927  0  0  0.012357  0  3.777244  0  0.212553  0  0.010098  0.012847  0  3.760073  0
C  C62  1  0.39956260  0.82736897  0.71229476  1  0  0.034381  0  3.524014  0  0  0.012855  0  3.766722  0  0  0.012579  0  3.77703  0  0.212531  0  0.01014  0.013067  0  3.759891  0
C  C63  1  0.89956015  0.67263403  0.28770614  1  0  0.034185  0  3.524314  0  0  0.012631  0  3.766976  0  0  0.012368  0  3.777312  0  0.212528  0  0.010052  0.012862  0  3.760118  0
C  C64  1  0.56339315  0.35818885  0.72111381  1  0  -0.198524  0  3.638934  0  0  -0.240688  0  3.897127  0  0  -0.241547  0  3.907199  0  -0.124313  0  -0.158041  -0.240107  0  3.891038  0
C  C65  1  0.06339389  0.14180870  0.27888889  1  0  -0.198402  0  3.638767  0  0  -0.240485  0  3.896932  0  0  -0.241358  0  3.907031  0  -0.124126  0  -0.157941  -0.23988  0  3.890773  0
C  C66  1  0.43661053  0.85818950  0.77888754  1  0  -0.198632  0  3.638798  0  0  -0.240764  0  3.896962  0  0  -0.241616  0  3.907036  0  -0.124157  0  -0.158087  -0.240194  0  3.890921  0
C  C67  1  0.93660636  0.64180831  0.22111427  1  0  -0.198558  0  3.638863  0  0  -0.240659  0  3.897012  0  0  -0.241518  0  3.907094  0  -0.124311  0  -0.158025  -0.240087  0  3.890949  0
C  C68  1  0.38073964  0.27413607  0.81882446  1  0  0.649873  0  3.850953  0  0  0.593264  0  4.160592  0  0  0.626834  0  4.153521  0  1.614765  0  0.217595  0.570109  0  4.164984  0
C  C69  1  0.88072516  0.22584486  0.18117915  1  0  0.649691  0  3.851145  0  0  0.593146  0  4.160664  0  0  0.626715  0  4.153592  0  1.614182  0  0.21756  0.569991  0  4.16506  0
C  C70  1  0.61926576  0.77414711  0.68117554  1  0  0.649682  0  3.851069  0  0  0.59307  0  4.160694  0  0  0.62664  0  4.153624  0  1.614587  0  0.217552  0.569922  0  4.165085  0
C  C71  1  0.11925618  0.72586421  0.31882536  1  0  0.649609  0  3.850981  0  0  0.593011  0  4.160571  0  0  0.626579  0  4.15351  0  1.614767  0  0.217582  0.569857  0  4.164958  0
C  C72  1  0.49970886  0.92718866  0.96135397  1  0  -0.01818  0  3.601025  0  0  -0.071662  0  3.863626  0  0  -0.066638  0  3.873318  0  0.219168  0  -0.069499  -0.075112  0  3.857342  0
C  C73  1  0.99972016  0.57280708  0.03864243  1  0  -0.01838  0  3.600989  0  0  -0.071736  0  3.863491  0  0  -0.066715  0  3.873205  0  0.218657  0  -0.069536  -0.075175  0  3.857202  0
C  C74  1  0.50028451  0.42719423  0.53864468  1  0  -0.018311  0  3.601177  0  0  -0.071703  0  3.86365  0  0  -0.066666  0  3.873332  0  0.219015  0  -0.069458  -0.075152  0  3.857367  0
C  C75  1  0.00028009  0.07281162  0.46135622  1  0  -0.018309  0  3.601159  0  0  -0.071592  0  3.863561  0  0  -0.066563  0  3.873262  0  0.21864  0  -0.069489  -0.075037  0  3.857272  0
C  C76  1  0.26450950  0.02987987  0.03751915  1  0  0.017089  0  3.599246  0  0  -0.002488  0  3.841231  0  0  -0.003592  0  3.853691  0  0.301381  0  -0.000692  -0.001914  0  3.833108  0
C  C77  1  0.76451392  0.47011975  0.96247905  1  0  0.017146  0  3.599178  0  0  -0.002424  0  3.841211  0  0  -0.003512  0  3.853651  0  0.301331  0  -0.000715  -0.001855  0  3.833078  0
C  C78  1  0.73548903  0.52988261  0.46248085  1  0  0.017113  0  3.599209  0  0  -0.002488  0  3.841211  0  0  -0.003586  0  3.853661  0  0.301346  0  -0.000665  -0.00192  0  3.833084  0
C  C79  1  0.23548461  0.97012040  0.53752050  1  0  0.017189  0  3.599129  0  0  -0.00244  0  3.841217  0  0  -0.003529  0  3.853657  0  0.301343  0  -0.000721  -0.001863  0  3.833093  0
C  C80  1  0.40870258  0.93591725  0.07854690  1  0  -0.174172  0  3.616693  0  0  -0.217309  0  3.880582  0  0  -0.217233  0  3.89024  0  -0.161776  0  -0.153393  -0.217069  0  3.873323  0
C  C81  1  0.90869669  0.56407849  0.92145039  1  0  -0.174041  0  3.616679  0  0  -0.217235  0  3.880715  0  0  -0.21715  0  3.890372  0  -0.161988  0  -0.153319  -0.216997  0  3.87346  0
C  C82  1  0.59130110  0.43591971  0.42145264  1  0  -0.174228  0  3.616834  0  0  -0.217286  0  3.880645  0  0  -0.217212  0  3.890319  0  -0.161939  0  -0.153362  -0.217047  0  3.873388  0
C  C83  1  0.09129496  0.06408614  0.57854781  1  0  -0.174217  0  3.616672  0  0  -0.217355  0  3.88056  0  0  -0.217283  0  3.890224  0  -0.161862  0  -0.153384  -0.217115  0  3.873301  0
C  C84  1  0.35624265  0.17969350  0.03345814  1  0  0.671404  0  3.815795  0  0  0.61967  0  4.112284  0  0  0.653751  0  4.10578  0  1.604557  0  0.215002  0.596279  0  4.116513  0
C  C85  1  0.85624019  0.32030716  0.96653600  1  0  0.671504  0  3.81559  0  0  0.619812  0  4.112027  0  0  0.653892  0  4.105525  0  1.604494  0  0.215059  0.596421  0  4.116257  0
C  C86  1  0.64375589  0.67969415  0.46653645  1  0  0.671596  0  3.815193  0  0  0.619824  0  4.111783  0  0  0.653904  0  4.105279  0  1.604566  0  0.215077  0.596433  0  4.116014  0
C  C87  1  0.14376006  0.82030886  0.53345904  1  0  0.671407  0  3.815967  0  0  0.6197  0  4.112412  0  0  0.653785  0  4.105906  0  1.604652  0  0.215058  0.59631  0  4.116638  0
S  S88  1  0.58426097  0.18909487  0.68563441  1  0  -0.007256  0  2.237414  0  0  -0.000461  0  2.579617  0  0  -0.004086  0  2.578199  0  0.002508  0  -0.006778  0.002523  0  2.581652  0
S  S89  1  0.08425998  0.31090059  0.31436604  1  0  -0.007253  0  2.237501  0  0  -0.000477  0  2.579735  0  0  -0.00411  0  2.578297  0  0.002427  0  -0.006769  0.0025  0  2.581765  0
S  S90  1  0.41574272  0.68909553  0.81436289  1  0  -0.007185  0  2.237542  0  0  -0.000395  0  2.579739  0  0  -0.004066  0  2.578267  0  0.002678  0  -0.006749  0.002577  0  2.581757  0
S  S91  1  0.91574542  0.81090229  0.18563666  1  0  -0.007232  0  2.237428  0  0  -0.000444  0  2.579666  0  0  -0.004113  0  2.578201  0  0.002682  0  -0.006751  0.002525  0  2.581688  0
S  S92  1  0.63993252  0.86866755  0.03138010  1  0  -0.048019  0  2.244912  0  0  -0.035825  0  2.596496  0  0  -0.039255  0  2.593105  0  -0.054371  0  -0.021029  -0.033273  0  2.59906  0
S  S93  1  0.13993670  0.63133442  0.96861539  1  0  -0.048122  0  2.244912  0  0  -0.035834  0  2.59638  0  0  -0.03926  0  2.592989  0  -0.053862  0  -0.021041  -0.033287  0  2.598944  0
S  S94  1  0.36006601  0.36867001  0.46861809  1  0  -0.048013  0  2.244978  0  0  -0.035834  0  2.596479  0  0  -0.039266  0  2.593086  0  -0.05421  0  -0.021042  -0.033284  0  2.599045  0
S  S95  1  0.86005668  0.13133273  0.53138236  1  0  -0.047983  0  2.24505  0  0  -0.035795  0  2.596523  0  0  -0.039223  0  2.593133  0  -0.053921  0  -0.02102  -0.033245  0  2.599087  0
N  N96  1  0.78965015  0.22186420  0.79160314  1  0  -0.302762  0  3.296188  0  0  -0.239285  0  3.503455  0  0  -0.253289  0  3.510855  0  -1.084265  0  -0.476395  -0.229599  0  3.498574  0
N  N97  1  0.28964745  0.27813126  0.20839731  1  0  -0.302622  0  3.296208  0  0  -0.239275  0  3.503699  0  0  -0.253257  0  3.511054  0  -1.08378  0  -0.476316  -0.229593  0  3.498817  0
N  N98  1  0.21035354  0.72187316  0.70839506  1  0  -0.302617  0  3.296124  0  0  -0.239271  0  3.50359  0  0  -0.253214  0  3.510869  0  -1.083275  0  -0.476292  -0.229592  0  3.498701  0
N  N99  1  0.71035108  0.77813088  0.29160449  1  0  -0.302739  0  3.296367  0  0  -0.239275  0  3.503728  0  0  -0.25331  0  3.511102  0  -1.084147  0  -0.476344  -0.2296  0  3.498835  0
N  N100  1  0.26409194  0.96913510  0.97661800  1  0  -0.42705  0  3.33077  0  0  -0.345863  0  3.575387  0  0  -0.365595  0  3.585392  0  -1.113398  0  -0.481046  -0.332455  0  3.5688  0
N  N101  1  0.76410151  0.53086168  0.02338019  1  0  -0.426917  0  3.330569  0  0  -0.345719  0  3.575186  0  0  -0.365467  0  3.585219  0  -1.113178  0  -0.480998  -0.332314  0  3.568601  0
N  N102  1  0.73589972  0.46913756  0.52338245  1  0  -0.427002  0  3.330625  0  0  -0.345744  0  3.575179  0  0  -0.36548  0  3.585186  0  -1.113484  0  -0.481096  -0.332337  0  3.568596  0
N  N103  1  0.23590046  0.03086517  0.47661936  1  0  -0.426975  0  3.330614  0  0  -0.345834  0  3.57528  0  0  -0.365587  0  3.585312  0  -1.113088  0  -0.481018  -0.332423  0  3.568686  0
Cl  Cl104  1  0.93965990  0.94860989  0.85916644  1  0  -0.597869  0  0.90347  0  0  -0.541341  0  1.174249  0  0  -0.556838  0  1.151429  0  -0.692273  0  -0.293453  -0.529757  0  1.18977  0
Cl  Cl105  1  0.43966407  0.55138066  0.14083221  1  0  -0.597895  0  0.90345  0  0  -0.541343  0  1.174212  0  0  -0.556842  0  1.151391  0  -0.692318  0  -0.29347  -0.529762  0  1.189737  0
Cl  Cl106  1  0.06034035  0.44861961  0.64083356  1  0  -0.597881  0  0.903477  0  0  -0.541354  0  1.174272  0  0  -0.556857  0  1.15146  0  -0.692268  0  -0.293457  -0.529774  0  1.189798  0
Cl  Cl107  1  0.56034134  0.05138416  0.35916914  1  0  -0.597896  0  0.903494  0  0  -0.541347  0  1.174259  0  0  -0.556845  0  1.151438  0  -0.692206  0  -0.293473  -0.529771  0  1.189787  0
O  O108  1  0.40205251  0.16802769  0.85284446  1  0  -0.614526  0  2.069635  0  0  -0.542039  0  2.335627  0  0  -0.569673  0  2.322111  0  -1.178776  0  -0.309467  -0.522553  0  2.344734  0
O  O109  1  0.90205178  0.33196674  0.14715464  1  0  -0.614514  0  2.069322  0  0  -0.542056  0  2.335283  0  0  -0.569699  0  2.321767  0  -1.178467  0  -0.309508  -0.522568  0  2.344393  0
O  O110  1  0.59794945  0.66803250  0.64715599  1  0  -0.614479  0  2.069717  0  0  -0.541983  0  2.335681  0  0  -0.569626  0  2.32217  0  -1.178622  0  -0.309447  -0.522497  0  2.344788  0
O  O111  1  0.09794503  0.83196947  0.35284311  1  0  -0.614382  0  2.06986  0  0  -0.541908  0  2.335826  0  0  -0.569536  0  2.322306  0  -1.179057  0  -0.309454  -0.522426  0  2.344935  0
O  O112  1  0.20065337  0.34230254  0.80853474  1  0  -0.597944  0  2.007363  0  0  -0.543922  0  2.235972  0  0  -0.56815  0  2.227993  0  -1.18875  0  -0.306912  -0.526786  0  2.241147  0
O  O113  1  0.70066467  0.15768565  0.19146616  1  0  -0.597934  0  2.007972  0  0  -0.543842  0  2.236461  0  0  -0.568063  0  2.22849  0  -1.188339  0  -0.306852  -0.526711  0  2.241639  0
O  O114  1  0.79934344  0.84231566  0.69146301  1  0  -0.598073  0  2.007627  0  0  -0.543926  0  2.236123  0  0  -0.568155  0  2.228156  0  -1.188652  0  -0.306938  -0.526788  0  2.241294  0
O  O115  1  0.29934933  0.65768943  0.30853339  1  0  -0.598016  0  2.007195  0  0  -0.543881  0  2.235682  0  0  -0.568099  0  2.227684  0  -1.188453  0  -0.306918  -0.52674  0  2.240849  0
O  O116  1  0.35804349  0.23914799  0.98312427  1  0  -0.602313  0  2.005592  0  0  -0.543549  0  2.252544  0  0  -0.570233  0  2.244028  0  -1.171714  0  -0.302126  -0.524996  0  2.258246  0
O  O117  1  0.85805307  0.26085163  0.01687528  1  0  -0.602557  0  2.005203  0  0  -0.543815  0  2.252161  0  0  -0.570504  0  2.24364  0  -1.171585  0  -0.302256  -0.525261  0  2.257864  0
O  O118  1  0.64195676  0.73915384  0.51687708  1  0  -0.602591  0  2.004901  0  0  -0.543819  0  2.251896  0  0  -0.570506  0  2.243373  0  -1.171652  0  -0.302256  -0.525263  0  2.2576  0
O  O119  1  0.14195062  0.76085540  0.48312517  1  0  -0.602308  0  2.005754  0  0  -0.543567  0  2.252702  0  0  -0.570257  0  2.244187  0  -1.171809  0  -0.302156  -0.525014  0  2.258404  0
O  O120  1  0.92288694  0.26774458  0.91654006  1  0  -0.642683  0  2.105148  0  0  -0.570851  0  2.381905  0  0  -0.5999  0  2.367914  0  -1.183215  0  -0.325465  -0.550791  0  2.390862  0
O  O121  1  0.42288768  0.23225711  0.08345994  1  0  -0.642829  0  2.104912  0  0  -0.570969  0  2.381682  0  0  -0.600022  0  2.367689  0  -1.183037  0  -0.325563  -0.550907  0  2.39064  0
O  O122  1  0.07711331  0.76774317  0.58346085  1  0  -0.64284  0  2.104951  0  0  -0.570961  0  2.381671  0  0  -0.600015  0  2.367682  0  -1.18305  0  -0.325542  -0.550896  0  2.390625  0
O  O123  1  0.57710742  0.73225258  0.41654186  1  0  -0.642647  0  2.105005  0  0  -0.570847  0  2.381898  0  0  -0.599895  0  2.367905  0  -1.183193  0  -0.325519  -0.550788  0  2.390855  0
