# generated using pymatgen
data_Mn2H25C33NO10
_symmetry_space_group_name_H-M   'P 1'
_cell_length_a   11.26297600
_cell_length_b   13.04072436
_cell_length_c   25.37017803
_cell_angle_alpha   90.00035191
_cell_angle_beta   97.06687778
_cell_angle_gamma   89.99970855
_symmetry_Int_Tables_number   1
_chemical_formula_structural   Mn2H25C33NO10
_chemical_formula_sum   'Mn8 H100 C132 N4 O40'
_cell_volume   3697.99701339
_cell_formula_units_Z   4
loop_
 _symmetry_equiv_pos_site_id
 _symmetry_equiv_pos_as_xyz
  1  'x, y, z'
loop_
 _atom_site_type_symbol
 _atom_site_label
 _atom_site_symmetry_multiplicity
 _atom_site_fract_x
 _atom_site_fract_y
 _atom_site_fract_z
 _atom_site_occupancy
 _atom_site_pbe_bader_charge
 _atom_site_pbe_bader_spin_density
 _atom_site_pbe_cm5_charge
 _atom_site_pbe_ddec_charge
 _atom_site_pbe_ddec_spin_density
 _atom_site_pbe_ddec_sum_bond_order
 _atom_site_pbe_magmom
Mn  Mn0  1  0.12362507  0.54610655  0.74456088  1  1.534094  4.529496  0.612082  1.027968  4.657403  2.29975  4.456
Mn  Mn1  1  0.87636777  0.04610207  0.75543832  1  1.534088  4.529592  0.612147  1.02799  4.657581  2.299524  4.456
Mn  Mn2  1  0.87636953  0.45389082  0.25543866  1  1.534129  4.529556  0.612168  1.028062  4.657506  2.299525  4.456
Mn  Mn3  1  0.12363133  0.95389607  0.24455793  1  1.53405  4.529585  0.612081  1.02794  4.657438  2.299677  4.456
Mn  Mn4  1  0.92370116  0.71571341  0.22455750  1  1.545374  4.542107  0.612563  1.075424  4.660346  2.289571  4.471
Mn  Mn5  1  0.07629911  0.21571420  0.27544264  1  1.545382  4.542074  0.612583  1.075507  4.660309  2.289498  4.471
Mn  Mn6  1  0.07629791  0.28428089  0.77544308  1  1.545344  4.542129  0.612586  1.075429  4.660351  2.289543  4.471
Mn  Mn7  1  0.92370442  0.78427857  0.72455937  1  1.545361  4.542066  0.612518  1.075415  4.660257  2.28968  4.471
H  H8  1  0.85997784  0.89398636  0.18071215  1  0.633271  0.001266  0.29567  0.381578  0.000677  0.964227  0.001
H  H9  1  0.14003225  0.39397973  0.31928870  1  0.633383  0.001266  0.295601  0.381375  0.000678  0.964459  0.001
H  H10  1  0.14002211  0.10601868  0.81929005  1  0.633366  0.001266  0.295652  0.381548  0.000677  0.964253  0.001
H  H11  1  0.85997397  0.60601841  0.68071228  1  0.633401  0.001265  0.295595  0.381447  0.000678  0.964387  0.001
H  H12  1  0.75042290  0.85212943  0.20813932  1  0.626557  0.001621  0.326206  0.403857  0.000643  0.868507  0.001
H  H13  1  0.24958739  0.35211892  0.29186260  1  0.626857  0.00162  0.32617  0.40371  0.000643  0.868646  0.001
H  H14  1  0.24958062  0.14786564  0.79186309  1  0.626576  0.001621  0.326174  0.403748  0.000644  0.868643  0.001
H  H15  1  0.75041882  0.64787078  0.70813995  1  0.626513  0.001621  0.326155  0.403755  0.000644  0.868628  0.001
H  H16  1  0.85901415  0.81526170  0.60581562  1  0.123239  0.000761  0.106809  0.110809  0.000121  1.035641  0.0
H  H17  1  0.14098538  0.31526210  0.89418125  1  0.123157  0.000763  0.106802  0.1109  0.000121  1.035513  0.0
H  H18  1  0.14098047  0.18474104  0.39418037  1  0.1231  0.000763  0.10679  0.110871  0.000121  1.035458  0.0
H  H19  1  0.85901190  0.68474063  0.10581884  1  0.123204  0.000763  0.10681  0.11087  0.000121  1.035501  0.0
H  H20  1  0.22797728  0.73823645  0.31235719  1  0.106448  0.000226  0.114034  0.127071  -0.00054  1.004575  0.0
H  H21  1  0.77200046  0.23824388  0.18764649  1  0.106338  0.000226  0.11393  0.126997  -0.00054  1.004536  0.0
H  H22  1  0.77201373  0.26175709  0.68764333  1  0.10635  0.000226  0.114021  0.127164  -0.00054  1.004479  0.0
H  H23  1  0.22796547  0.76175733  0.81235617  1  0.10643  0.000226  0.114034  0.127108  -0.00054  1.004481  0.0
H  H24  1  0.06520927  0.79483261  0.57117156  1  0.072775  0.000424  0.100353  0.09928  -1.7e-05  1.018175  0.0
H  H25  1  0.93479124  0.29484147  0.92882767  1  0.072697  0.000424  0.100327  0.099214  -1.7e-05  1.0182  0.0
H  H26  1  0.93479247  0.20517013  0.42882956  1  0.072694  0.000424  0.100329  0.099243  -1.7e-05  1.018242  0.0
H  H27  1  0.06520069  0.70516817  0.07116975  1  0.072592  0.000425  0.100329  0.099223  -1.7e-05  1.018202  0.0
H  H28  1  0.13428444  0.48411561  0.40759853  1  0.085845  0.000358  0.107383  0.113723  -0.000116  0.992003  0.0
H  H29  1  0.86572337  0.98412268  0.09240642  1  0.08599  0.000358  0.107434  0.113724  -0.000116  0.99206  0.0
H  H30  1  0.86571550  0.51588023  0.59240485  1  0.085981  0.000358  0.107381  0.113673  -0.000116  0.992087  0.0
H  H31  1  0.13427476  0.01588159  0.90759963  1  0.085818  0.000358  0.107421  0.113776  -0.000116  0.992018  0.0
H  H32  1  0.36678907  0.66369411  0.66756317  1  0.116299  0.000198  0.112862  0.118536  -0.000306  0.987463  0.0
H  H33  1  0.63321301  0.16369162  0.83243653  1  0.11631  0.000198  0.11289  0.118602  -0.000306  0.987365  0.0
H  H34  1  0.63321181  0.33630019  0.33243515  1  0.115734  0.000198  0.112872  0.118582  -0.000306  0.987424  0.0
H  H35  1  0.36678608  0.83630958  0.16756129  1  0.116495  0.000198  0.112882  0.118579  -0.000306  0.98738  0.0
H  H36  1  0.48536291  0.66883191  0.59045854  1  0.097188  0.000199  0.104412  0.110244  0.000104  0.993532  0.0
H  H37  1  0.51464271  0.16882473  0.90954216  1  0.097073  0.000199  0.104408  0.110231  0.000104  0.993566  0.0
H  H38  1  0.51464154  0.33116700  0.40954116  1  0.097273  0.000199  0.104413  0.110271  0.000104  0.993605  0.0
H  H39  1  0.48535101  0.83117801  0.09045496  1  0.09707  0.000199  0.10445  0.110241  0.000104  0.99364  0.0
H  H40  1  0.27046469  0.55156755  0.48471271  1  0.095394  0.000133  0.099692  0.103295  5.7e-05  1.005049  0.0
H  H41  1  0.72954624  0.05157232  0.01529027  1  0.095076  0.000133  0.09974  0.103346  5.7e-05  1.005056  0.0
H  H42  1  0.72953885  0.44843289  0.51528852  1  0.095427  0.000133  0.099696  0.103279  5.7e-05  1.005036  0.0
H  H43  1  0.27045637  0.94842735  0.98471405  1  0.09527  0.000133  0.099696  0.103275  5.7e-05  1.005032  0.0
H  H44  1  0.36585883  0.80388326  0.38804702  1  0.092496  0.000247  0.100594  0.105784  -7e-06  1.028158  0.0
H  H45  1  0.63412756  0.30388502  0.11195222  1  0.092204  0.000247  0.100524  0.105637  -7e-06  1.028246  0.0
H  H46  1  0.63413937  0.19611564  0.61194996  1  0.092348  0.000247  0.100564  0.105728  -7e-06  1.028188  0.0
H  H47  1  0.36585272  0.69611389  0.88804612  1  0.092485  0.000247  0.100585  0.10578  -7e-06  1.028144  0.0
H  H48  1  0.18112809  0.79738159  0.49332141  1  0.071148  9.6e-05  0.09492  0.092689  1.6e-05  1.027089  0.0
H  H49  1  0.81887354  0.29738051  0.00667985  1  0.071834  9.6e-05  0.094882  0.092643  1.6e-05  1.027083  0.0
H  H50  1  0.81887545  0.20262268  0.50667863  1  0.071876  9.6e-05  0.094896  0.092631  1.6e-05  1.027078  0.0
H  H51  1  0.18111839  0.70262530  0.99331717  1  0.071737  9.6e-05  0.09492  0.092656  1.6e-05  1.026928  0.0
H  H52  1  0.44523870  0.92461808  0.53766306  1  0.05502  6.8e-05  0.097586  0.097616  2.5e-05  1.017329  0.0
H  H53  1  0.55475310  0.42461367  0.96233530  1  0.055116  6.8e-05  0.09759  0.097631  2.5e-05  1.017282  0.0
H  H54  1  0.55475321  0.07538312  0.46233672  1  0.055097  6.8e-05  0.097616  0.097609  2.5e-05  1.017383  0.0
H  H55  1  0.44524600  0.57538524  0.03766095  1  0.055092  6.8e-05  0.097596  0.097606  2.5e-05  1.01728  0.0
H  H56  1  0.71914897  0.83616263  0.34099533  1  0.07989  0.000281  0.100679  0.098242  -0.000117  1.037478  0.0
H  H57  1  0.28085069  0.33616265  0.15900397  1  0.079902  0.000281  0.100672  0.098232  -0.000117  1.037451  0.0
H  H58  1  0.28085370  0.16384625  0.65900308  1  0.080028  0.000281  0.100613  0.098165  -0.000117  1.037665  0.0
H  H59  1  0.71914926  0.66384162  0.84099745  1  0.079998  0.000281  0.100615  0.09816  -0.000117  1.037592  0.0
H  H60  1  0.62446113  0.88459621  0.42170709  1  0.069225  0.000165  0.098292  0.097788  8.4e-05  1.015097  0.0
H  H61  1  0.37552935  0.38459562  0.07828869  1  0.069181  0.000165  0.098333  0.097807  8.4e-05  1.015126  0.0
H  H62  1  0.37553706  0.11540883  0.57829107  1  0.069226  0.000165  0.0983  0.097808  8.4e-05  1.015048  0.0
H  H63  1  0.62446614  0.61540559  0.92171129  1  0.069224  0.000165  0.098293  0.097764  8.4e-05  1.015055  0.0
H  H64  1  0.65704194  0.51830176  0.37097230  1  0.081639  0.00029  0.103113  0.10559  -0.000126  1.03183  0.0
H  H65  1  0.34297455  0.01830116  0.12902812  1  0.081662  0.00029  0.103102  0.105529  -0.000126  1.031839  0.0
H  H66  1  0.34297055  0.48170481  0.62902824  1  0.081539  0.00029  0.103117  0.105596  -0.000125  1.031848  0.0
H  H67  1  0.65703433  0.98170081  0.87097655  1  0.081543  0.00029  0.103103  0.105595  -0.000126  1.031796  0.0
H  H68  1  0.56020478  0.01772082  0.61379647  1  0.071538  0.000421  0.103069  0.104544  0.000116  1.018245  0.0
H  H69  1  0.43979624  0.51772178  0.88620388  1  0.071982  0.000421  0.103051  0.104526  0.000116  1.018189  0.0
H  H70  1  0.43979070  0.98227962  0.38620469  1  0.071719  0.000421  0.103048  0.104531  0.000116  1.018217  0.0
H  H71  1  0.56020286  0.48227712  0.11379236  1  0.071814  0.000421  0.103047  0.104551  0.000116  1.018182  0.0
H  H72  1  0.74730381  0.72572274  0.52861088  1  0.076314  4.7e-05  0.100827  0.105154  -1.4e-05  0.996489  0.0
H  H73  1  0.25269801  0.22571055  0.97138151  1  0.07613  4.7e-05  0.100865  0.105187  -1.4e-05  0.996312  0.0
H  H74  1  0.25269173  0.27428306  0.47138359  1  0.076044  4.7e-05  0.100864  0.105187  -1.4e-05  0.99638  0.0
H  H75  1  0.74729928  0.77429219  0.02861739  1  0.076118  4.7e-05  0.100851  0.105189  -1.4e-05  0.996354  0.0
H  H76  1  0.55156118  0.56604751  0.44848693  1  0.035669  7.7e-05  0.098605  0.098795  2.3e-05  1.010986  0.0
H  H77  1  0.44844881  0.06605088  0.05151250  1  0.035584  7.7e-05  0.098551  0.098762  2.3e-05  1.010965  0.0
H  H78  1  0.44844951  0.43395216  0.55151470  1  0.035555  7.7e-05  0.098525  0.098716  2.3e-05  1.010991  0.0
H  H79  1  0.55155292  0.93395186  0.94849059  1  0.035455  7.7e-05  0.098535  0.098749  2.3e-05  1.010961  0.0
H  H80  1  0.03756037  0.71091650  0.85512141  1  0.10661  0.00073  0.124948  0.047032  3.6e-05  1.016104  0.0
H  H81  1  0.96245397  0.21090955  0.64488188  1  0.10692  0.000728  0.12491  0.046916  3.5e-05  1.015775  0.0
H  H82  1  0.96243333  0.28908701  0.14487887  1  0.106485  0.00073  0.124948  0.046978  3.5e-05  1.016141  0.0
H  H83  1  0.03756929  0.78909396  0.35511532  1  0.106586  0.00073  0.124892  0.046916  3.5e-05  1.015997  0.0
H  H84  1  0.00191294  0.52354636  0.93963613  1  0.061746  0.001423  0.106138  0.120711  0.000825  0.97967  0.001
H  H85  1  0.99810506  0.02353977  0.56036520  1  0.062639  0.001421  0.106145  0.120725  0.000824  0.97957  0.001
H  H86  1  0.99809061  0.47645562  0.06036391  1  0.061724  0.001422  0.10614  0.120727  0.000824  0.979701  0.001
H  H87  1  0.00190832  0.97645530  0.43963657  1  0.061736  0.001422  0.106123  0.120662  0.000824  0.979634  0.001
H  H88  1  0.86583663  0.59583568  0.93578124  1  0.072192  0.000898  0.105111  0.117355  0.000537  1.005769  0.0
H  H89  1  0.13417472  0.09582754  0.56422112  1  0.072361  0.000898  0.105088  0.117337  0.000537  1.005815  0.0
H  H90  1  0.13416512  0.40416629  0.06421870  1  0.072161  0.000898  0.1051  0.11736  0.000537  1.005806  0.0
H  H91  1  0.86583153  0.90417060  0.43577749  1  0.072278  0.000898  0.105098  0.117322  0.000537  1.005725  0.0
H  H92  1  0.00494245  0.66021433  0.93304224  1  0.070306  0.000109  0.113022  0.126002  -3.3e-05  0.994341  0.0
H  H93  1  0.99506947  0.16020784  0.56696036  1  0.070527  0.000109  0.113006  0.126008  -3.3e-05  0.994333  0.0
H  H94  1  0.99505664  0.33978764  0.06695598  1  0.070312  0.000109  0.113031  0.126016  -3.3e-05  0.994238  0.0
H  H95  1  0.00494034  0.83978647  0.43304042  1  0.070585  0.000109  0.113035  0.126018  -3.3e-05  0.994213  0.0
H  H96  1  0.85490728  0.50221891  0.79798476  1  0.067201  0.000331  0.117537  0.14019  -0.000631  0.990049  0.0
H  H97  1  0.14509740  0.00220318  0.70201576  1  0.067458  0.00033  0.117482  0.140173  -0.000632  0.990041  0.0
H  H98  1  0.14509448  0.49777923  0.20201439  1  0.067192  0.00033  0.117545  0.140182  -0.000632  0.990072  0.0
H  H99  1  0.85490523  0.99779573  0.29798620  1  0.067257  0.00033  0.117492  0.140237  -0.000632  0.989964  0.0
H  H100  1  0.78514241  0.48959129  0.85784459  1  0.069291  0.001054  0.104828  0.115904  0.000715  0.985027  0.001
H  H101  1  0.21486782  0.98957880  0.64215737  1  0.069346  0.001053  0.104733  0.115801  0.000714  0.985027  0.001
H  H102  1  0.21485576  0.51040608  0.14215515  1  0.06925  0.001053  0.104819  0.115903  0.000714  0.985081  0.001
H  H103  1  0.78514464  0.01041551  0.35784750  1  0.069638  0.001053  0.104809  0.115908  0.000714  0.98506  0.001
H  H104  1  0.92031118  0.42178030  0.85021043  1  0.120238  0.001254  0.109984  0.131101  5e-05  1.035643  0.001
H  H105  1  0.07969675  0.92177232  0.64978725  1  0.119887  0.001253  0.109984  0.130973  5e-05  1.035785  0.001
H  H106  1  0.07968969  0.57822014  0.14978907  1  0.120213  0.001253  0.109997  0.131146  5e-05  1.035591  0.001
H  H107  1  0.92031214  0.07822888  0.35021545  1  0.119992  0.001253  0.109984  0.131138  5e-05  1.035662  0.001
C  C108  1  0.17238272  0.60723184  0.35532818  1  -0.063069  0.001887  -0.02846  -0.066454  0.000508  4.018052  0.0
C  C109  1  0.82761270  0.10723927  0.14467607  1  -0.06378  0.001887  -0.028388  -0.06633  0.000507  4.017814  0.0
C  C110  1  0.82761366  0.39276400  0.64467264  1  -0.063172  0.001887  -0.028441  -0.066446  0.000507  4.018016  0.0
C  C111  1  0.17237289  0.89276500  0.85533045  1  -0.062968  0.001887  -0.028361  -0.066401  0.000507  4.017905  0.0
C  C112  1  0.51826857  0.75699042  0.48625162  1  0.007589  0.00356  -0.00447  -0.035174  0.002842  3.943438  0.002
C  C113  1  0.48172793  0.25698782  0.01374528  1  0.008454  0.00356  -0.004473  -0.035363  0.002842  3.943347  0.002
C  C114  1  0.48172605  0.24301155  0.51374555  1  0.007718  0.003559  -0.004451  -0.035233  0.002841  3.94327  0.002
C  C115  1  0.51826577  0.74301338  0.98625381  1  0.00799  0.003561  -0.004491  -0.03529  0.002842  3.943529  0.002
C  C116  1  0.69422661  0.67441099  0.35124191  1  -0.034164  0.002603  -0.020725  -0.041115  0.001371  3.964795  0.001
C  C117  1  0.30578013  0.17441309  0.14875807  1  0.011738  0.002581  -0.020719  -0.041009  0.001372  3.964696  0.001
C  C118  1  0.30577695  0.32559252  0.64875577  1  0.011114  0.002581  -0.020699  -0.040904  0.001372  3.964622  0.001
C  C119  1  0.69422340  0.82559042  0.85124394  1  0.011395  0.002581  -0.020729  -0.041037  0.001371  3.964691  0.001
C  C120  1  0.71573598  0.92173545  0.61479801  1  0.041885  -0.000481  -0.018962  -0.039377  -0.001763  3.987138  -0.002
C  C121  1  0.28426568  0.42173588  0.88519971  1  0.042146  -0.000481  -0.018896  -0.039213  -0.001762  3.986997  -0.002
C  C122  1  0.28426848  0.07826806  0.38519971  1  0.041579  -0.000481  -0.018931  -0.039306  -0.001762  3.987001  -0.002
C  C123  1  0.71573430  0.57826455  0.11479777  1  0.04223  -0.000481  -0.018899  -0.039313  -0.001762  3.986974  -0.002
C  C124  1  0.20929690  0.72901035  0.62406241  1  0.002381  0.000511  -0.019378  -0.044249  -0.000731  3.981164  -0.001
C  C125  1  0.79070752  0.22901000  0.87593762  1  0.002442  0.000511  -0.019421  -0.04433  -0.000731  3.981216  -0.001
C  C126  1  0.79070752  0.27098855  0.37593965  1  0.002427  0.000513  -0.01934  -0.044241  -0.00073  3.981128  -0.001
C  C127  1  0.20928976  0.77098890  0.12406167  1  0.002674  0.000511  -0.019323  -0.044151  -0.000731  3.981078  -0.001
C  C128  1  0.34103221  0.73334289  0.53651580  1  -0.039932  0.007112  -0.005856  0.079084  0.00555  4.014927  0.004
C  C129  1  0.65897128  0.23333956  0.96348577  1  -0.039735  0.00711  -0.005806  0.079063  0.005549  4.014669  0.004
C  C130  1  0.65897582  0.26665525  0.46348252  1  -0.039734  0.007109  -0.005825  0.079059  0.005548  4.014649  0.004
C  C131  1  0.34102511  0.76665934  0.03651387  1  -0.039703  0.007111  -0.005851  0.079025  0.005549  4.014602  0.004
C  C132  1  0.13738545  0.71913863  0.66944495  1  1.543702  0.032731  0.22878  0.593182  0.032462  4.167843  0.027
C  C133  1  0.86261366  0.21914125  0.83055475  1  1.543771  0.032721  0.228807  0.593369  0.032452  4.167581  0.027
C  C134  1  0.86261722  0.28085721  0.33055268  1  1.543912  0.032727  0.228755  0.593173  0.032461  4.167768  0.027
C  C135  1  0.13738720  0.78085535  0.16944514  1  1.543809  0.032722  0.228826  0.593374  0.032453  4.167636  0.027
C  C136  1  0.75644799  0.64485853  0.30455463  1  1.566227  0.021402  0.225372  0.601744  0.020613  4.176783  0.019
C  C137  1  0.24355622  0.14486146  0.19544551  1  1.566194  0.021401  0.225312  0.601666  0.020613  4.177118  0.019
C  C138  1  0.24355465  0.35514574  0.69544694  1  1.566377  0.021407  0.225169  0.601324  0.02062  4.177393  0.019
C  C139  1  0.75644908  0.85514511  0.80455857  1  1.566241  0.021403  0.225248  0.601474  0.020617  4.177161  0.019
C  C140  1  0.76916536  0.84033020  0.59019775  1  -0.115498  0.004635  -0.08355  -0.087815  0.003383  3.972763  0.003
C  C141  1  0.23083405  0.34032733  0.90979722  1  -0.115064  0.004636  -0.083638  -0.088122  0.003384  3.972497  0.003
C  C142  1  0.23083464  0.15967714  0.40979697  1  -0.114976  0.004633  -0.08357  -0.087985  0.003383  3.972499  0.003
C  C143  1  0.76916145  0.65967618  0.09020119  1  -0.115003  0.004634  -0.083617  -0.088038  0.003384  3.972469  0.003
C  C144  1  0.58722769  0.81700637  0.52894132  1  -0.003862  0.004114  -0.004963  0.078031  0.003206  4.01547  0.002
C  C145  1  0.41277453  0.31700344  0.97105413  1  -0.003911  0.004114  -0.004966  0.078098  0.003206  4.015197  0.002
C  C146  1  0.41277230  0.18299561  0.47105576  1  -0.003515  0.004112  -0.004973  0.078023  0.003204  4.015399  0.002
C  C147  1  0.58722724  0.68299853  0.02894424  1  -0.003584  0.004114  -0.004927  0.078108  0.003206  4.015274  0.002
C  C148  1  0.32886600  0.68173708  0.44164987  1  -0.001864  0.004826  -0.004892  0.077969  0.003796  4.013799  0.003
C  C149  1  0.67113623  0.18174109  0.05835067  1  -0.001652  0.004828  -0.004917  0.077823  0.003798  4.013885  0.003
C  C150  1  0.67113665  0.31826413  0.55835052  1  -0.001816  0.004827  -0.004973  0.077771  0.003797  4.013972  0.003
C  C151  1  0.32885836  0.81825935  0.94165005  1  -0.002114  0.004828  -0.004931  0.07792  0.003798  4.013897  0.003
C  C152  1  0.58083192  0.72859205  0.44022407  1  -0.006937  0.004172  -0.004641  0.082606  0.003277  4.02238  0.003
C  C153  1  0.41917188  0.22859411  0.05977354  1  -0.007188  0.004172  -0.004597  0.082862  0.003277  4.022218  0.003
C  C154  1  0.41917251  0.27140993  0.55977641  1  -0.00674  0.004172  -0.004626  0.082765  0.003277  4.022281  0.003
C  C155  1  0.58082182  0.77140786  0.94022673  1  -0.007139  0.004173  -0.004626  0.082747  0.003278  4.022391  0.003
C  C156  1  0.23947685  0.69650967  0.34988009  1  -0.042943  0.004762  -0.079999  -0.084806  0.003256  3.958384  0.003
C  C157  1  0.76051007  0.19651824  0.15012239  1  -0.042993  0.004764  -0.080041  -0.084962  0.003258  3.958115  0.003
C  C158  1  0.76051595  0.30348540  0.65012053  1  -0.04319  0.004763  -0.080047  -0.085068  0.003257  3.958294  0.003
C  C159  1  0.23947106  0.80348680  0.84988191  1  -0.042567  0.004764  -0.079996  -0.084852  0.003258  3.958197  0.003
C  C160  1  0.15763347  0.76816520  0.57503423  1  -0.007138  0.00701  -0.090092  -0.098719  0.00517  4.011283  0.004
C  C161  1  0.84237077  0.26816752  0.92496355  1  -0.007211  0.007008  -0.090053  -0.09865  0.005168  4.011278  0.004
C  C162  1  0.84237276  0.23183447  0.42496596  1  -0.007144  0.007007  -0.090079  -0.098668  0.005167  4.01168  0.004
C  C163  1  0.15762114  0.73183752  0.07503544  1  -0.007086  0.007008  -0.090043  -0.098661  0.005168  4.011235  0.004
C  C164  1  0.18619929  0.55369749  0.40371476  1  -0.042118  0.005059  -0.087331  -0.093265  0.003705  3.995547  0.003
C  C165  1  0.81380356  0.05370364  0.09628896  1  -0.041864  0.005061  -0.087415  -0.093297  0.003707  3.995581  0.003
C  C166  1  0.81379887  0.44629834  0.59628656  1  -0.042061  0.00506  -0.087335  -0.093187  0.003706  3.995697  0.003
C  C167  1  0.18618739  0.94629986  0.90371826  1  -0.042294  0.005061  -0.087469  -0.093415  0.003706  3.995559  0.003
C  C168  1  0.32819747  0.69449210  0.62931144  1  -0.06558  0.006637  -0.079473  -0.083609  0.004856  3.966408  0.004
C  C169  1  0.67180892  0.19449144  0.87068899  1  -0.06579  0.006635  -0.079531  -0.083776  0.004855  3.966329  0.004
C  C170  1  0.67180608  0.30550527  0.37068821  1  -0.065298  0.006634  -0.079551  -0.083796  0.004854  3.966331  0.004
C  C171  1  0.32818748  0.80550900  0.12931026  1  -0.066367  0.006636  -0.079598  -0.0838  0.004855  3.966182  0.004
C  C172  1  0.39355205  0.69717483  0.58623340  1  -0.080569  -0.001136  -0.084602  -0.126445  -0.001236  3.963449  -0.001
C  C173  1  0.60645343  0.19717037  0.91376659  1  -0.080312  -0.001136  -0.08457  -0.126345  -0.001236  3.963248  -0.001
C  C174  1  0.60645240  0.30282330  0.41376551  1  -0.080469  -0.001136  -0.084589  -0.126393  -0.001235  3.963489  -0.001
C  C175  1  0.39354385  0.80282930  0.08623271  1  -0.080271  -0.001136  -0.084573  -0.126344  -0.001235  3.963242  -0.001
C  C176  1  0.08164287  0.57542295  0.31066531  1  1.54234  0.024414  0.224976  0.585557  0.023885  4.183674  0.021
C  C177  1  0.91835362  0.07543130  0.18933693  1  1.54312  0.024421  0.224857  0.585479  0.023894  4.183416  0.021
C  C178  1  0.91835438  0.42456445  0.68933753  1  1.542802  0.024412  0.224942  0.585615  0.023887  4.183263  0.021
C  C179  1  0.08163469  0.92458064  0.81066580  1  1.542089  0.024431  0.224923  0.585479  0.023901  4.183656  0.021
C  C180  1  0.26252060  0.59144166  0.44659489  1  -0.057951  -0.000563  -0.09366  -0.13846  -0.000623  3.98371  -0.001
C  C181  1  0.73748386  0.09144762  0.05340825  1  -0.057908  -0.000563  -0.093664  -0.138474  -0.000623  3.983775  -0.001
C  C182  1  0.73748026  0.40855955  0.55340500  1  -0.058153  -0.000563  -0.093651  -0.138366  -0.000624  3.983723  -0.001
C  C183  1  0.26250981  0.90855205  0.94659597  1  -0.057474  -0.000563  -0.093586  -0.138311  -0.000623  3.983512  -0.001
C  C184  1  0.31715795  0.73292031  0.39251220  1  -0.058774  -0.000578  -0.087833  -0.122349  -0.000739  3.955359  -0.001
C  C185  1  0.68283238  0.23292334  0.10748861  1  -0.058428  -0.000578  -0.087641  -0.121927  -0.00074  3.955003  -0.001
C  C186  1  0.68283844  0.26707859  0.60748743  1  -0.058327  -0.000579  -0.087701  -0.122091  -0.00074  3.955187  -0.001
C  C187  1  0.31715414  0.76707557  0.89251363  1  -0.059078  -0.000577  -0.087794  -0.122299  -0.000739  3.955251  -0.001
C  C188  1  0.22234819  0.76941090  0.53183037  1  -0.089375  -0.001533  -0.096013  -0.140877  -0.001688  3.998777  -0.001
C  C189  1  0.77765692  0.26941171  0.96816864  1  -0.090012  -0.001533  -0.095973  -0.140791  -0.001688  3.998484  -0.001
C  C190  1  0.77765984  0.23058647  0.46816795  1  -0.090106  -0.001533  -0.095969  -0.140771  -0.001688  3.998632  -0.001
C  C191  1  0.22233678  0.73059179  0.03183085  1  -0.089909  -0.001533  -0.096098  -0.140946  -0.001688  3.998397  -0.001
C  C192  1  0.53605913  0.90121743  0.55265992  1  -0.058849  -0.000278  -0.089844  -0.130914  -0.000369  3.990124  0.0
C  C193  1  0.46393815  0.40121783  0.94733868  1  -0.058918  -0.000278  -0.08986  -0.130945  -0.000369  3.990189  0.0
C  C194  1  0.46393904  0.09878300  0.44734100  1  -0.059023  -0.000278  -0.089911  -0.130904  -0.000368  3.990215  0.0
C  C195  1  0.53606273  0.59878260  0.05265846  1  -0.058982  -0.000278  -0.089893  -0.130943  -0.000368  3.990178  0.0
C  C196  1  0.68433914  0.77764693  0.36557233  1  -0.030005  0.004122  -0.089003  -0.09103  0.003014  3.995749  0.002
C  C197  1  0.31565994  0.27764727  0.13442478  1  -0.075722  0.004145  -0.08901  -0.091109  0.003014  3.99579  0.002
C  C198  1  0.31565816  0.22235658  0.63442460  1  -0.075471  0.004145  -0.088922  -0.090934  0.003014  3.995813  0.002
C  C199  1  0.68434091  0.72235700  0.86557629  1  -0.075413  0.004145  -0.088877  -0.090848  0.003015  3.995752  0.002
C  C200  1  0.63101883  0.80423786  0.41029017  1  -0.089901  -0.000236  -0.095686  -0.1475  -0.000286  4.00082  0.0
C  C201  1  0.36897655  0.30423897  0.08970524  1  -0.089857  -0.000235  -0.095731  -0.147577  -0.000285  4.000787  0.0
C  C202  1  0.36897579  0.19576564  0.58970661  1  -0.089999  -0.000236  -0.095757  -0.147683  -0.000286  4.000927  0.0
C  C203  1  0.63102431  0.69576454  0.91029543  1  -0.089968  -0.000235  -0.095755  -0.14763  -0.000285  4.000737  0.0
C  C204  1  0.40300745  0.72609823  0.48848166  1  -0.029929  0.00119  -0.001875  -0.032048  0.000961  3.935213  0.0
C  C205  1  0.59699097  0.22609664  0.01151959  1  -0.030652  0.00119  -0.001926  -0.032018  0.000961  3.935268  0.0
C  C206  1  0.59699162  0.27390221  0.51151813  1  -0.030658  0.00119  -0.001886  -0.032038  0.000961  3.935021  0.0
C  C207  1  0.40300185  0.77390227  0.98847827  1  -0.030258  0.00119  -0.001915  -0.032035  0.000961  3.935361  0.0
C  C208  1  0.77817192  0.97224967  0.66284653  1  1.501649  0.020915  0.214208  0.566756  0.02104  4.178583  0.017
C  C209  1  0.22182231  0.47225056  0.83715291  1  1.50157  0.020919  0.214067  0.566547  0.021044  4.178416  0.017
C  C210  1  0.22183078  0.02774694  0.33714834  1  1.502476  0.020917  0.214113  0.566671  0.021043  4.178368  0.017
C  C211  1  0.77817049  0.52774834  0.16284653  1  1.501593  0.020917  0.214131  0.56665  0.021041  4.178658  0.017
C  C212  1  0.64752007  0.59839709  0.38191054  1  0.027243  0.004451  -0.081534  -0.078026  0.003232  3.962224  0.003
C  C213  1  0.35249153  0.09839708  0.11808987  1  0.027353  0.00445  -0.081493  -0.077958  0.003231  3.962208  0.003
C  C214  1  0.35249242  0.40160871  0.61809000  1  0.027656  0.00445  -0.081515  -0.078092  0.003232  3.962363  0.003
C  C215  1  0.64750931  0.90160566  0.88191239  1  0.027439  0.004451  -0.081479  -0.077964  0.003232  3.962209  0.003
C  C216  1  0.59969996  0.95330898  0.59477691  1  -0.07896  0.004522  -0.084491  -0.091297  0.003348  3.979483  0.003
C  C217  1  0.40030063  0.45330838  0.90522282  1  -0.0797  0.004522  -0.084426  -0.091236  0.003349  3.979484  0.003
C  C218  1  0.40030179  0.04669376  0.40522461  1  -0.079329  0.004521  -0.084445  -0.091279  0.003347  3.979395  0.003
C  C219  1  0.59970025  0.54668975  0.09477352  1  -0.079438  0.004522  -0.084444  -0.091263  0.003348  3.9794  0.003
C  C220  1  0.70617432  0.78991110  0.54719176  1  -0.024631  -0.000179  -0.090989  -0.132936  -0.000343  3.970448  0.0
C  C221  1  0.29382804  0.28990617  0.95280361  1  -0.024756  -0.000179  -0.090991  -0.132857  -0.000343  3.970044  0.0
C  C222  1  0.29382747  0.21009471  0.45280424  1  -0.024781  -0.000178  -0.091005  -0.132886  -0.000343  3.970209  0.0
C  C223  1  0.70617283  0.71009887  0.04719588  1  -0.025205  -0.000178  -0.090991  -0.132854  -0.000343  3.970049  0.0
C  C224  1  0.59004064  0.62529706  0.42537385  1  -0.054132  -0.000462  -0.090637  -0.135434  -0.000533  3.9799  0.0
C  C225  1  0.40996725  0.12529858  0.07462643  1  -0.054204  -0.000462  -0.090646  -0.135538  -0.000533  3.979879  0.0
C  C226  1  0.40997095  0.37470568  0.57462782  1  -0.054197  -0.000463  -0.090581  -0.135381  -0.000533  3.979834  0.0
C  C227  1  0.59003091  0.87470340  0.92537528  1  -0.054061  -0.000462  -0.090614  -0.135533  -0.000533  3.980089  0.0
C  C228  1  0.99084880  0.64644164  0.83342505  1  1.352921  0.028432  0.18836  0.314599  0.026055  4.060689  0.023
C  C229  1  0.00916221  0.14643374  0.66658770  1  1.352609  0.0284  0.188332  0.314685  0.026029  4.060837  0.023
C  C230  1  0.00914576  0.35355880  0.16657922  1  1.35317  0.028408  0.188345  0.314612  0.026036  4.060896  0.023
C  C231  1  0.99085295  0.85356670  0.33341417  1  1.352587  0.028407  0.188389  0.314761  0.026034  4.060821  0.023
C  C232  1  0.95377572  0.59060563  0.92133407  1  0.268488  0.000283  -0.123957  -0.273472  0.000617  3.913418  0.0
C  C233  1  0.04623743  0.09060111  0.57866996  1  0.267333  0.000283  -0.123911  -0.273454  0.000616  3.91348  0.0
C  C234  1  0.04622514  0.40939481  0.07866621  1  0.268464  0.000282  -0.123982  -0.273524  0.000617  3.913516  0.0
C  C235  1  0.95377417  0.90939549  0.42133014  1  0.268255  0.000282  -0.123911  -0.273356  0.000616  3.913383  0.0
C  C236  1  0.87059965  0.49324724  0.84114450  1  0.234807  0.00015  -0.131647  -0.27466  -0.000244  3.865758  0.0
C  C237  1  0.12941325  0.99323379  0.65885802  1  0.235489  0.000149  -0.131444  -0.274286  -0.000244  3.865625  0.0
C  C238  1  0.12940120  0.50675320  0.15885658  1  0.234739  0.000149  -0.131694  -0.274721  -0.000244  3.865793  0.0
C  C239  1  0.87060101  0.00676282  0.34114577  1  0.234616  0.000149  -0.131533  -0.274739  -0.000245  3.865705  0.0
N  N240  1  0.93930542  0.58058823  0.86385904  1  -1.210197  0.021562  -0.273709  0.038169  0.015664  3.724877  0.017
N  N241  1  0.06070960  0.08057744  0.63614190  1  -1.211085  0.021544  -0.273983  0.037724  0.015651  3.724694  0.017
N  N242  1  0.06069276  0.41941221  0.13613951  1  -1.20997  0.02155  -0.273765  0.038042  0.015656  3.724705  0.017
N  N243  1  0.93930738  0.91942069  0.36385810  1  -1.210181  0.021547  -0.273936  0.037858  0.015654  3.724845  0.017
O  O244  1  0.87281609  0.92899435  0.68788549  1  -1.218651  0.101101  -0.312554  -0.60857  0.075923  2.424484  0.044
O  O245  1  0.12717118  0.42899995  0.81211657  1  -1.218636  0.101102  -0.312508  -0.608441  0.07592  2.424426  0.044
O  O246  1  0.12718302  0.07100456  0.31211036  1  -1.218629  0.101115  -0.312486  -0.608577  0.075935  2.424698  0.044
O  O247  1  0.87281893  0.57100048  0.18788390  1  -1.218583  0.101104  -0.312511  -0.608478  0.075921  2.424539  0.044
O  O248  1  0.18627928  0.67554074  0.71159228  1  -1.195953  0.070925  -0.31153  -0.556368  0.046814  2.326456  0.026
O  O249  1  0.81372720  0.17554230  0.78840809  1  -1.196052  0.070925  -0.311524  -0.556424  0.04682  2.326483  0.026
O  O250  1  0.81372428  0.32445510  0.28840618  1  -1.196134  0.070939  -0.311535  -0.55636  0.04682  2.326416  0.026
O  O251  1  0.18627634  0.82445124  0.21159313  1  -1.196045  0.07092  -0.31153  -0.556443  0.046818  2.326483  0.026
O  O252  1  0.03037675  0.75385852  0.66328766  1  -1.196307  0.073981  -0.310809  -0.567429  0.051785  2.320037  0.036
O  O253  1  0.96961681  0.25386842  0.83671105  1  -1.19628  0.07398  -0.310899  -0.567585  0.051785  2.319933  0.036
O  O254  1  0.96962412  0.24613195  0.33671105  1  -1.196339  0.07398  -0.310815  -0.567443  0.051788  2.320151  0.036
O  O255  1  0.03038226  0.74613125  0.16328874  1  -1.196283  0.073975  -0.310835  -0.567539  0.051783  2.31989  0.036
O  O256  1  0.98872007  0.63734676  0.78380963  1  -1.204191  0.06531  -0.282326  -0.511084  0.048335  2.500399  0.017
O  O257  1  0.01128483  0.13734175  0.71618895  1  -1.204038  0.065282  -0.282131  -0.510849  0.048333  2.501464  0.017
O  O258  1  0.01127635  0.36265598  0.21618567  1  -1.204344  0.065298  -0.282273  -0.510951  0.048338  2.500843  0.017
O  O259  1  0.98872052  0.86266252  0.28380961  1  -1.203946  0.065291  -0.282219  -0.510954  0.048333  2.501176  0.017
O  O260  1  0.80506247  0.83399289  0.18273051  1  -1.248015  0.058233  -0.558942  -0.744011  0.042068  2.071463  0.027
O  O261  1  0.19494881  0.33398600  0.31727219  1  -1.248452  0.058233  -0.558849  -0.743677  0.042064  2.071787  0.027
O  O262  1  0.19494196  0.16600908  0.81727076  1  -1.248153  0.058239  -0.558884  -0.743856  0.04207  2.071764  0.027
O  O263  1  0.80505649  0.66600984  0.68273189  1  -1.248127  0.058235  -0.558829  -0.743785  0.042067  2.071671  0.027
O  O264  1  0.77365874  0.54978628  0.29759657  1  -1.200407  0.07131  -0.307401  -0.560539  0.04971  2.331746  0.034
O  O265  1  0.22635400  0.04978937  0.20240415  1  -1.200386  0.07132  -0.307385  -0.560491  0.049706  2.331862  0.034
O  O266  1  0.22635462  0.45022566  0.70240679  1  -1.200619  0.071311  -0.307304  -0.560403  0.049709  2.331944  0.034
O  O267  1  0.77364329  0.95021490  0.79759475  1  -1.200527  0.071316  -0.307313  -0.56042  0.049706  2.332058  0.034
O  O268  1  0.05470382  0.63933718  0.27354673  1  -1.210589  0.06982  -0.303356  -0.5668  0.049385  2.40308  0.028
O  O269  1  0.94528695  0.13934586  0.22645776  1  -1.210658  0.069816  -0.303313  -0.566817  0.049384  2.402882  0.028
O  O270  1  0.94528718  0.36065176  0.72645419  1  -1.210818  0.069819  -0.303348  -0.566759  0.04938  2.402963  0.028
O  O271  1  0.05470944  0.86066455  0.77354109  1  -1.21034  0.069816  -0.303366  -0.566882  0.049383  2.403055  0.028
O  O272  1  0.03438196  0.48568878  0.31181089  1  -1.194946  0.064726  -0.301193  -0.569471  0.045648  2.336898  0.03
O  O273  1  0.96562319  0.98569964  0.18818840  1  -1.195198  0.064725  -0.301105  -0.569429  0.045652  2.336887  0.03
O  O274  1  0.96562067  0.51430476  0.68819147  1  -1.195148  0.064727  -0.301141  -0.569546  0.04565  2.336659  0.03
O  O275  1  0.03437495  0.01431153  0.81181567  1  -1.195057  0.064717  -0.301162  -0.569406  0.045647  2.337011  0.03
O  O276  1  0.74051900  0.05557301  0.68015723  1  -1.164527  0.061822  -0.294193  -0.523164  0.043598  2.16219  0.035
O  O277  1  0.25947918  0.55557474  0.81983875  1  -1.164523  0.061819  -0.294152  -0.523182  0.043603  2.162059  0.035
O  O278  1  0.25949531  0.94442282  0.31983908  1  -1.164796  0.061821  -0.294146  -0.523126  0.0436  2.162032  0.035
O  O279  1  0.74051097  0.44442570  0.18015817  1  -1.164626  0.061825  -0.294182  -0.523191  0.043601  2.162151  0.035
O  O280  1  0.78919892  0.71726378  0.27554233  1  -1.20621  0.062872  -0.322431  -0.596425  0.043569  2.323324  0.027
O  O281  1  0.21079957  0.21726950  0.22445575  1  -1.206294  0.062871  -0.322326  -0.596355  0.043566  2.323616  0.027
O  O282  1  0.21079748  0.28274126  0.72445692  1  -1.2061  0.06287  -0.322294  -0.596212  0.043567  2.323681  0.027
O  O283  1  0.78921379  0.78273171  0.77554839  1  -1.206146  0.062872  -0.322368  -0.5963  0.043566  2.323357  0.027
