# generated using pymatgen
data_KH8C13SN2(OF)3
_symmetry_space_group_name_H-M   'P 1'
_cell_length_a   6.31331676
_cell_length_b   12.72030425
_cell_length_c   18.43300000
_cell_angle_alpha   90.00000000
_cell_angle_beta   90.00000000
_cell_angle_gamma   97.42082145
_symmetry_Int_Tables_number   1
_chemical_formula_structural   KH8C13SN2(OF)3
_chemical_formula_sum   'K4 H32 C52 S4 N8 O12 F12'
_cell_volume   1467.90604685
_cell_formula_units_Z   4
loop_
 _symmetry_equiv_pos_site_id
 _symmetry_equiv_pos_as_xyz
  1  'x, y, z'
loop_
 _atom_site_type_symbol
 _atom_site_label
 _atom_site_symmetry_multiplicity
 _atom_site_fract_x
 _atom_site_fract_y
 _atom_site_fract_z
 _atom_site_occupancy
 _atom_site_hle17_bader_spin_density
 _atom_site_hle17_ddec_charge
 _atom_site_hle17_ddec_spin_density
 _atom_site_hle17_ddec_sum_bond_order
 _atom_site_hle17_magmom
 _atom_site_hse06_10hf_bader_spin_density
 _atom_site_hse06_10hf_ddec_charge
 _atom_site_hse06_10hf_ddec_spin_density
 _atom_site_hse06_10hf_ddec_sum_bond_order
 _atom_site_hse06_10hf_magmom
 _atom_site_hse06_bader_spin_density
 _atom_site_hse06_ddec_charge
 _atom_site_hse06_ddec_spin_density
 _atom_site_hse06_ddec_sum_bond_order
 _atom_site_hse06_magmom
 _atom_site_pbe_bader_charge
 _atom_site_pbe_bader_spin_density
 _atom_site_pbe_cm5_charge
 _atom_site_pbe_ddec_charge
 _atom_site_pbe_ddec_spin_density
 _atom_site_pbe_ddec_sum_bond_order
 _atom_site_pbe_magmom
K  K0  1  0.22163145  0.14436612  0.51507893  1  0  0.902495  0  0.492845  0  0  0.839598  0  0.690335  0  0  0.854305  0  0.668883  0  0.878957  0  0.809657  0.828783  0  0.705485  0
K  K1  1  0.27835079  0.85562970  0.01507948  1  0  0.902542  0  0.492789  0  0  0.839619  0  0.690284  0  0  0.854295  0  0.668878  0  0.878912  0  0.809652  0.828802  0  0.705433  0
K  K2  1  0.77836634  0.85563366  0.48491998  1  0  0.902514  0  0.492819  0  0  0.839615  0  0.690294  0  0  0.85431  0  0.668864  0  0.878926  0  0.809656  0.828795  0  0.705447  0
K  K3  1  0.72163088  0.14436295  0.98491022  1  0  0.902557  0  0.492761  0  0  0.839602  0  0.69031  0  0  0.85431  0  0.668846  0  0.878895  0  0.809634  0.828783  0  0.705461  0
H  H4  1  0.57532817  0.63749891  0.62445126  1  0  0.104864  0  0.937768  0  0  0.115091  0  0.998675  0  0  0.118337  0  0.995915  0  0.120759  0  0.109421  0.112738  0  1.000642  0
H  H5  1  0.92463992  0.36249532  0.12445831  1  0  0.104884  0  0.937655  0  0  0.115106  0  0.998577  0  0  0.11835  0  0.995816  0  0.120673  0  0.109385  0.112751  0  1.000548  0
H  H6  1  0.42466032  0.36250167  0.37555091  1  0  0.104866  0  0.937752  0  0  0.115083  0  0.998668  0  0  0.118328  0  0.995905  0  0.120691  0  0.109388  0.11273  0  1.000637  0
H  H7  1  0.07536021  0.63750129  0.87554603  1  0  0.104878  0  0.937704  0  0  0.115093  0  0.998634  0  0  0.118338  0  0.995873  0  0.120786  0  0.1094  0.112738  0  1.000605  0
H  H8  1  0.23642631  0.59695193  0.55415776  1  0  0.113093  0  0.978456  0  0  0.121942  0  1.041427  0  0  0.125432  0  1.039759  0  0.144702  0  0.104239  0.11946  0  1.042659  0
H  H9  1  0.26354423  0.40304151  0.05416536  1  0  0.113012  0  0.978615  0  0  0.121915  0  1.041507  0  0  0.125406  0  1.039833  0  0.14499  0  0.104208  0.119423  0  1.042766  0
H  H10  1  0.76356693  0.40304865  0.44584224  1  0  0.113028  0  0.978455  0  0  0.121871  0  1.041446  0  0  0.125359  0  1.039782  0  0.144754  0  0.104212  0.119391  0  1.042672  0
H  H11  1  0.73645453  0.59695589  0.94583681  1  0  0.112951  0  0.97858  0  0  0.121824  0  1.041532  0  0  0.125313  0  1.039861  0  0.145044  0  0.104147  0.119331  0  1.042791  0
H  H12  1  0.10884356  0.40741531  0.52198177  1  0  0.075268  0  0.932745  0  0  0.08679  0  0.992199  0  0  0.089076  0  0.990443  0  0.08419  0  0.114612  0.085209  0  0.993457  0
H  H13  1  0.39113386  0.59257417  0.02198774  1  0  0.075285  0  0.932891  0  0  0.086806  0  0.992333  0  0  0.089091  0  0.99058  0  0.08416  0  0.114686  0.085229  0  0.993582  0
H  H14  1  0.89114293  0.59258369  0.47801931  1  0  0.075231  0  0.932825  0  0  0.08681  0  0.992218  0  0  0.089097  0  0.990462  0  0.083986  0  0.114627  0.08523  0  0.993475  0
H  H15  1  0.60887419  0.40742244  0.97801714  1  0  0.075312  0  0.932867  0  0  0.08679  0  0.992357  0  0  0.089075  0  0.990607  0  0.084141  0  0.114644  0.085213  0  0.993606  0
H  H16  1  0.88920774  0.57152494  0.68351489  1  0  0.102285  0  0.952496  0  0  0.110444  0  1.015541  0  0  0.113862  0  1.013301  0  0.099734  0  0.09913  0.108101  0  1.017044  0
H  H17  1  0.61076593  0.42847247  0.18352086  1  0  0.102208  0  0.952559  0  0  0.110387  0  1.015586  0  0  0.113811  0  1.013344  0  0.099839  0  0.099108  0.108042  0  1.017094  0
H  H18  1  0.11078013  0.42847326  0.31648836  1  0  0.102262  0  0.952479  0  0  0.110441  0  1.015504  0  0  0.113855  0  1.013269  0  0.099704  0  0.099125  0.108101  0  1.017014  0
H  H19  1  0.38923958  0.57152653  0.81648294  1  0  0.102226  0  0.952515  0  0  0.110419  0  1.015538  0  0  0.113837  0  1.0133  0  0.099839  0  0.099082  0.108073  0  1.017046  0
H  H20  1  0.11451809  0.22917904  0.71576141  1  0  0.097264  0  0.959812  0  0  0.107218  0  1.023344  0  0  0.109168  0  1.023593  0  0.080916  0  0.106891  0.105738  0  1.023313  0
H  H21  1  0.38546243  0.77082233  0.21575652  1  0  0.097245  0  0.959816  0  0  0.107204  0  1.023339  0  0  0.109173  0  1.023572  0  0.080763  0  0.106857  0.105724  0  1.023311  0
H  H22  1  0.88548108  0.77081996  0.28424239  1  0  0.09725  0  0.959724  0  0  0.107184  0  1.023284  0  0  0.109138  0  1.02353  0  0.080945  0  0.106873  0.105704  0  1.023256  0
H  H23  1  0.61453357  0.22917666  0.78424022  1  0  0.097231  0  0.959942  0  0  0.107192  0  1.023467  0  0  0.109161  0  1.02369  0  0.080766  0  0.106864  0.105712  0  1.023437  0
H  H24  1  0.94531768  0.04404396  0.68819400  1  0  0.108758  0  0.957825  0  0  0.115616  0  1.020268  0  0  0.119067  0  1.018881  0  0.118893  0  0.105702  0.113127  0  1.021378  0
H  H25  1  0.55467520  0.95595425  0.18819508  1  0  0.108622  0  0.957997  0  0  0.115459  0  1.020476  0  0  0.118946  0  1.019049  0  0.11877  0  0.105625  0.113005  0  1.02155  0
H  H26  1  0.05469416  0.95595504  0.31180383  1  0  0.108678  0  0.957896  0  0  0.115516  0  1.020394  0  0  0.118983  0  1.018969  0  0.118942  0  0.105686  0.113044  0  1.021464  0
H  H27  1  0.44532238  0.04404475  0.81180003  1  0  0.108674  0  0.957934  0  0  0.11553  0  1.020382  0  0  0.11898  0  1.019002  0  0.118759  0  0.105682  0.113043  0  1.021492  0
H  H28  1  0.59030430  0.01844176  0.62567406  1  0  0.074987  0  0.954125  0  0  0.082128  0  1.020661  0  0  0.085245  0  1.017323  0  0.084926  0  0.115292  0.07984  0  1.023079  0
H  H29  1  0.90970545  0.98156040  0.12568274  1  0  0.074934  0  0.95418  0  0  0.082064  0  1.020739  0  0  0.085191  0  1.017378  0  0.085052  0  0.115223  0.079783  0  1.023142  0
H  H30  1  0.40970995  0.98156040  0.37432377  1  0  0.074963  0  0.954139  0  0  0.082145  0  1.020647  0  0  0.085268  0  1.017297  0  0.084872  0  0.115293  0.079863  0  1.023054  0
H  H31  1  0.09029929  0.01844176  0.87431509  1  0  0.074809  0  0.954129  0  0  0.081994  0  1.020634  0  0  0.085109  0  1.017298  0  0.084812  0  0.115188  0.079705  0  1.023055  0
H  H32  1  0.08829615  0.42252737  0.71523680  1  0  0.095318  0  0.969315  0  0  0.105217  0  1.032581  0  0  0.107121  0  1.034102  0  0.090652  0  0.099318  0.103934  0  1.031519  0
H  H33  1  0.41167666  0.57747479  0.21523789  1  0  0.095347  0  0.969345  0  0  0.105217  0  1.032637  0  0  0.107121  0  1.034161  0  0.0902  0  0.099324  0.103935  0  1.03157  0
H  H34  1  0.91169076  0.57747321  0.28476754  1  0  0.095317  0  0.969314  0  0  0.105209  0  1.032604  0  0  0.107112  0  1.034127  0  0.090304  0  0.099308  0.103927  0  1.031538  0
H  H35  1  0.58832471  0.42252658  0.78476103  1  0  0.095306  0  0.969381  0  0  0.105176  0  1.03267  0  0  0.107079  0  1.034193  0  0.090544  0  0.099292  0.103892  0  1.031605  0
C  C36  1  0.88014660  0.18291053  0.33117561  1  0  0.592505  0  3.678496  0  0  0.522717  0  4.048234  0  0  0.550938  0  4.020331  0  1.660781  0  0.288977  0.502553  0  4.068276  0
C  C37  1  0.61985640  0.81709005  0.83117235  1  0  0.592681  0  3.678069  0  0  0.52273  0  4.048063  0  0  0.550953  0  4.02017  0  1.660734  0  0.288948  0.502577  0  4.068083  0
C  C38  1  0.11986710  0.81709560  0.66882548  1  0  0.592486  0  3.678456  0  0  0.522815  0  4.047982  0  0  0.551046  0  4.020063  0  1.660724  0  0.288976  0.502576  0  4.06817  0
C  C39  1  0.38013560  0.18290577  0.16882819  1  0  0.59238  0  3.678353  0  0  0.522344  0  4.048517  0  0  0.550669  0  4.020413  0  1.660736  0  0.288877  0.502246  0  4.068424  0
C  C40  1  0.54051910  0.36685564  0.61105680  1  0  0.131366  0  3.736179  0  0  0.130641  0  3.975318  0  0  0.134211  0  3.996219  0  0.438992  0  0.114786  0.128377  0  3.960968  0
C  C41  1  0.95946070  0.63314097  0.11105897  1  0  0.131265  0  3.735905  0  0  0.130643  0  3.975021  0  0  0.134144  0  3.996018  0  0.438623  0  0.114791  0.128424  0  3.960605  0
C  C42  1  0.45947807  0.63314177  0.38894374  1  0  0.131344  0  3.736112  0  0  0.130762  0  3.975218  0  0  0.134265  0  3.996211  0  0.439262  0  0.114827  0.128498  0  3.960863  0
C  C43  1  0.04054047  0.36685960  0.88894157  1  0  0.131446  0  3.735778  0  0  0.130719  0  3.975058  0  0  0.134221  0  3.996055  0  0.438528  0  0.114821  0.1285  0  3.96064  0
C  C44  1  0.62803164  0.47212320  0.63069983  1  0  0.017612  0  3.801729  0  0  0.033005  0  4.032484  0  0  0.030459  0  4.058275  0  -0.024472  0  -0.005456  0.034683  0  4.014862  0
C  C45  1  0.87194795  0.52787262  0.13070580  1  0  0.017525  0  3.801736  0  0  0.032944  0  4.03242  0  0  0.030418  0  4.058226  0  -0.024407  0  -0.00554  0.034607  0  4.014788  0
C  C46  1  0.37195444  0.52787421  0.36930125  1  0  0.017771  0  3.801381  0  0  0.032905  0  4.032437  0  0  0.030379  0  4.058242  0  -0.024904  0  -0.0055  0.034583  0  4.014815  0
C  C47  1  0.12805459  0.47212716  0.86930017  1  0  0.01764  0  3.80149  0  0  0.033033  0  4.032295  0  0  0.030507  0  4.058101  0  -0.024402  0  -0.005497  0.034697  0  4.014662  0
C  C48  1  0.51389270  0.55599587  0.61008843  1  0  -0.052139  0  3.688936  0  0  -0.075515  0  3.937094  0  0  -0.074414  0  3.955917  0  -0.043973  0  -0.065667  -0.076026  0  3.924064  0
C  C49  1  0.98608056  0.44399995  0.11009711  1  0  -0.052394  0  3.688831  0  0  -0.075766  0  3.937036  0  0  -0.07466  0  3.955852  0  -0.043946  0  -0.065806  -0.076275  0  3.924006  0
C  C50  1  0.48610089  0.44399995  0.38991483  1  0  -0.052264  0  3.688846  0  0  -0.075546  0  3.937065  0  0  -0.074442  0  3.955886  0  -0.043744  0  -0.065675  -0.076057  0  3.924035  0
C  C51  1  0.01391882  0.55599984  0.88990886  1  0  -0.052204  0  3.688803  0  0  -0.075559  0  3.936991  0  0  -0.074457  0  3.955813  0  -0.043914  0  -0.065715  -0.076069  0  3.92396  0
C  C52  1  0.32659232  0.53383595  0.57122660  1  0  -0.118036  0  3.739194  0  0  -0.134243  0  3.994758  0  0  -0.140518  0  4.016865  0  -0.068542  0  -0.086955  -0.130081  0  3.979906  0
C  C53  1  0.17338690  0.46615432  0.07123528  1  0  -0.117767  0  3.739144  0  0  -0.134006  0  3.994686  0  0  -0.140276  0  4.01679  0  -0.068677  0  -0.086789  -0.129847  0  3.979833  0
C  C54  1  0.67340092  0.46616463  0.42877340  1  0  -0.117997  0  3.739007  0  0  -0.1342  0  3.994585  0  0  -0.140476  0  4.016697  0  -0.068491  0  -0.086955  -0.130037  0  3.979732  0
C  C55  1  0.82661482  0.53384229  0.92876797  1  0  -0.117902  0  3.739216  0  0  -0.134112  0  3.994736  0  0  -0.140384  0  4.016846  0  -0.068756  0  -0.086863  -0.129951  0  3.97988  0
C  C56  1  0.25540940  0.42759089  0.55338578  1  0  0.131498  0  3.756913  0  0  0.106198  0  4.019213  0  0  0.112683  0  4.03634  0  0.518851  0  0.048184  0.101953  0  4.007896  0
C  C57  1  0.24458015  0.57240256  0.05339174  1  0  0.131415  0  3.756892  0  0  0.106096  0  4.019246  0  0  0.112582  0  4.036365  0  0.518945  0  0.048051  0.101851  0  4.007934  0
C  C58  1  0.74458033  0.57241445  0.44661639  1  0  0.131543  0  3.756795  0  0  0.106182  0  4.019132  0  0  0.11267  0  4.036247  0  0.519186  0  0.048185  0.101936  0  4.007818  0
C  C59  1  0.75542515  0.42759565  0.94661260  1  0  0.13155  0  3.756967  0  0  0.106275  0  4.019263  0  0  0.112761  0  4.036381  0  0.519019  0  0.0482  0.10203  0  4.007949  0
C  C60  1  0.82603629  0.49028986  0.66931048  1  0  -0.106035  0  3.754493  0  0  -0.125263  0  4.00673  0  0  -0.12834  0  4.028059  0  -0.030496  0  -0.087276  -0.123144  0  3.992275  0
C  C61  1  0.67393896  0.50970754  0.16931373  1  0  -0.105701  0  3.754445  0  0  -0.124962  0  4.006651  0  0  -0.128038  0  4.027978  0  -0.030387  0  -0.087063  -0.122842  0  3.992195  0
C  C62  1  0.17394566  0.50970992  0.33069278  1  0  -0.106042  0  3.75458  0  0  -0.125211  0  4.006869  0  0  -0.128288  0  4.028199  0  -0.030212  0  -0.087233  -0.123098  0  3.992419  0
C  C63  1  0.32606716  0.49029383  0.83068952  1  0  -0.105955  0  3.754556  0  0  -0.125231  0  4.006821  0  0  -0.128311  0  4.028151  0  -0.030428  0  -0.087163  -0.12311  0  3.992365  0
C  C64  1  0.65222258  0.27885256  0.63277817  1  0  0.138853  0  3.738509  0  0  0.136342  0  3.980081  0  0  0.140688  0  4.000002  0  0.51178  0  0.120468  0.133417  0  3.966626  0
C  C65  1  0.84776734  0.72114643  0.13278034  1  0  0.138871  0  3.738312  0  0  0.136101  0  3.98021  0  0  0.140468  0  4.000141  0  0.511511  0  0.120353  0.133169  0  3.966737  0
C  C66  1  0.34777817  0.72114643  0.36722183  1  0  0.138694  0  3.73873  0  0  0.136153  0  3.980393  0  0  0.140519  0  4.000329  0  0.511922  0  0.120401  0.133235  0  3.966924  0
C  C67  1  0.15223899  0.27885573  0.86721912  1  0  0.138678  0  3.738335  0  0  0.136  0  3.980247  0  0  0.140364  0  4.000179  0  0.511539  0  0.120308  0.133069  0  3.966773  0
C  C68  1  0.85161487  0.30116470  0.66974828  1  0  0.013259  0  3.79263  0  0  0.029578  0  4.024929  0  0  0.027016  0  4.047985  0  -0.025267  0  -0.003311  0.031133  0  4.009614  0
C  C69  1  0.64837367  0.69883509  0.16975153  1  0  0.01316  0  3.792439  0  0  0.029546  0  4.024779  0  0  0.026986  0  4.047832  0  -0.025113  0  -0.003288  0.031103  0  4.00946  0
C  C70  1  0.14838829  0.69883747  0.33025498  1  0  0.013326  0  3.79265  0  0  0.02953  0  4.025125  0  0  0.026966  0  4.048181  0  -0.025248  0  -0.003365  0.031089  0  4.009803  0
C  C71  1  0.35162846  0.30116311  0.83024738  1  0  0.013401  0  3.792292  0  0  0.029656  0  4.02478  0  0  0.027095  0  4.047831  0  -0.025055  0  -0.00321  0.031209  0  4.009465  0
C  C72  1  0.95974590  0.21449825  0.68884012  1  0  -0.055323  0  3.70664  0  0  -0.080247  0  3.955973  0  0  -0.077748  0  3.974479  0  -0.057041  0  -0.06605  -0.081611  0  3.943365  0
C  C73  1  0.54024423  0.78550154  0.18883958  1  0  -0.055235  0  3.706524  0  0  -0.080156  0  3.955796  0  0  -0.07767  0  3.974322  0  -0.056831  0  -0.066001  -0.081521  0  3.943195  0
C  C74  1  0.04025823  0.78550154  0.31116150  1  0  -0.055281  0  3.706586  0  0  -0.08014  0  3.955928  0  0  -0.077642  0  3.97444  0  -0.057089  0  -0.06601  -0.081506  0  3.943324  0
C  C75  1  0.45976086  0.21449587  0.81115608  1  0  -0.055251  0  3.706604  0  0  -0.080135  0  3.955898  0  0  -0.077644  0  3.974417  0  -0.057057  0  -0.066032  -0.0815  0  3.943292  0
C  C76  1  0.86721382  0.11249934  0.67346824  1  0  -0.134389  0  3.751297  0  0  -0.143533  0  3.998342  0  0  -0.150502  0  4.020114  0  -0.031589  0  -0.086265  -0.138946  0  3.983503  0
C  C77  1  0.63278368  0.88750441  0.17347312  1  0  -0.134296  0  3.751314  0  0  -0.143463  0  3.998351  0  0  -0.150424  0  4.020105  0  -0.031722  0  -0.086231  -0.138869  0  3.983489  0
C  C78  1  0.13279127  0.88749807  0.32653014  1  0  -0.134264  0  3.751431  0  0  -0.143426  0  3.998528  0  0  -0.150377  0  4.02026  0  -0.031565  0  -0.086237  -0.138822  0  3.983649  0
C  C79  1  0.36721831  0.11249934  0.82652634  1  0  -0.134446  0  3.751409  0  0  -0.1436  0  3.998468  0  0  -0.15057  0  4.020245  0  -0.03155  0  -0.086312  -0.139013  0  3.98363  0
C  C80  1  0.66759022  0.09839808  0.63804264  1  0  0.128421  0  3.738176  0  0  0.10419  0  3.996214  0  0  0.110463  0  4.012871  0  0.544126  0  0.054082  0.100229  0  3.98473  0
C  C81  1  0.83241299  0.90160329  0.13804915  1  0  0.128438  0  3.738167  0  0  0.104226  0  3.99615  0  0  0.110503  0  4.012803  0  0.543986  0  0.054101  0.100269  0  3.984662  0
C  C82  1  0.33241866  0.90160171  0.36195519  1  0  0.128428  0  3.738157  0  0  0.104159  0  3.996196  0  0  0.110439  0  4.012835  0  0.543992  0  0.054078  0.100204  0  3.984698  0
C  C83  1  0.16759196  0.09839966  0.86194814  1  0  0.128694  0  3.738225  0  0  0.104452  0  3.9962  0  0  0.110726  0  4.012861  0  0.54429  0  0.054217  0.100491  0  3.984716  0
C  C84  1  0.93524853  0.40805826  0.68720827  1  0  -0.102518  0  3.767323  0  0  -0.125425  0  4.022551  0  0  -0.127919  0  4.045391  0  -0.100631  0  -0.089095  -0.123606  0  4.007369  0
C  C85  1  0.56473175  0.59194629  0.18721152  1  0  -0.102651  0  3.767303  0  0  -0.125534  0  4.022534  0  0  -0.12803  0  4.045377  0  -0.100536  0  -0.089176  -0.123714  0  4.00735  0
C  C86  1  0.06474513  0.59194391  0.31279553  1  0  -0.102556  0  3.767516  0  0  -0.125417  0  4.022753  0  0  -0.127911  0  4.045595  0  -0.100532  0  -0.089071  -0.123601  0  4.007573  0
C  C87  1  0.43527162  0.40805667  0.81278848  1  0  -0.102586  0  3.767319  0  0  -0.125411  0  4.022563  0  0  -0.127905  0  4.045406  0  -0.100825  0  -0.089117  -0.123592  0  4.007379  0
S  S88  1  0.76431042  0.16129604  0.42387457  1  0  1.135939  0  5.862625  0  0  1.036544  0  6.401712  0  0  1.080336  0  6.380633  0  3.27967  0  0.468444  1.006439  0  6.415533  0
S  S89  1  0.73567854  0.83870533  0.92387729  1  0  1.13574  0  5.862781  0  0  1.036363  0  6.401918  0  0  1.080166  0  6.380815  0  3.279684  0  0.468338  1.006255  0  6.415723  0
S  S90  1  0.23570025  0.83870454  0.57612326  1  0  1.135811  0  5.862689  0  0  1.036399  0  6.40176  0  0  1.080187  0  6.380669  0  3.279721  0  0.468389  1.006306  0  6.41559  0
S  S91  1  0.26431354  0.16129683  0.07612271  1  0  1.135949  0  5.862541  0  0  1.036555  0  6.401723  0  0  1.080401  0  6.380516  0  3.279825  0  0.46854  1.006499  0  6.415432  0
N  N92  1  0.35620186  0.34633520  0.57268432  1  0  -0.387244  0  3.145921  0  0  -0.350577  0  3.4171  0  0  -0.362855  0  3.43328  0  -1.213192  0  -0.399677  -0.342247  0  3.406334  0
N  N93  1  0.14378651  0.65365983  0.07268811  1  0  -0.38715  0  3.145753  0  0  -0.350482  0  3.416895  0  0  -0.362737  0  3.433099  0  -1.21296  0  -0.399591  -0.342164  0  3.406111  0
N  N94  1  0.64379593  0.65366459  0.42731406  1  0  -0.38719  0  3.146165  0  0  -0.350533  0  3.417332  0  0  -0.362788  0  3.433531  0  -1.213466  0  -0.39965  -0.342201  0  3.406562  0
N  N95  1  0.85621720  0.34633837  0.92731406  1  0  -0.387345  0  3.145856  0  0  -0.350639  0  3.417016  0  0  -0.362898  0  3.433221  0  -1.213091  0  -0.39963  -0.34232  0  3.406232  0
N  N96  1  0.56374590  0.17814589  0.61754137  1  0  -0.381516  0  3.125732  0  0  -0.346011  0  3.396968  0  0  -0.357762  0  3.412271  0  -1.200666  0  -0.384136  -0.338018  0  3.386529  0
N  N97  1  0.93625924  0.82185072  0.11754679  1  0  -0.381447  0  3.125715  0  0  -0.345862  0  3.396983  0  0  -0.357608  0  3.412281  0  -1.200253  0  -0.384006  -0.337871  0  3.386545  0
N  N98  1  0.43626614  0.82185389  0.38245429  1  0  -0.381457  0  3.12583  0  0  -0.345939  0  3.397092  0  0  -0.357687  0  3.41239  0  -1.200682  0  -0.384069  -0.337949  0  3.386653  0
N  N99  1  0.06374861  0.17814510  0.88245050  1  0  -0.381507  0  3.125711  0  0  -0.345912  0  3.396977  0  0  -0.357662  0  3.412277  0  -1.200337  0  -0.384065  -0.337923  0  3.386539  0
O  O100  1  0.87763654  0.24851585  0.46565833  1  0  -0.623769  0  1.994447  0  0  -0.590559  0  2.244156  0  0  -0.609033  0  2.232797  0  -1.329558  0  -0.371452  -0.577523  0  2.251491  0
O  O101  1  0.62236254  0.75148790  0.96565725  1  0  -0.623685  0  1.994756  0  0  -0.590458  0  2.244444  0  0  -0.608928  0  2.233079  0  -1.329564  0  -0.371387  -0.577419  0  2.251778  0
O  O102  1  0.12235629  0.75148314  0.53434058  1  0  -0.623841  0  1.99431  0  0  -0.590646  0  2.244029  0  0  -0.609115  0  2.232663  0  -1.329572  0  -0.371507  -0.577608  0  2.25136  0
O  O103  1  0.37765928  0.24851902  0.03434221  1  0  -0.623812  0  1.994339  0  0  -0.590613  0  2.244043  0  0  -0.609082  0  2.232666  0  -1.329656  0  -0.371506  -0.577574  0  2.251368  0
O  O104  1  0.82461364  0.05754270  0.44336245  1  0  -0.695148  0  2.021198  0  0  -0.654205  0  2.276515  0  0  -0.673719  0  2.263646  0  -1.345103  0  -0.450097  -0.640411  0  2.284974  0
O  O105  1  0.67537015  0.94245708  0.94336028  1  0  -0.695104  0  2.021376  0  0  -0.654157  0  2.276726  0  0  -0.67367  0  2.263849  0  -1.345173  0  -0.45009  -0.640362  0  2.285182  0
O  O106  1  0.17539683  0.94245708  0.55662941  1  0  -0.695023  0  2.021141  0  0  -0.654101  0  2.276498  0  0  -0.673617  0  2.263636  0  -1.345074  0  -0.450038  -0.640307  0  2.284952  0
O  O107  1  0.32461834  0.05754350  0.05662996  1  0  -0.695179  0  2.021107  0  0  -0.65425  0  2.276463  0  0  -0.673737  0  2.263538  0  -1.345188  0  -0.450105  -0.640433  0  2.284865  0
O  O108  1  0.53640790  0.16402243  0.41336136  1  0  -0.625766  0  1.986511  0  0  -0.591722  0  2.237526  0  0  -0.610032  0  2.223282  0  -1.322606  0  -0.392745  -0.578799  0  2.246855  0
O  O109  1  0.96359972  0.83598370  0.91335974  1  0  -0.625753  0  1.986153  0  0  -0.591733  0  2.237218  0  0  -0.610015  0  2.222923  0  -1.322476  0  -0.392736  -0.578807  0  2.246554  0
O  O110  1  0.46359079  0.83596864  0.58663864  1  0  -0.625663  0  1.98679  0  0  -0.591594  0  2.237757  0  0  -0.609906  0  2.223526  0  -1.322667  0  -0.392684  -0.578673  0  2.247095  0
O  O111  1  0.03641742  0.16402956  0.08663158  1  0  -0.625726  0  1.986577  0  0  -0.591672  0  2.237594  0  0  -0.609969  0  2.223312  0  -1.32248  0  -0.392761  -0.578738  0  2.246887  0
F  F112  1  0.82656847  0.27318018  0.30086855  1  0  -0.227215  0  1.19166  0  0  -0.184628  0  1.35244  0  0  -0.19559  0  1.33881  0  -0.615036  0  -0.090638  -0.177972  0  1.36344  0
F  F113  1  0.67343928  0.72682040  0.80086584  1  0  -0.227236  0  1.191474  0  0  -0.184586  0  1.352278  0  0  -0.195608  0  1.338713  0  -0.615067  0  -0.090552  -0.17793  0  1.363272  0
F  F114  1  0.17343028  0.72681722  0.69912765  1  0  -0.227129  0  1.191498  0  0  -0.184633  0  1.352265  0  0  -0.195674  0  1.338702  0  -0.615032  0  -0.090576  -0.177963  0  1.363296  0
F  F115  1  0.32656408  0.27318256  0.19912819  1  0  -0.227129  0  1.191456  0  0  -0.184589  0  1.352344  0  0  -0.195636  0  1.338801  0  -0.61499  0  -0.090559  -0.177874  0  1.363309  0
F  F116  1  0.81285042  0.10070112  0.28638963  1  0  -0.226433  0  1.200739  0  0  -0.185771  0  1.366313  0  0  -0.195574  0  1.351005  0  -0.616289  0  -0.089116  -0.178395  0  1.376769  0
F  F117  1  0.68715279  0.89930025  0.78638800  1  0  -0.226463  0  1.200755  0  0  -0.185704  0  1.366303  0  0  -0.195537  0  1.351066  0  -0.616356  0  -0.089101  -0.178373  0  1.376825  0
F  F118  1  0.18718187  0.89930343  0.71361146  1  0  -0.226479  0  1.200901  0  0  -0.185763  0  1.366349  0  0  -0.195516  0  1.351014  0  -0.616482  0  -0.08912  -0.178368  0  1.376852  0
F  F119  1  0.31282041  0.10069636  0.21361363  1  0  -0.226365  0  1.20083  0  0  -0.185151  0  1.365895  0  0  -0.195364  0  1.351062  0  -0.616502  0  -0.089026  -0.178229  0  1.376866  0
F  F120  1  0.09700565  0.19187217  0.33530787  1  0  -0.228258  0  1.199821  0  0  -0.195625  0  1.375488  0  0  -0.204385  0  1.358758  0  -0.633441  0  -0.091264  -0.188938  0  1.386985  0
F  F121  1  0.40299567  0.80813000  0.83529973  1  0  -0.22832  0  1.199714  0  0  -0.195619  0  1.375415  0  0  -0.20441  0  1.358712  0  -0.633335  0  -0.091321  -0.188969  0  1.386931  0
F  F122  1  0.90300639  0.80814585  0.66469972  1  0  -0.228297  0  1.199826  0  0  -0.195664  0  1.375435  0  0  -0.204462  0  1.358723  0  -0.63323  0  -0.091326  -0.188998  0  1.386986  0
F  F123  1  0.59699785  0.19185948  0.16470406  1  0  -0.228272  0  1.199826  0  0  -0.195621  0  1.37556  0  0  -0.204352  0  1.358809  0  -0.633299  0  -0.091318  -0.18891  0  1.387047  0
