# generated using pymatgen
data_CdH14(C3O)2
_symmetry_space_group_name_H-M   'P 1'
_cell_length_a   4.24976365
_cell_length_b   13.01854071
_cell_length_c   14.80423814
_cell_angle_alpha   90.00000395
_cell_angle_beta   89.99987646
_cell_angle_gamma   90.00017130
_symmetry_Int_Tables_number   1
_chemical_formula_structural   CdH14(C3O)2
_chemical_formula_sum   'Cd4 H56 C24 O8'
_cell_volume   819.05515095
_cell_formula_units_Z   4
loop_
 _symmetry_equiv_pos_site_id
 _symmetry_equiv_pos_as_xyz
  1  'x, y, z'
loop_
 _atom_site_type_symbol
 _atom_site_label
 _atom_site_symmetry_multiplicity
 _atom_site_fract_x
 _atom_site_fract_y
 _atom_site_fract_z
 _atom_site_occupancy
 _atom_site_hle17_bader_spin_density
 _atom_site_hle17_ddec_charge
 _atom_site_hle17_ddec_spin_density
 _atom_site_hle17_ddec_sum_bond_order
 _atom_site_hle17_magmom
 _atom_site_hse06_10hf_bader_spin_density
 _atom_site_hse06_10hf_ddec_charge
 _atom_site_hse06_10hf_ddec_spin_density
 _atom_site_hse06_10hf_ddec_sum_bond_order
 _atom_site_hse06_10hf_magmom
 _atom_site_hse06_bader_spin_density
 _atom_site_hse06_ddec_charge
 _atom_site_hse06_ddec_spin_density
 _atom_site_hse06_ddec_sum_bond_order
 _atom_site_hse06_magmom
 _atom_site_pbe_bader_spin_density
 _atom_site_pbe_cm5_charge
 _atom_site_pbe_ddec_charge
 _atom_site_pbe_ddec_spin_density
 _atom_site_pbe_ddec_sum_bond_order
 _atom_site_pbe_magmom
Cd  Cd0  1  0.04769880  0.74999961  0.37550194  1  0  0.802141  0  1.760036  0  0  0.676711  0  2.155995  0  0  0.711683  0  2.129952  0  0  0.487456  0.652689  0  2.173261  0
Cd  Cd1  1  0.95230353  0.25000009  0.62449723  1  0  0.802134  0  1.760027  0  0  0.676703  0  2.155984  0  0  0.711676  0  2.129938  0  0  0.487475  0.652685  0  2.173247  0
Cd  Cd2  1  0.04769745  0.25000040  0.12449745  1  0  0.802149  0  1.76002  0  0  0.676717  0  2.155982  0  0  0.711692  0  2.129938  0  0  0.487475  0.652702  0  2.173243  0
Cd  Cd3  1  0.95230253  0.75000008  0.87550239  1  0  0.802147  0  1.760032  0  0  0.676718  0  2.155997  0  0  0.711685  0  2.129949  0  0  0.487462  0.652703  0  2.173238  0
H  H4  1  0.82258305  0.84463655  0.18170179  1  0  0.056175  0  0.937818  0  0  0.06873  0  1.008651  0  0  0.069576  0  1.007544  0  0  0.096725  0.067981  0  1.009691  0
H  H5  1  0.17741544  0.34463629  0.81829738  1  0  0.056206  0  0.937813  0  0  0.068747  0  1.008647  0  0  0.069596  0  1.007537  0  0  0.096713  0.067994  0  1.009683  0
H  H6  1  0.82258409  0.15536268  0.31829779  1  0  0.056199  0  0.937804  0  0  0.068756  0  1.008634  0  0  0.069604  0  1.007526  0  0  0.096726  0.068008  0  1.009673  0
H  H7  1  0.17741267  0.65536389  0.68170205  1  0  0.056204  0  0.937801  0  0  0.068748  0  1.008631  0  0  0.069598  0  1.007523  0  0  0.096721  0.068001  0  1.009674  0
H  H8  1  0.17741693  0.15536239  0.81829805  1  0  0.056193  0  0.937818  0  0  0.068768  0  1.008631  0  0  0.069617  0  1.007521  0  0  0.096727  0.06802  0  1.00967  0
H  H9  1  0.82258454  0.65536265  0.18170179  1  0  0.05618  0  0.937807  0  0  0.068735  0  1.008638  0  0  0.069582  0  1.007531  0  0  0.09673  0.067988  0  1.00968  0
H  H10  1  0.17741353  0.84464010  0.68170138  1  0  0.056161  0  0.93783  0  0  0.068686  0  1.008687  0  0  0.06953  0  1.007583  0  0  0.096712  0.067937  0  1.009727  0
H  H11  1  0.82258495  0.34463658  0.31829780  1  0  0.056205  0  0.937798  0  0  0.06875  0  1.008628  0  0  0.069599  0  1.00752  0  0  0.096734  0.068007  0  1.009668  0
H  H12  1  0.45835356  0.90628307  0.20900692  1  0  0.065459  0  0.950988  0  0  0.081188  0  1.012599  0  0  0.081553  0  1.012435  0  0  0.104435  0.080829  0  1.012906  0
H  H13  1  0.54164784  0.40628393  0.79099293  1  0  0.065461  0  0.950995  0  0  0.081181  0  1.012604  0  0  0.081549  0  1.012443  0  0  0.104427  0.080816  0  1.012904  0
H  H14  1  0.45835189  0.09371581  0.29099356  1  0  0.065453  0  0.951004  0  0  0.081187  0  1.012611  0  0  0.081551  0  1.012448  0  0  0.104431  0.080829  0  1.012913  0
H  H15  1  0.54164430  0.59371891  0.70900628  1  0  0.065464  0  0.95091  0  0  0.081188  0  1.01252  0  0  0.081554  0  1.012359  0  0  0.104445  0.080826  0  1.012835  0
H  H16  1  0.54164641  0.09371587  0.79099360  1  0  0.065471  0  0.950979  0  0  0.081202  0  1.012588  0  0  0.081567  0  1.012426  0  0  0.104434  0.080839  0  1.012903  0
H  H17  1  0.45835448  0.59371578  0.20900692  1  0  0.065452  0  0.950986  0  0  0.081181  0  1.012592  0  0  0.081547  0  1.012429  0  0  0.104431  0.080818  0  1.012909  0
H  H18  1  0.54164573  0.90628543  0.70900764  1  0  0.065436  0  0.951002  0  0  0.081171  0  1.012605  0  0  0.081535  0  1.01244  0  0  0.104414  0.08081  0  1.01291  0
H  H19  1  0.45835332  0.40628310  0.29099357  1  0  0.065428  0  0.950963  0  0  0.081148  0  1.012575  0  0  0.081515  0  1.012414  0  0  0.104421  0.080789  0  1.012888  0
H  H20  1  0.57641017  0.90673555  0.03997016  1  0  0.077632  0  0.925383  0  0  0.095749  0  0.981188  0  0  0.095647  0  0.982188  0  0  0.109142  0.095737  0  0.980618  0
H  H21  1  0.42359124  0.40673631  0.96002969  1  0  0.077668  0  0.925348  0  0  0.095773  0  0.981145  0  0  0.09567  0  0.982146  0  0  0.109157  0.09576  0  0.980576  0
H  H22  1  0.57640958  0.09326344  0.46002958  1  0  0.077656  0  0.92537  0  0  0.095764  0  0.981162  0  0  0.09566  0  0.982163  0  0  0.109148  0.095753  0  0.980592  0
H  H23  1  0.42359366  0.59326718  0.53996891  1  0  0.077641  0  0.925397  0  0  0.095754  0  0.981189  0  0  0.09565  0  0.98219  0  0  0.109166  0.095742  0  0.980621  0
H  H24  1  0.42358980  0.09326339  0.96002969  1  0  0.077633  0  0.92538  0  0  0.095751  0  0.981183  0  0  0.095648  0  0.982184  0  0  0.109137  0.095738  0  0.980615  0
H  H25  1  0.57640874  0.59326340  0.03997015  1  0  0.07765  0  0.925349  0  0  0.095775  0  0.981154  0  0  0.095672  0  0.982154  0  0  0.109151  0.095764  0  0.980586  0
H  H26  1  0.42359745  0.90674087  0.53997027  1  0  0.077627  0  0.925293  0  0  0.095747  0  0.98111  0  0  0.095644  0  0.982111  0  0  0.109125  0.095736  0  0.980539  0
H  H27  1  0.57640866  0.40673636  0.46002958  1  0  0.077676  0  0.925339  0  0  0.095783  0  0.981137  0  0  0.09568  0  0.982136  0  0  0.109164  0.095774  0  0.980564  0
H  H28  1  0.21498027  0.84361309  0.06786161  1  0  0.053778  0  0.943641  0  0  0.064855  0  1.017381  0  0  0.065796  0  1.016069  0  0  0.096047  0.064045  0  1.01853  0
H  H29  1  0.78502292  0.34361343  0.93213824  1  0  0.053773  0  0.943634  0  0  0.064831  0  1.017377  0  0  0.065772  0  1.016066  0  0  0.096042  0.064021  0  1.018529  0
H  H30  1  0.21498046  0.15638555  0.43213903  1  0  0.053788  0  0.943625  0  0  0.064842  0  1.017366  0  0  0.065783  0  1.016055  0  0  0.096039  0.064034  0  1.018517  0
H  H31  1  0.78501865  0.65638964  0.56786149  1  0  0.053802  0  0.943615  0  0  0.064857  0  1.017359  0  0  0.065797  0  1.016049  0  0  0.096056  0.064048  0  1.018509  0
H  H32  1  0.78502441  0.15638661  0.93213891  1  0  0.053776  0  0.94361  0  0  0.064843  0  1.017364  0  0  0.065785  0  1.016052  0  0  0.096035  0.064035  0  1.018516  0
H  H33  1  0.21497941  0.65638550  0.06786160  1  0  0.053776  0  0.943623  0  0  0.064856  0  1.017376  0  0  0.065796  0  1.016065  0  0  0.096047  0.064049  0  1.018521  0
H  H34  1  0.78502657  0.84361570  0.56786217  1  0  0.053748  0  0.943634  0  0  0.064816  0  1.017394  0  0  0.065758  0  1.016083  0  0  0.096034  0.064008  0  1.018541  0
H  H35  1  0.21497897  0.34361314  0.43213836  1  0  0.053786  0  0.943636  0  0  0.064851  0  1.017372  0  0  0.065792  0  1.016061  0  0  0.096049  0.064044  0  1.01852  0
H  H36  1  0.03255742  0.94551384  0.44376213  1  0  0.117629  0  1.059862  0  0  0.137654  0  1.11915  0  0  0.139516  0  1.122005  0  0  0.056907  0.136288  0  1.117238  0
H  H37  1  0.96744435  0.44551433  0.55623840  1  0  0.11763  0  1.059874  0  0  0.137656  0  1.119158  0  0  0.139519  0  1.122012  0  0  0.056905  0.136291  0  1.117245  0
H  H38  1  0.03255714  0.05448462  0.05623794  1  0  0.117621  0  1.059878  0  0  0.137648  0  1.119164  0  0  0.139511  0  1.122019  0  0  0.056906  0.136286  0  1.117247  0
H  H39  1  0.96744339  0.55448432  0.94376189  1  0  0.117634  0  1.059877  0  0  0.137664  0  1.119158  0  0  0.139527  0  1.122012  0  0  0.056903  0.136299  0  1.117242  0
H  H40  1  0.96744256  0.05448510  0.55623771  1  0  0.117613  0  1.059886  0  0  0.137639  0  1.119176  0  0  0.139502  0  1.12203  0  0  0.056901  0.136275  0  1.117262  0
H  H41  1  0.03255798  0.55448384  0.44376212  1  0  0.117622  0  1.059894  0  0  0.137649  0  1.119178  0  0  0.139512  0  1.122032  0  0  0.056898  0.136288  0  1.117258  0
H  H42  1  0.96744283  0.94551509  0.94376258  1  0  0.117657  0  1.059868  0  0  0.137684  0  1.119145  0  0  0.139547  0  1.121999  0  0  0.056915  0.136322  0  1.117231  0
H  H43  1  0.03255658  0.44551539  0.05623795  1  0  0.117628  0  1.059874  0  0  0.137655  0  1.119161  0  0  0.139518  0  1.122014  0  0  0.05691  0.136296  0  1.11724  0
H  H44  1  0.81071400  0.94162131  0.34198968  1  0  0.124549  0  1.044421  0  0  0.146688  0  1.099616  0  0  0.147607  0  1.104267  0  0  0.059423  0.145999  0  1.096423  0
H  H45  1  0.18928538  0.44162105  0.65801017  1  0  0.124568  0  1.044411  0  0  0.146716  0  1.099588  0  0  0.147634  0  1.104238  0  0  0.059431  0.146027  0  1.096395  0
H  H46  1  0.81071535  0.05837714  0.15801058  1  0  0.124552  0  1.044415  0  0  0.146696  0  1.0996  0  0  0.147615  0  1.10425  0  0  0.05942  0.146006  0  1.096409  0
H  H47  1  0.18928522  0.55837761  0.84198993  1  0  0.124545  0  1.044437  0  0  0.146689  0  1.099626  0  0  0.147606  0  1.104277  0  0  0.059425  0.145997  0  1.096436  0
H  H48  1  0.18928598  0.05837840  0.65801016  1  0  0.124547  0  1.044436  0  0  0.146691  0  1.099624  0  0  0.147609  0  1.104275  0  0  0.059428  0.146002  0  1.096433  0
H  H49  1  0.81071460  0.55837789  0.34198967  1  0  0.124548  0  1.044436  0  0  0.146691  0  1.099626  0  0  0.14761  0  1.104275  0  0  0.059428  0.146002  0  1.096435  0
H  H50  1  0.18928698  0.94162179  0.84198994  1  0  0.124562  0  1.044432  0  0  0.146707  0  1.099616  0  0  0.147625  0  1.104265  0  0  0.059425  0.146017  0  1.096427  0
H  H51  1  0.81071240  0.44162133  0.15801059  1  0  0.124535  0  1.044435  0  0  0.146675  0  1.099631  0  0  0.147591  0  1.104287  0  0  0.059414  0.145983  0  1.096445  0
H  H52  1  0.22861813  0.94646258  0.33777553  1  0  0.120183  0  1.051038  0  0  0.140906  0  1.108359  0  0  0.142568  0  1.111527  0  0  0.056664  0.139663  0  1.106306  0
H  H53  1  0.77138364  0.44646212  0.66222500  1  0  0.120195  0  1.050987  0  0  0.140919  0  1.108308  0  0  0.142578  0  1.111479  0  0  0.056669  0.139678  0  1.106251  0
H  H54  1  0.22861706  0.05353684  0.16222510  1  0  0.12019  0  1.051008  0  0  0.140911  0  1.108335  0  0  0.142572  0  1.111503  0  0  0.056665  0.139669  0  1.106277  0
H  H55  1  0.77138347  0.55353634  0.83777474  1  0  0.120188  0  1.051004  0  0  0.140917  0  1.10832  0  0  0.142577  0  1.11149  0  0  0.056665  0.139672  0  1.106268  0
H  H56  1  0.77138419  0.05353713  0.66222499  1  0  0.120194  0  1.051006  0  0  0.140917  0  1.108327  0  0  0.142577  0  1.111496  0  0  0.056667  0.139675  0  1.106271  0
H  H57  1  0.22861634  0.55353682  0.33777484  1  0  0.120196  0  1.051  0  0  0.140924  0  1.108319  0  0  0.142584  0  1.111487  0  0  0.056668  0.139679  0  1.106268  0
H  H58  1  0.77138292  0.94646287  0.83777542  1  0  0.120211  0  1.050981  0  0  0.140933  0  1.108303  0  0  0.142594  0  1.111472  0  0  0.056668  0.13969  0  1.106254  0
H  H59  1  0.22862121  0.44646337  0.16222578  1  0  0.120168  0  1.050994  0  0  0.140891  0  1.108322  0  0  0.142551  0  1.111492  0  0  0.056657  0.139649  0  1.106268  0
C  C60  1  0.56445106  0.84053919  0.17408311  1  0  0.038308  0  3.666491  0  0  -0.021149  0  3.938104  0  0  -0.014582  0  3.943022  0  0  -0.08142  -0.025614  0  3.934754  0
C  C61  1  0.43555210  0.34053841  0.82591674  1  0  0.038183  0  3.666629  0  0  -0.021255  0  3.938193  0  0  -0.014693  0  3.943116  0  0  -0.081458  -0.025693  0  3.93481  0
C  C62  1  0.56444972  0.15945979  0.32591731  1  0  0.038213  0  3.666459  0  0  -0.021275  0  3.938084  0  0  -0.014711  0  3.943002  0  0  -0.081453  -0.025737  0  3.934731  0
C  C63  1  0.43554472  0.65946202  0.67408185  1  0  0.038191  0  3.666487  0  0  -0.021227  0  3.938055  0  0  -0.014671  0  3.942985  0  0  -0.081457  -0.025696  0  3.934715  0
C  C64  1  0.43554892  0.15945975  0.82591674  1  0  0.03821  0  3.666565  0  0  -0.021274  0  3.938204  0  0  -0.014708  0  3.943123  0  0  -0.081447  -0.025734  0  3.934855  0
C  C65  1  0.56445258  0.65945976  0.17408310  1  0  0.03829  0  3.666526  0  0  -0.021154  0  3.938138  0  0  -0.014588  0  3.943055  0  0  -0.08143  -0.025615  0  3.934789  0
C  C66  1  0.43554790  0.84054299  0.67408253  1  0  0.038267  0  3.666448  0  0  -0.021152  0  3.938054  0  0  -0.014575  0  3.942964  0  0  -0.081405  -0.02561  0  3.934699  0
C  C67  1  0.56445055  0.34053846  0.32591664  1  0  0.038234  0  3.666575  0  0  -0.021191  0  3.938129  0  0  -0.014632  0  3.943051  0  0  -0.081456  -0.025662  0  3.934784  0
C  C68  1  0.47326989  0.84059138  0.07508851  1  0  0.041367  0  3.649755  0  0  -0.018138  0  3.919984  0  0  -0.011652  0  3.925217  0  0  -0.080205  -0.022496  0  3.916343  0
C  C69  1  0.52673092  0.34059146  0.92491201  1  0  0.041336  0  3.649777  0  0  -0.018112  0  3.919923  0  0  -0.011622  0  3.925154  0  0  -0.080211  -0.022475  0  3.91628  0
C  C70  1  0.47326781  0.15940752  0.42491264  1  0  0.041327  0  3.649669  0  0  -0.01811  0  3.919819  0  0  -0.011621  0  3.925053  0  0  -0.080205  -0.022464  0  3.91618  0
C  C71  1  0.52672663  0.65941059  0.57508788  1  0  0.04126  0  3.649852  0  0  -0.018185  0  3.920025  0  0  -0.011692  0  3.925259  0  0  -0.080281  -0.022544  0  3.916392  0
C  C72  1  0.52673009  0.15940910  0.92491133  1  0  0.041394  0  3.649764  0  0  -0.01811  0  3.92  0  0  -0.011621  0  3.92523  0  0  -0.08019  -0.022468  0  3.916363  0
C  C73  1  0.47327141  0.65940747  0.07508850  1  0  0.041337  0  3.649759  0  0  -0.0182  0  3.920027  0  0  -0.011712  0  3.925261  0  0  -0.08024  -0.02256  0  3.916388  0
C  C74  1  0.52673216  0.84059373  0.57508788  1  0  0.041367  0  3.649598  0  0  -0.018126  0  3.919848  0  0  -0.01164  0  3.925078  0  0  -0.080206  -0.022481  0  3.916204  0
C  C75  1  0.47327099  0.34059065  0.42491197  1  0  0.041313  0  3.649785  0  0  -0.01815  0  3.919947  0  0  -0.011659  0  3.925179  0  0  -0.080213  -0.022505  0  3.916308  0
C  C76  1  0.02699487  0.91477690  0.37474676  1  0  -0.755609  0  3.590257  0  0  -0.772547  0  3.824682  0  0  -0.792588  0  3.83495  0  0  -0.424699  -0.758621  0  3.817421  0
C  C77  1  0.97300661  0.41477740  0.62525309  1  0  -0.755652  0  3.59022  0  0  -0.772602  0  3.824637  0  0  -0.79264  0  3.834906  0  0  -0.424727  -0.758675  0  3.817376  0
C  C78  1  0.02699436  0.08522232  0.12525332  1  0  -0.755613  0  3.59023  0  0  -0.772556  0  3.824655  0  0  -0.792598  0  3.834923  0  0  -0.424702  -0.758633  0  3.817389  0
C  C79  1  0.97300410  0.58522202  0.87474652  1  0  -0.755625  0  3.590253  0  0  -0.772581  0  3.824668  0  0  -0.792618  0  3.834937  0  0  -0.424712  -0.758654  0  3.817411  0
C  C80  1  0.97300510  0.08522203  0.62525308  1  0  -0.755608  0  3.590255  0  0  -0.772555  0  3.824679  0  0  -0.792593  0  3.834948  0  0  -0.424709  -0.758628  0  3.817418  0
C  C81  1  0.02699572  0.58522230  0.37474675  1  0  -0.755634  0  3.590268  0  0  -0.772584  0  3.824686  0  0  -0.792624  0  3.834956  0  0  -0.424711  -0.758657  0  3.817424  0
C  C82  1  0.97300561  0.91477662  0.87474720  1  0  -0.755701  0  3.590246  0  0  -0.772646  0  3.82467  0  0  -0.792683  0  3.834935  0  0  -0.424721  -0.758721  0  3.817415  0
C  C83  1  0.02699352  0.41477615  0.12525333  1  0  -0.755597  0  3.590223  0  0  -0.772541  0  3.824672  0  0  -0.792582  0  3.83494  0  0  -0.4247  -0.758616  0  3.817412  0
O  O84  1  0.44837814  0.74999980  0.21876021  1  0  -0.341017  0  2.27108  0  0  -0.264244  0  2.530515  0  0  -0.281172  0  2.530152  0  0  -0.237136  -0.25216  0  2.530272  0
O  O85  1  0.55162419  0.24999990  0.78123963  1  0  -0.34091  0  2.27109  0  0  -0.264141  0  2.53051  0  0  -0.281074  0  2.530155  0  0  -0.237076  -0.252066  0  2.530259  0
O  O86  1  0.44837561  0.25000060  0.28124028  1  0  -0.340925  0  2.271105  0  0  -0.264165  0  2.530526  0  0  -0.28109  0  2.530168  0  0  -0.237093  -0.252083  0  2.530286  0
O  O87  1  0.55161965  0.75000064  0.71876092  1  0  -0.340884  0  2.27095  0  0  -0.264149  0  2.530363  0  0  -0.28108  0  2.530004  0  0  -0.237094  -0.252066  0  2.53012  0
O  O88  1  0.40961717  0.75000210  0.53058106  1  0  -0.339903  0  2.278034  0  0  -0.26022  0  2.53662  0  0  -0.277275  0  2.535836  0  0  -0.236274  -0.248049  0  2.536644  0
O  O89  1  0.59038281  0.24999991  0.46941945  1  0  -0.339974  0  2.27803  0  0  -0.260274  0  2.536576  0  0  -0.27733  0  2.535789  0  0  -0.236319  -0.248105  0  2.5366  0
O  O90  1  0.40961794  0.24999984  0.96941890  1  0  -0.340018  0  2.278079  0  0  -0.260291  0  2.53664  0  0  -0.27735  0  2.535852  0  0  -0.236326  -0.248124  0  2.536664  0
O  O91  1  0.59038203  0.74999910  0.03058095  1  0  -0.340019  0  2.278037  0  0  -0.260277  0  2.53663  0  0  -0.277331  0  2.535842  0  0  -0.236314  -0.248104  0  2.536651  0
