# generated using pymatgen
data_Al4H15C37NO20
_symmetry_space_group_name_H-M   'P 1'
_cell_length_a   6.69110111
_cell_length_b   18.19471750
_cell_length_c   20.81788090
_cell_angle_alpha   107.92689223
_cell_angle_beta   90.29804819
_cell_angle_gamma   89.87462546
_symmetry_Int_Tables_number   1
_chemical_formula_structural   Al4H15C37NO20
_chemical_formula_sum   'Al4 H15 C37 N1 O20'
_cell_volume   2411.34559592
_cell_formula_units_Z   1
loop_
 _symmetry_equiv_pos_site_id
 _symmetry_equiv_pos_as_xyz
  1  'x, y, z'
loop_
 _atom_site_type_symbol
 _atom_site_label
 _atom_site_symmetry_multiplicity
 _atom_site_fract_x
 _atom_site_fract_y
 _atom_site_fract_z
 _atom_site_occupancy
 _atom_site_pbe_bader_charge
 _atom_site_pbe_bader_spin_density
 _atom_site_pbe_cm5_charge
 _atom_site_pbe_ddec_charge
 _atom_site_pbe_ddec_spin_density
 _atom_site_pbe_ddec_sum_bond_order
 _atom_site_pbe_magmom
Al  Al0  1  0.13347009  0.49986764  0.49727644  1  2.501498  0  0.406621  1.646539  0  2.575872  0
Al  Al1  1  0.63412081  0.50091635  0.49789879  1  2.504226  0  0.405675  1.645935  0  2.577122  0
Al  Al2  1  0.63857636  0.99995335  0.99824487  1  2.502848  0  0.407212  1.649475  0  2.572881  0
Al  Al3  1  0.13862762  0.99997750  0.99803228  1  2.504271  0  0.407169  1.648609  0  2.575115  0
H  H4  1  0.19618301  0.75740389  0.17795400  1  0.073717  0  0.110244  0.120883  0  0.995463  0
H  H5  1  0.59715931  0.82853369  0.24483143  1  0.089941  0  0.106521  0.116828  0  0.997698  0
H  H6  1  0.61559469  0.74738506  0.32192071  1  0.083091  0  0.108881  0.111485  0  0.998598  0
H  H7  1  0.70991665  0.29242462  0.71172323  1  0.091249  0  0.109756  0.110972  0  0.999225  0
H  H8  1  0.71011249  0.21236455  0.79005169  1  0.064507  0  0.110424  0.111686  0  0.998916  0
H  H9  1  0.06656238  0.20857059  0.78593379  1  0.079807  0  0.11031  0.111751  0  0.999108  0
H  H10  1  0.06628689  0.28859853  0.70758732  1  0.076521  0  0.109808  0.110801  0  1.000158  0
H  H11  1  0.36568496  0.67940108  0.22222259  1  0.447068  0  0.31378  0.251496  0  0.955536  0
H  H12  1  0.47345213  0.60470537  0.28287327  1  0.052913  0  0.109364  0.118325  0  0.99089  0
H  H13  1  0.22501589  0.57224667  0.28807503  1  0.081435  0  0.106369  0.121186  0  0.978655  0
H  H14  1  0.31454086  0.65704955  0.34948912  1  0.062177  0  0.104674  0.116085  0  0.979752  0
H  H15  1  0.38195174  0.60102769  0.53060499  1  0.638427  0  0.360858  0.442881  0  0.835003  0
H  H16  1  0.88299340  0.40725244  0.50444833  1  0.627696  0  0.359356  0.441415  0  0.837812  0
H  H17  1  0.38883126  0.90640243  0.00361229  1  0.626197  0  0.360305  0.442138  0  0.835074  0
H  H18  1  0.88835916  0.10144085  0.01919253  1  0.632111  0  0.363114  0.445689  0  0.82945  0
C  C19  1  0.38570939  0.39542781  0.39341092  1  1.69686  0  0.278848  0.702017  0  4.175545  0
C  C20  1  0.38421163  0.42154913  0.57315725  1  1.670562  0  0.274731  0.719726  0  4.156911  0
C  C21  1  0.88414038  0.60684027  0.60274425  1  1.690536  0  0.277202  0.709454  0  4.169476  0
C  C22  1  0.88320295  0.57788775  0.42252410  1  1.670742  0  0.271207  0.714989  0  4.175666  0
C  C23  1  0.06878613  0.75443380  0.20957137  1  -0.001596  0  -0.091163  -0.240205  0  3.91448  0
C  C24  1  0.89693720  0.79656746  0.20568645  1  0.08969  0  0.001556  0.150432  0  4.148897  0
C  C25  1  0.72961823  0.79431998  0.24663317  1  -0.047434  0  -0.105033  -0.177878  0  4.013614  0
C  C26  1  0.74088428  0.74938900  0.28920368  1  -0.056446  0  -0.083704  -0.107786  0  4.019804  0
C  C27  1  0.91267419  0.70509064  0.29334736  1  0.122677  0  -0.014653  0.011437  0  4.064545  0
C  C28  1  0.08356101  0.70798511  0.25284460  1  0.461197  0  0.117974  0.209027  0  4.052187  0
C  C29  1  0.89208852  0.84133728  0.16079741  1  -0.472056  0  -0.016876  -0.017852  0  4.071745  0
C  C30  1  0.90420465  0.66021932  0.33767018  1  -0.310025  0  -0.02085  -0.013838  0  4.134174  0
C  C31  1  0.88423908  0.62241313  0.37657840  1  -0.009493  0  -0.045165  -0.222776  0  3.963491  0
C  C32  1  0.89063699  0.87915636  0.12162580  1  0.193594  0  -0.03956  -0.200099  0  3.952898  0
C  C33  1  0.88730321  0.83270437  0.83091731  1  0.222499  0  0.002006  -0.138288  0  3.837643  0
C  C34  1  0.88749342  0.77955030  0.77793042  1  -0.275283  0  -0.004712  0.03022  0  4.2308  0
C  C35  1  0.88724299  0.72100658  0.71933771  1  -0.390044  0  -0.003656  0.037539  0  4.233476  0
C  C36  1  0.88689483  0.66805804  0.66620853  1  0.245207  0  -0.005376  -0.152137  0  3.84776  0
C  C37  1  0.38597877  0.33343165  0.33039611  1  0.151014  0  -9.8e-05  -0.142695  0  3.840764  0
C  C38  1  0.38733329  0.28005035  0.27755911  1  -0.219498  0  -0.004229  0.032515  0  4.231939  0
C  C39  1  0.38840453  0.22131335  0.21908113  1  -0.372202  0  -0.005392  0.033094  0  4.234228  0
C  C40  1  0.38921973  0.16829489  0.16599579  1  0.24626  0  -0.0028  -0.145866  0  3.843903  0
C  C41  1  0.57007532  0.22938407  0.77173616  1  -0.030918  0  -0.073087  -0.112143  0  3.946598  0
C  C42  1  0.38832391  0.20533450  0.79301394  1  0.124048  0  0.009095  0.133632  0  4.099045  0
C  C43  1  0.20644216  0.22728763  0.76944467  1  -0.013141  0  -0.073136  -0.112301  0  3.946009  0
C  C44  1  0.20631930  0.27166834  0.72597186  1  -0.030056  0  -0.073046  -0.112375  0  3.946996  0
C  C45  1  0.38807029  0.29557985  0.70454165  1  0.094086  0  0.008589  0.133428  0  4.097062  0
C  C46  1  0.56994081  0.27378735  0.72826564  1  -0.012823  0  -0.07331  -0.113058  0  3.945985  0
C  C47  1  0.38821813  0.16013441  0.83744621  1  -0.306912  0  -0.020295  -0.034527  0  4.085453  0
C  C48  1  0.38765800  0.34016721  0.65956640  1  -0.29704  0  -0.020254  -0.033396  0  4.084796  0
C  C49  1  0.38637431  0.37801941  0.62040409  1  0.020661  0  -0.035385  -0.187613  0  3.948179  0
C  C50  1  0.38758492  0.12145587  0.87591667  1  0.031897  0  -0.031575  -0.183632  0  3.944455  0
C  C51  1  0.38821030  0.07688118  0.92229741  1  1.681468  0  0.277241  0.719122  0  4.160328  0
C  C52  1  0.38868881  0.10693550  0.10255467  1  1.699867  0  0.276425  0.706115  0  4.172395  0
C  C53  1  0.88913324  0.92244999  0.07433298  1  1.683236  0  0.275644  0.722753  0  4.15633  0
C  C54  1  0.88839367  0.89445307  0.89410708  1  1.699735  0  0.279973  0.704787  0  4.173241  0
C  C55  1  0.31911438  0.62356314  0.29565068  1  0.290549  0  -0.131452  -0.217093  0  3.958966  0
N  N56  1  0.25816567  0.66905949  0.25240492  1  -1.227534  0  -0.431381  -0.268899  0  3.613357  0
O  O57  1  0.55380071  0.43695300  0.55272301  1  -1.238105  0  -0.231713  -0.593198  0  2.28024  0
O  O58  1  0.21571478  0.41729368  0.41940611  1  -1.233828  0  -0.220727  -0.567732  0  2.283822  0
O  O59  1  0.05391900  0.55698644  0.43843111  1  -1.236193  0  -0.229804  -0.584546  0  2.2836  0
O  O60  1  0.21269574  0.43965042  0.55562515  1  -1.231655  0  -0.231977  -0.591747  0  2.276995  0
O  O61  1  0.05351716  0.58447251  0.57608822  1  -1.231856  0  -0.227534  -0.584987  0  2.280495  0
O  O62  1  0.55580528  0.42145145  0.41708016  1  -1.22545  0  -0.219498  -0.564538  0  2.285574  0
O  O63  1  0.38303093  0.54622604  0.50633902  1  -1.437267  0  -0.446289  -0.998297  0  2.193229  0
O  O64  1  0.71230422  0.58199282  0.57946571  1  -1.227012  0  -0.226447  -0.582309  0  2.279615  0
O  O65  1  0.71410698  0.56355825  0.44407717  1  -1.240281  0  -0.232874  -0.590264  0  2.289303  0
O  O66  1  0.88355414  0.45456149  0.49223717  1  -1.426272  0  -0.445976  -0.995887  0  2.186598  0
O  O67  1  0.21757611  0.08269712  0.07816216  1  -1.234147  0  -0.226427  -0.58112  0  2.280975  0
O  O68  1  0.55871056  0.05870185  0.94027157  1  -1.232162  0  -0.22679  -0.581689  0  2.284942  0
O  O69  1  0.71860149  0.91727784  0.91981918  1  -1.229  0  -0.221598  -0.569547  0  2.282859  0
O  O70  1  0.55901561  0.08406834  0.07709752  1  -1.230986  0  -0.225937  -0.580753  0  2.281232  0
O  O71  1  0.71807722  0.94042249  0.05632509  1  -1.239132  0  -0.231036  -0.592543  0  2.281755  0
O  O72  1  0.21853902  0.06061400  0.94178868  1  -1.234127  0  -0.226542  -0.581774  0  2.28485  0
O  O73  1  0.38865930  0.95444102  0.99258841  1  -1.42523  0  -0.445386  -0.996931  0  2.187558  0
O  O74  1  0.05874090  0.93797789  0.05397730  1  -1.24161  0  -0.231016  -0.592509  0  2.279686  0
O  O75  1  0.05932149  0.91904282  0.91809504  1  -1.22872  0  -0.221055  -0.568197  0  2.282828  0
O  O76  1  0.88848583  0.04553479  0.00557051  1  -1.430555  0  -0.446119  -1.00144  0  2.200732  0
