# generated using pymatgen
data_FeP2H38(C9O)4
_symmetry_space_group_name_H-M   'P 1'
_cell_length_a   8.30571668
_cell_length_b   9.87478142
_cell_length_c   10.29511982
_cell_angle_alpha   75.90698914
_cell_angle_beta   86.55656938
_cell_angle_gamma   65.95676555
_symmetry_Int_Tables_number   1
_chemical_formula_structural   FeP2H38(C9O)4
_chemical_formula_sum   'Fe1 P2 H38 C36 O4'
_cell_volume   747.17674285
_cell_formula_units_Z   1
loop_
 _symmetry_equiv_pos_site_id
 _symmetry_equiv_pos_as_xyz
  1  'x, y, z'
loop_
 _atom_site_type_symbol
 _atom_site_label
 _atom_site_symmetry_multiplicity
 _atom_site_fract_x
 _atom_site_fract_y
 _atom_site_fract_z
 _atom_site_occupancy
 _atom_site_hle17_bader_spin_density
 _atom_site_hle17_ddec_charge
 _atom_site_hle17_ddec_spin_density
 _atom_site_hle17_ddec_sum_bond_order
 _atom_site_hle17_magmom
 _atom_site_hse06_10hf_bader_spin_density
 _atom_site_hse06_10hf_ddec_charge
 _atom_site_hse06_10hf_ddec_spin_density
 _atom_site_hse06_10hf_ddec_sum_bond_order
 _atom_site_hse06_10hf_magmom
 _atom_site_hse06_bader_spin_density
 _atom_site_hse06_ddec_charge
 _atom_site_hse06_ddec_spin_density
 _atom_site_hse06_ddec_sum_bond_order
 _atom_site_hse06_magmom
 _atom_site_pbe_bader_spin_density
 _atom_site_pbe_cm5_charge
 _atom_site_pbe_ddec_charge
 _atom_site_pbe_ddec_spin_density
 _atom_site_pbe_ddec_sum_bond_order
 _atom_site_pbe_magmom
Fe  Fe0  1  0.50000006  0.50000165  0.49999905  1  0  0.238137  0  2.960002  0  0  0.253147  0  3.410237  0  0  0.311887  0  3.341473  0  0  0.477855  0.220191  0  3.451243  0
P  P1  1  0.22689396  0.53159488  0.58475183  1  0  0.447827  0  3.51464  0  0  0.352951  0  3.957531  0  0  0.363243  0  3.943502  0  0  0.026083  0.344142  0  3.966513  0
P  P2  1  0.77311257  0.46840494  0.41524683  1  0  0.447862  0  3.51451  0  0  0.352978  0  3.957398  0  0  0.363265  0  3.943377  0  0  0.026105  0.34417  0  3.96637  0
H  H3  1  0.62802954  0.57509820  0.87953890  1  0  0.116509  0  0.977249  0  0  0.128493  0  1.036141  0  0  0.131346  0  1.038481  0  0  0.091377  0.126801  0  1.034295  0
H  H4  1  0.37196750  0.42490628  0.12046486  1  0  0.116467  0  0.977371  0  0  0.128459  0  1.036249  0  0  0.131311  0  1.038591  0  0  0.091351  0.126765  0  1.034402  0
H  H5  1  0.55264951  0.90426310  0.60878808  1  0  0.124467  0  0.95975  0  0  0.144149  0  1.021807  0  0  0.14711  0  1.020298  0  0  0.094923  0.141918  0  1.0231  0
H  H6  1  0.44733985  0.09574257  0.39121081  1  0  0.124516  0  0.959696  0  0  0.144132  0  1.021832  0  0  0.147095  0  1.020321  0  0  0.094921  0.141901  0  1.023125  0
H  H7  1  0.59953156  0.82261238  0.78397330  1  0  0.117217  0  0.954472  0  0  0.138535  0  1.013464  0  0  0.139757  0  1.014201  0  0  0.091223  0.137874  0  1.012705  0
H  H8  1  0.40045829  0.17740011  0.21602401  1  0  0.117205  0  0.954425  0  0  0.138564  0  1.013357  0  0  0.139787  0  1.014093  0  0  0.091273  0.137903  0  1.012597  0
H  H9  1  0.37868658  0.90151765  0.71615860  1  0  0.12366  0  0.955926  0  0  0.143065  0  1.01984  0  0  0.145553  0  1.019804  0  0  0.095475  0.141501  0  1.019368  0
H  H10  1  0.62130591  0.09848913  0.28383896  1  0  0.12359  0  0.955897  0  0  0.142988  0  1.019834  0  0  0.145476  0  1.019799  0  0  0.095439  0.14142  0  1.019366  0
H  H11  1  0.61300124  0.21798049  0.92761342  1  0  0.125402  0  0.949597  0  0  0.146148  0  1.0094  0  0  0.148542  0  1.009245  0  0  0.094253  0.14432  0  1.009595  0
H  H12  1  0.38699182  0.78202513  0.07238244  1  0  0.125409  0  0.949695  0  0  0.14615  0  1.009486  0  0  0.148543  0  1.009331  0  0  0.094261  0.144326  0  1.009681  0
H  H13  1  0.69303852  0.32912803  0.99729553  1  0  0.112563  0  0.970786  0  0  0.134036  0  1.031887  0  0  0.135228  0  1.032197  0  0  0.090089  0.133302  0  1.03152  0
H  H14  1  0.30695915  0.67087529  0.00270361  1  0  0.112561  0  0.970823  0  0  0.13404  0  1.031919  0  0  0.135233  0  1.032227  0  0  0.090083  0.133307  0  1.031551  0
H  H15  1  0.83360836  0.20034030  0.90310196  1  0  0.12167  0  0.946709  0  0  0.141825  0  1.008513  0  0  0.144615  0  1.007438  0  0  0.094682  0.139697  0  1.009403  0
H  H16  1  0.16638828  0.79966530  0.09689572  1  0  0.121634  0  0.946707  0  0  0.141782  0  1.008528  0  0  0.144575  0  1.007449  0  0  0.094649  0.139655  0  1.009415  0
H  H17  1  0.05123203  0.60453574  0.38203208  1  0  0.105736  0  0.951366  0  0  0.124678  0  1.005803  0  0  0.125246  0  1.007858  0  0  0.102088  0.124115  0  1.004519  0
H  H18  1  0.94877039  0.39545959  0.61797456  1  0  0.105677  0  0.95134  0  0  0.12463  0  1.005793  0  0  0.125197  0  1.00785  0  0  0.102065  0.124069  0  1.004508  0
H  H19  1  0.16745700  0.40644398  0.43430481  1  0  0.102814  0  0.973536  0  0  0.11951  0  1.034127  0  0  0.120048  0  1.036044  0  0  0.100728  0.118835  0  1.033063  0
H  H20  1  0.83254446  0.59355362  0.56569746  1  0  0.102801  0  0.973531  0  0  0.119492  0  1.034129  0  0  0.12003  0  1.036046  0  0  0.100739  0.118818  0  1.033068  0
H  H21  1  0.99865853  0.54380371  0.82087203  1  0  0.083071  0  0.984506  0  0  0.092613  0  1.050595  0  0  0.094642  0  1.051088  0  0  0.096814  0.091297  0  1.050037  0
H  H22  1  0.00134937  0.45619042  0.17912984  1  0  0.083016  0  0.984451  0  0  0.092551  0  1.050558  0  0  0.09457  0  1.051064  0  0  0.096784  0.091234  0  1.049997  0
H  H23  1  0.99603125  0.34575922  0.02065770  1  0  0.080738  0  0.984259  0  0  0.091669  0  1.047247  0  0  0.09371  0  1.047681  0  0  0.09556  0.090163  0  1.04706  0
H  H24  1  0.00397766  0.65423033  0.97933936  1  0  0.080704  0  0.984284  0  0  0.0917  0  1.047187  0  0  0.093695  0  1.047707  0  0  0.095571  0.090189  0  1.047015  0
H  H25  1  0.21905492  0.07867679  0.05281897  1  0  0.080678  0  0.980876  0  0  0.090804  0  1.046879  0  0  0.092851  0  1.046993  0  0  0.095885  0.08915  0  1.047218  0
H  H26  1  0.78094861  0.92131395  0.94717898  1  0  0.080622  0  0.980986  0  0  0.090752  0  1.046985  0  0  0.092801  0  1.047094  0  0  0.095847  0.0891  0  1.047323  0
H  H27  1  0.44067653  0.00929778  0.87996106  1  0  0.077368  0  0.988501  0  0  0.089362  0  1.051402  0  0  0.091349  0  1.051631  0  0  0.095733  0.087788  0  1.051436  0
H  H28  1  0.55932361  0.99070551  0.12003606  1  0  0.077413  0  0.98837  0  0  0.089402  0  1.051282  0  0  0.091392  0  1.051508  0  0  0.09576  0.087827  0  1.051316  0
H  H29  1  0.44409165  0.20743571  0.67864094  1  0  0.111906  0  0.954212  0  0  0.120994  0  1.016367  0  0  0.124848  0  1.013679  0  0  0.108649  0.117869  0  1.018832  0
H  H30  1  0.55591773  0.79256066  0.32135551  1  0  0.111811  0  0.954363  0  0  0.120936  0  1.016475  0  0  0.124788  0  1.013791  0  0  0.108595  0.11781  0  1.018942  0
H  H31  1  0.25909930  0.67009350  0.79381576  1  0  0.071536  0  0.997624  0  0  0.082488  0  1.064812  0  0  0.08443  0  1.064946  0  0  0.092603  0.08083  0  1.065206  0
H  H32  1  0.74089933  0.32990755  0.20618776  1  0  0.071542  0  0.997632  0  0  0.082484  0  1.064824  0  0  0.084431  0  1.064956  0  0  0.092585  0.080826  0  1.065218  0
H  H33  1  0.09072301  0.92141291  0.84613133  1  0  0.076559  0  0.962611  0  0  0.090295  0  1.022016  0  0  0.09236  0  1.021997  0  0  0.09549  0.089016  0  1.021711  0
H  H34  1  0.90927377  0.07858701  0.15387057  1  0  0.076538  0  0.962559  0  0  0.090277  0  1.021966  0  0  0.09234  0  1.021948  0  0  0.095483  0.088997  0  1.021661  0
H  H35  1  0.81863621  0.11146194  0.70527972  1  0  0.099075  0  0.9798  0  0  0.107527  0  1.043392  0  0  0.111204  0  1.041586  0  0  0.100314  0.10496  0  1.044564  0
H  H36  1  0.18135966  0.88853228  0.29471867  1  0  0.099128  0  0.979754  0  0  0.107502  0  1.043436  0  0  0.111177  0  1.041636  0  0  0.100317  0.104935  0  1.04461  0
H  H37  1  0.72392734  0.04751201  0.51673419  1  0  0.093802  0  0.973698  0  0  0.102939  0  1.038077  0  0  0.105827  0  1.037338  0  0  0.101032  0.100661  0  1.038946  0
H  H38  1  0.27607134  0.95247877  0.48326392  1  0  0.093828  0  0.973675  0  0  0.102972  0  1.038045  0  0  0.105861  0  1.037305  0  0  0.101012  0.100694  0  1.038913  0
H  H39  1  0.89206452  0.79813089  0.46107200  1  0  0.086071  0  0.962722  0  0  0.098679  0  1.022554  0  0  0.100758  0  1.02272  0  0  0.100293  0.097414  0  1.022003  0
H  H40  1  0.10794013  0.20185985  0.53892979  1  0  0.086052  0  0.962748  0  0  0.098696  0  1.02255  0  0  0.100777  0  1.02271  0  0  0.100271  0.097423  0  1.022018  0
C  C41  1  0.63612876  0.40461339  0.78261173  1  0  0.489111  0  3.747707  0  0  0.480591  0  4.017473  0  0  0.513501  0  4.019521  0  0  0.11357  0.458162  0  4.015677  0
C  C42  1  0.36387231  0.59538764  0.21739074  1  0  0.489011  0  3.747771  0  0  0.480654  0  4.017302  0  0  0.513563  0  4.019354  0  0  0.113599  0.458217  0  4.015516  0
C  C43  1  0.54005203  0.68492557  0.67558385  1  0  0.482283  0  3.765855  0  0  0.475683  0  4.033553  0  0  0.508932  0  4.034387  0  0  0.112507  0.452978  0  4.032425  0
C  C44  1  0.45994737  0.31507659  0.32441550  1  0  0.482427  0  3.76587  0  0  0.475855  0  4.033514  0  0  0.509106  0  4.03434  0  0  0.112516  0.453151  0  4.032382  0
C  C45  1  0.60097263  0.55596901  0.78478421  1  0  -0.46931  0  3.732022  0  0  -0.494096  0  3.994856  0  0  -0.520056  0  4.010282  0  0  -0.163741  -0.477099  0  3.984559  0
C  C46  1  0.39903598  0.44403420  0.21521264  1  0  -0.469303  0  3.732182  0  0  -0.494168  0  3.994986  0  0  -0.52013  0  4.010408  0  0  -0.163708  -0.47717  0  3.984689  0
C  C47  1  0.51782431  0.83661777  0.69791588  1  0  -0.40668  0  3.683926  0  0  -0.487688  0  3.917699  0  0  -0.494911  0  3.920599  0  0  -0.24651  -0.482156  0  3.914961  0
C  C48  1  0.48216690  0.16338902  0.30208463  1  0  -0.406693  0  3.683823  0  0  -0.487697  0  3.917626  0  0  -0.494922  0  3.920526  0  0  -0.246544  -0.482167  0  3.914888  0
C  C49  1  0.69751436  0.28154286  0.91093684  1  0  -0.401187  0  3.679998  0  0  -0.481038  0  3.912044  0  0  -0.487764  0  3.914897  0  0  -0.244429  -0.47576  0  3.90961  0
C  C50  1  0.30248452  0.71846045  0.08906226  1  0  -0.401172  0  3.680112  0  0  -0.481064  0  3.912104  0  0  -0.487789  0  3.91495  0  0  -0.244451  -0.475788  0  3.909672  0
C  C51  1  0.08293688  0.50760549  0.46998975  1  0  -0.260008  0  3.657719  0  0  -0.279534  0  3.906328  0  0  -0.283884  0  3.91939  0  0  -0.165803  -0.276762  0  3.898121  0
C  C52  1  0.91706805  0.49238981  0.53001293  1  0  -0.259913  0  3.657607  0  0  -0.279502  0  3.906316  0  0  -0.283851  0  3.91938  0  0  -0.1658  -0.276728  0  3.898106  0
C  C53  1  0.22460379  0.39024226  0.73771478  1  0  -0.097712  0  3.703291  0  0  -0.052545  0  3.938178  0  0  -0.057848  0  3.962495  0  0  -0.021952  -0.049001  0  3.921919  0
C  C54  1  0.77540229  0.60976100  0.26228700  1  0  -0.097923  0  3.703328  0  0  -0.052742  0  3.938224  0  0  -0.058046  0  3.96254  0  0  -0.021983  -0.049185  0  3.921942  0
C  C55  1  0.09819561  0.42742067  0.83459719  1  0  -0.083471  0  3.767239  0  0  -0.103455  0  4.006231  0  0  -0.105144  0  4.029716  0  0  -0.089111  -0.1023  0  3.990699  0
C  C56  1  0.90181696  0.57257911  0.16540225  1  0  -0.083312  0  3.767135  0  0  -0.103285  0  4.006148  0  0  -0.104969  0  4.029626  0  0  -0.089074  -0.102132  0  3.990611  0
C  C57  1  0.09602380  0.31576297  0.94696219  1  0  -0.076574  0  3.783751  0  0  -0.084189  0  4.024253  0  0  -0.087504  0  4.047515  0  0  -0.095661  -0.08225  0  4.009103  0
C  C58  1  0.90398830  0.68422998  0.05303787  1  0  -0.076579  0  3.783902  0  0  -0.084248  0  4.024436  0  0  -0.08755  0  4.047704  0  0  -0.09571  -0.082311  0  4.009287  0
C  C59  1  0.22001790  0.16525147  0.96416769  1  0  -0.085285  0  3.799199  0  0  -0.099362  0  4.044255  0  0  -0.100724  0  4.066446  0  0  -0.098116  -0.098411  0  4.029381  0
C  C60  1  0.77999058  0.83474151  0.03583152  1  0  -0.085211  0  3.799273  0  0  -0.099286  0  4.044344  0  0  -0.100644  0  4.066524  0  0  -0.098035  -0.098338  0  4.029473  0
C  C61  1  0.34404471  0.12667518  0.86694690  1  0  -0.089244  0  3.796657  0  0  -0.098877  0  4.041729  0  0  -0.102398  0  4.064656  0  0  -0.098147  -0.096453  0  4.025752  0
C  C62  1  0.65595869  0.87332354  0.13305311  1  0  -0.08927  0  3.796465  0  0  -0.098895  0  4.041552  0  0  -0.102417  0  4.064478  0  0  -0.098118  -0.096471  0  4.02558  0
C  C63  1  0.34645993  0.23773718  0.75388567  1  0  -0.066727  0  3.714756  0  0  -0.087873  0  3.956039  0  0  -0.088129  0  3.975822  0  0  -0.082858  -0.087708  0  3.942645  0
C  C64  1  0.65354235  0.76226153  0.24611049  1  0  -0.066565  0  3.715008  0  0  -0.087755  0  3.95629  0  0  -0.088009  0  3.976071  0  0  -0.082836  -0.087596  0  3.942895  0
C  C65  1  0.08782800  0.71405140  0.62476856  1  0  -0.097305  0  3.698566  0  0  -0.05335  0  3.935443  0  0  -0.057453  0  3.95826  0  0  -0.021186  -0.050785  0  3.92013  0
C  C66  1  0.91217512  0.28594276  0.37523056  1  0  -0.09717  0  3.698533  0  0  -0.053172  0  3.935367  0  0  -0.057272  0  3.95818  0  0  -0.021179  -0.050608  0  3.920052  0
C  C67  1  0.14064963  0.75200655  0.73327164  1  0  -0.084467  0  3.772239  0  0  -0.105206  0  4.014592  0  0  -0.107071  0  4.037359  0  0  -0.089754  -0.10401  0  3.999568  0
C  C68  1  0.85934665  0.24799451  0.26672904  1  0  -0.084558  0  3.772346  0  0  -0.10529  0  4.014665  0  0  -0.107163  0  4.037439  0  0  -0.089771  -0.104094  0  3.999639  0
C  C69  1  0.04544227  0.89339527  0.76280538  1  0  -0.086302  0  3.793311  0  0  -0.096086  0  4.04078  0  0  -0.099116  0  4.063593  0  0  -0.096128  -0.094069  0  4.025073  0
C  C70  1  0.95455204  0.10660468  0.23719854  1  0  -0.086269  0  3.793325  0  0  -0.096041  0  4.040758  0  0  -0.099072  0  4.063576  0  0  -0.096098  -0.094026  0  4.025052  0
C  C71  1  0.89394604  0.99925185  0.68555457  1  0  -0.069431  0  3.749638  0  0  -0.083654  0  3.997239  0  0  -0.085177  0  4.017673  0  0  -0.091462  -0.082637  0  3.983454  0
C  C72  1  0.10604849  0.00074240  0.31444968  1  0  -0.069532  0  3.749691  0  0  -0.083706  0  3.99733  0  0  -0.085227  0  4.017761  0  0  -0.091539  -0.082692  0  3.983545  0
C  C73  1  0.83970526  0.96253683  0.57832152  1  0  -0.063476  0  3.758374  0  0  -0.074444  0  4.004603  0  0  -0.077212  0  4.027088  0  0  -0.089245  -0.072644  0  3.989683  0
C  C74  1  0.16029121  0.03745854  0.42168046  1  0  -0.063522  0  3.758394  0  0  -0.074472  0  4.004603  0  0  -0.07724  0  4.027086  0  0  -0.089197  -0.072673  0  3.989684  0
C  C75  1  0.93595337  0.82190347  0.54741187  1  0  -0.072492  0  3.736921  0  0  -0.091563  0  3.976429  0  0  -0.093342  0  3.999219  0  0  -0.083684  -0.089959  0  3.960474  0
C  C76  1  0.06404323  0.17809418  0.45259153  1  0  -0.072492  0  3.73691  0  0  -0.091619  0  3.976428  0  0  -0.093397  0  3.99922  0  0  -0.083655  -0.090017  0  3.96047  0
O  O77  1  0.62163559  0.35811448  0.67941129  1  0  -0.47194  0  2.150644  0  0  -0.425778  0  2.401826  0  0  -0.462492  0  2.396604  0  0  -0.27562  -0.400896  0  2.403745  0
O  O78  1  0.37836408  0.64189225  0.32058991  1  0  -0.471834  0  2.150662  0  0  -0.425716  0  2.401734  0  0  -0.462428  0  2.396513  0  0  -0.275601  -0.400827  0  2.403648  0
O  O79  1  0.49494489  0.68820799  0.55716421  1  0  -0.467528  0  2.11802  0  0  -0.424887  0  2.370943  0  0  -0.46082  0  2.365204  0  0  -0.274878  -0.399989  0  2.373343  0
O  O80  1  0.50505230  0.31179646  0.44283275  1  0  -0.467555  0  2.117961  0  0  -0.424897  0  2.37083  0  0  -0.460829  0  2.365088  0  0  -0.27487  -0.400003  0  2.373231  0
