# generated using pymatgen
data_AgH3C5N2
_symmetry_space_group_name_H-M   'P 1'
_cell_length_a   6.95328823
_cell_length_b   9.77554447
_cell_length_c   16.71938983
_cell_angle_alpha   84.66981150
_cell_angle_beta   83.00988856
_cell_angle_gamma   73.92789707
_symmetry_Int_Tables_number   1
_chemical_formula_structural   AgH3C5N2
_chemical_formula_sum   'Ag8 H24 C40 N16'
_cell_volume   1081.82688615
_cell_formula_units_Z   8
loop_
 _symmetry_equiv_pos_site_id
 _symmetry_equiv_pos_as_xyz
  1  'x, y, z'
loop_
 _atom_site_type_symbol
 _atom_site_label
 _atom_site_symmetry_multiplicity
 _atom_site_fract_x
 _atom_site_fract_y
 _atom_site_fract_z
 _atom_site_occupancy
 _atom_site_hle17_bader_spin_density
 _atom_site_hle17_ddec_charge
 _atom_site_hle17_ddec_spin_density
 _atom_site_hle17_ddec_sum_bond_order
 _atom_site_hle17_magmom
 _atom_site_hse06_10hf_bader_spin_density
 _atom_site_hse06_10hf_ddec_charge
 _atom_site_hse06_10hf_ddec_spin_density
 _atom_site_hse06_10hf_ddec_sum_bond_order
 _atom_site_hse06_10hf_magmom
 _atom_site_hse06_bader_spin_density
 _atom_site_hse06_ddec_charge
 _atom_site_hse06_ddec_spin_density
 _atom_site_hse06_ddec_sum_bond_order
 _atom_site_hse06_magmom
 _atom_site_pbe_bader_spin_density
 _atom_site_pbe_cm5_charge
 _atom_site_pbe_ddec_charge
 _atom_site_pbe_ddec_spin_density
 _atom_site_pbe_ddec_sum_bond_order
 _atom_site_pbe_magmom
Ag  Ag0  1  0.73655108  0.00783994  0.92238073  1  0  0.424204  0  1.924498  0  0  0.31771  0  2.402658  0  0  0.328196  0  2.367184  0  0  0.448183  0.311705  0  2.426543  0
Ag  Ag1  1  0.26345187  0.99216078  0.07761795  1  0  0.424254  0  1.924486  0  0  0.31775  0  2.402654  0  0  0.32824  0  2.367173  0  0  0.448186  0.311747  0  2.426541  0
Ag  Ag2  1  0.37859902  0.35031784  0.15423763  1  0  0.418906  0  1.885491  0  0  0.308218  0  2.350873  0  0  0.323211  0  2.31689  0  0  0.43794  0.298609  0  2.373573  0
Ag  Ag3  1  0.62140615  0.64968074  0.84576284  1  0  0.418894  0  1.885557  0  0  0.30821  0  2.350958  0  0  0.3232  0  2.316975  0  0  0.437948  0.298599  0  2.373656  0
Ag  Ag4  1  0.11654956  0.61025756  0.42428005  1  0  0.425207  0  1.943322  0  0  0.318716  0  2.439337  0  0  0.333062  0  2.396256  0  0  0.443548  0.310007  0  2.468087  0
Ag  Ag5  1  0.88344969  0.38974528  0.57571809  1  0  0.425263  0  1.943334  0  0  0.318744  0  2.439392  0  0  0.333087  0  2.39631  0  0  0.443559  0.310036  0  2.468138  0
Ag  Ag6  1  0.51396951  0.27869635  0.64912489  1  0  0.3955  0  1.904228  0  0  0.273468  0  2.395348  0  0  0.294421  0  2.351153  0  0  0.413303  0.260477  0  2.424346  0
Ag  Ag7  1  0.48601747  0.72130425  0.35087690  1  0  0.395541  0  1.904438  0  0  0.273514  0  2.395582  0  0  0.294458  0  2.351392  0  0  0.413337  0.260527  0  2.424577  0
H  H8  1  0.38417971  0.37826611  0.81978753  1  0  0.096863  0  0.963177  0  0  0.10488  0  1.028185  0  0  0.107429  0  1.027446  0  0  0.099054  0.102958  0  1.028885  0
H  H9  1  0.61582294  0.62173885  0.18021395  1  0  0.096872  0  0.963168  0  0  0.104875  0  1.028196  0  0  0.107429  0  1.027452  0  0  0.099056  0.102953  0  1.028899  0
H  H10  1  0.39849488  0.37185269  0.96838599  1  0  0.112204  0  0.960381  0  0  0.120109  0  1.026775  0  0  0.122569  0  1.026289  0  0  0.102656  0.118298  0  1.027234  0
H  H11  1  0.60149933  0.62814795  0.03161547  1  0  0.112201  0  0.960374  0  0  0.120081  0  1.026803  0  0  0.12254  0  1.026318  0  0  0.10265  0.118271  0  1.02726  0
H  H12  1  0.95435105  0.79374005  0.82705050  1  0  0.090641  0  0.982023  0  0  0.094009  0  1.06169  0  0  0.098635  0  1.056582  0  0  0.093945  0.090715  0  1.065171  0
H  H13  1  0.04564128  0.20626165  0.17295160  1  0  0.090621  0  0.982018  0  0  0.094005  0  1.061666  0  0  0.098627  0  1.05656  0  0  0.093923  0.090706  0  1.065164  0
H  H14  1  0.86068661  0.89369931  0.09554200  1  0  0.092836  0  0.946157  0  0  0.099856  0  1.010982  0  0  0.102956  0  1.007828  0  0  0.117507  0.097581  0  1.013588  0
H  H15  1  0.13932986  0.10630359  0.90445955  1  0  0.09285  0  0.946189  0  0  0.099872  0  1.011004  0  0  0.102971  0  1.007848  0  0  0.117509  0.097595  0  1.013609  0
H  H16  1  0.09290013  0.68298552  0.16682690  1  0  0.091673  0  0.938207  0  0  0.102238  0  0.994499  0  0  0.103811  0  0.994898  0  0  0.11775  0.101139  0  0.994309  0
H  H17  1  0.90710463  0.31701412  0.83317354  1  0  0.091669  0  0.938143  0  0  0.102206  0  0.994459  0  0  0.103798  0  0.994837  0  0  0.117771  0.101109  0  0.99427  0
H  H18  1  0.16082046  0.58582229  0.74943650  1  0  0.099459  0  0.938057  0  0  0.112641  0  0.992642  0  0  0.114517  0  0.993228  0  0  0.105623  0.111259  0  0.992423  0
H  H19  1  0.83917825  0.41418158  0.25056580  1  0  0.099484  0  0.937971  0  0  0.112682  0  0.99255  0  0  0.11456  0  0.993133  0  0  0.105636  0.1113  0  0.992334  0
H  H20  1  0.92554209  0.83429660  0.32518939  1  0  0.096495  0  0.96912  0  0  0.102079  0  1.04432  0  0  0.105866  0  1.04091  0  0  0.097363  0.099211  0  1.046999  0
H  H21  1  0.07445763  0.16570519  0.67480699  1  0  0.096471  0  0.969119  0  0  0.10207  0  1.044306  0  0  0.105859  0  1.040896  0  0  0.097362  0.099204  0  1.046984  0
H  H22  1  0.95214352  0.71176102  0.59776967  1  0  0.093864  0  0.951065  0  0  0.100458  0  1.016009  0  0  0.102691  0  1.014768  0  0  0.11765  0.098837  0  1.016934  0
H  H23  1  0.04786052  0.28823330  0.40222807  1  0  0.093858  0  0.95112  0  0  0.100454  0  1.016051  0  0  0.102686  0  1.014809  0  0  0.117658  0.098834  0  1.016974  0
H  H24  1  0.75379560  0.93422245  0.66823667  1  0  0.088669  0  0.938985  0  0  0.098359  0  0.998439  0  0  0.100429  0  0.997743  0  0  0.116712  0.096877  0  0.998905  0
H  H25  1  0.24620408  0.06577184  0.33176187  1  0  0.088646  0  0.938958  0  0  0.098343  0  0.998414  0  0  0.100416  0  0.997715  0  0  0.116702  0.096858  0  0.99888  0
H  H26  1  0.54678942  0.27681782  0.46377757  1  0  0.114689  0  0.956167  0  0  0.123748  0  1.020951  0  0  0.125852  0  1.020825  0  0  0.104889  0.122242  0  1.020962  0
H  H27  1  0.45321182  0.72317966  0.53622373  1  0  0.114637  0  0.956224  0  0  0.123725  0  1.020981  0  0  0.12583  0  1.020853  0  0  0.104872  0.12222  0  1.020994  0
H  H28  1  0.58060585  0.27706660  0.31393945  1  0  0.091809  0  0.973329  0  0  0.099367  0  1.041069  0  0  0.101899  0  1.040463  0  0  0.098573  0.097405  0  1.041841  0
H  H29  1  0.41939169  0.72293300  0.68606132  1  0  0.091803  0  0.973303  0  0  0.099382  0  1.041022  0  0  0.101916  0  1.040418  0  0  0.098559  0.097418  0  1.041795  0
H  H30  1  0.76685571  0.05764353  0.24448407  1  0  0.093162  0  0.943578  0  0  0.106384  0  0.999112  0  0  0.108374  0  0.999381  0  0  0.103499  0.104894  0  0.999032  0
H  H31  1  0.23313673  0.94235820  0.75551443  1  0  0.093169  0  0.943607  0  0  0.106397  0  0.999134  0  0  0.108387  0  0.999404  0  0  0.103513  0.104905  0  0.999058  0
C  C32  1  0.32907645  0.43308700  0.58457763  1  0  -0.085544  0  3.493594  0  0  -0.063415  0  3.851597  0  0  -0.059293  0  3.85456  0  0  -0.032472  -0.066107  0  3.849106  0
C  C33  1  0.67090228  0.56691997  0.41542363  1  0  -0.085614  0  3.493197  0  0  -0.063488  0  3.851202  0  0  -0.059359  0  3.854159  0  0  -0.032558  -0.066188  0  3.848717  0
C  C34  1  0.20935611  0.52333767  0.31604690  1  0  -0.093915  0  3.478554  0  0  -0.07826  0  3.830892  0  0  -0.071298  0  3.834187  0  0  -0.027089  -0.083347  0  3.828366  0
C  C35  1  0.79065221  0.47666414  0.68395149  1  0  -0.093878  0  3.478547  0  0  -0.078222  0  3.830891  0  0  -0.07126  0  3.834184  0  0  -0.027105  -0.08331  0  3.828364  0
C  C36  1  0.68533312  0.09756967  0.81008560  1  0  -0.109459  0  3.476743  0  0  -0.095517  0  3.824228  0  0  -0.087729  0  3.829744  0  0  -0.033569  -0.100703  0  3.819842  0
C  C37  1  0.31466509  0.90243209  0.18991324  1  0  -0.109401  0  3.476683  0  0  -0.095455  0  3.824164  0  0  -0.087665  0  3.829677  0  0  -0.03357  -0.100643  0  3.819782  0
C  C38  1  0.53548355  0.19031842  0.08521336  1  0  -0.105115  0  3.521446  0  0  -0.083781  0  3.882926  0  0  -0.077929  0  3.885477  0  0  -0.037778  -0.087636  0  3.880891  0
C  C39  1  0.46452369  0.80967916  0.91478049  1  0  -0.10488  0  3.520944  0  0  -0.083518  0  3.882398  0  0  -0.077667  0  3.884948  0  0  -0.037698  -0.087377  0  3.880366  0
C  C40  1  0.29269219  0.46688737  0.85446540  1  0  -0.053815  0  3.743574  0  0  -0.064375  0  3.992057  0  0  -0.066798  0  4.013282  0  0  -0.085162  -0.062604  0  3.977888  0
C  C41  1  0.70730655  0.53311651  0.14553570  1  0  -0.053813  0  3.743518  0  0  -0.064364  0  3.99199  0  0  -0.066782  0  4.013201  0  0  -0.085149  -0.062593  0  3.977824  0
C  C42  1  0.30173221  0.46245402  0.93678529  1  0  -0.125123  0  3.696842  0  0  -0.149417  0  3.951301  0  0  -0.151954  0  3.971761  0  0  -0.086301  -0.147686  0  3.9378  0
C  C43  1  0.69826444  0.53754769  0.06321721  1  0  -0.125067  0  3.696724  0  0  -0.149345  0  3.951172  0  0  -0.151881  0  3.971635  0  0  -0.086254  -0.147601  0  3.937657  0
C  C44  1  0.05025277  0.69966837  0.85676720  1  0  -0.157119  0  3.766014  0  0  -0.176436  0  4.022509  0  0  -0.180122  0  4.041835  0  0  -0.0964  -0.173498  0  4.009653  0
C  C45  1  0.94974530  0.30033335  0.14323583  1  0  -0.157107  0  3.766161  0  0  -0.176397  0  4.022592  0  0  -0.180106  0  4.041973  0  0  -0.096362  -0.17346  0  4.009735  0
C  C46  1  0.18453557  0.57787778  0.98188732  1  0  0.1557  0  3.769952  0  0  0.159335  0  4.005595  0  0  0.160547  0  4.030055  0  0  0.111047  0.158026  0  3.989895  0
C  C47  1  0.81546379  0.42212075  0.01811462  1  0  0.1556  0  3.769725  0  0  0.159233  0  4.005383  0  0  0.160446  0  4.029842  0  0  0.11096  0.157908  0  3.989714  0
C  C48  1  0.95545731  0.80411823  0.06223046  1  0  0.082365  0  3.682064  0  0  0.05158  0  3.943543  0  0  0.057728  0  3.954674  0  0  0.054965  0.047569  0  3.936471  0
C  C49  1  0.04455239  0.19588358  0.93777026  1  0  0.082264  0  3.682186  0  0  0.051466  0  3.943621  0  0  0.057616  0  3.954751  0  0  0.054962  0.047459  0  3.936544  0
C  C50  1  0.05650002  0.69809896  0.94111939  1  0  0.155939  0  3.771219  0  0  0.158258  0  3.999485  0  0  0.159847  0  4.025154  0  0  0.109248  0.156663  0  3.9828  0
C  C51  1  0.94349992  0.30190170  0.05888362  1  0  0.156195  0  3.77105  0  0  0.158476  0  3.99933  0  0  0.160061  0  4.024996  0  0  0.109297  0.156884  0  3.982646  0
C  C52  1  0.08384866  0.68556560  0.10192845  1  0  0.088747  0  3.696846  0  0  0.064546  0  3.951347  0  0  0.067473  0  3.966599  0  0  0.059291  0.062535  0  3.940972  0
C  C53  1  0.91615710  0.31443511  0.89807309  1  0  0.088923  0  3.69677  0  0  0.064754  0  3.951247  0  0  0.067668  0  3.966493  0  0  0.059304  0.06274  0  3.94087  0
C  C54  1  0.16643374  0.58569067  0.81433067  1  0  -0.039627  0  3.740543  0  0  -0.055176  0  3.988792  0  0  -0.056737  0  4.010786  0  0  -0.080735  -0.054429  0  3.974297  0
C  C55  1  0.83356959  0.41430897  0.18566924  1  0  -0.039715  0  3.740575  0  0  -0.055299  0  3.988864  0  0  -0.056859  0  4.010852  0  0  -0.080768  -0.054551  0  3.974369  0
C  C56  1  0.84026430  0.93149273  0.35416826  1  0  -0.140335  0  3.743153  0  0  -0.161932  0  3.99906  0  0  -0.166279  0  4.020793  0  0  -0.087948  -0.159228  0  3.984996  0
C  C57  1  0.15973289  0.06850795  0.64583008  1  0  -0.14025  0  3.742999  0  0  -0.161862  0  3.998887  0  0  -0.166212  0  4.020618  0  0  -0.087924  -0.159158  0  3.984821  0
C  C58  1  0.71190995  0.05517853  0.47957175  1  0  0.148946  0  3.77478  0  0  0.151665  0  4.013824  0  0  0.153348  0  4.037709  0  0  0.108453  0.150625  0  3.997486  0
C  C59  1  0.28808741  0.94481786  0.52042859  1  0  0.148912  0  3.774866  0  0  0.151645  0  4.013876  0  0  0.15333  0  4.037761  0  0  0.108436  0.150605  0  3.997541  0
C  C60  1  0.82130856  0.92894175  0.43945989  1  0  0.151522  0  3.76419  0  0  0.150515  0  3.999622  0  0  0.152973  0  4.024124  0  0  0.107518  0.14871  0  3.983104  0
C  C61  1  0.17869337  0.07105789  0.56053889  1  0  0.151541  0  3.764219  0  0  0.150542  0  3.999594  0  0  0.152999  0  4.024096  0  0  0.107534  0.148737  0  3.983075  0
C  C62  1  0.88235854  0.80969363  0.56339083  1  0  0.092855  0  3.656401  0  0  0.064404  0  3.905971  0  0  0.069438  0  3.921414  0  0  0.06078  0.06093  0  3.895865  0
C  C63  1  0.11764238  0.19030494  0.43660745  1  0  0.092862  0  3.656396  0  0  0.064391  0  3.905939  0  0  0.069425  0  3.921383  0  0  0.060766  0.060917  0  3.895831  0
C  C64  1  0.77219701  0.93422080  0.60243429  1  0  0.088557  0  3.692447  0  0  0.064306  0  3.944312  0  0  0.067593  0  3.960691  0  0  0.058253  0.062033  0  3.933209  0
C  C65  1  0.22780511  0.06577456  0.39756528  1  0  0.088611  0  3.692263  0  0  0.06436  0  3.944105  0  0  0.067642  0  3.960493  0  0  0.058281  0.06209  0  3.933  0
C  C66  1  0.62713695  0.18102233  0.43280699  1  0  -0.119782  0  3.693937  0  0  -0.143121  0  3.942602  0  0  -0.146677  0  3.965963  0  0  -0.083296  -0.140438  0  3.926594  0
C  C67  1  0.37286533  0.81897622  0.56719362  1  0  -0.119624  0  3.693949  0  0  -0.143003  0  3.942601  0  0  -0.146557  0  3.965961  0  0  -0.083237  -0.140317  0  3.926586  0
C  C68  1  0.64817474  0.18039984  0.34967783  1  0  -0.056062  0  3.744984  0  0  -0.066487  0  3.989003  0  0  -0.070327  0  4.013876  0  0  -0.082169  -0.064104  0  3.972568  0
C  C69  1  0.35181994  0.81959975  0.65032187  1  0  -0.056129  0  3.744897  0  0  -0.066578  0  3.988942  0  0  -0.070425  0  4.01382  0  0  -0.082198  -0.064193  0  3.972505  0
C  C70  1  0.75418120  0.05534232  0.31022938  1  0  -0.043835  0  3.743881  0  0  -0.05471  0  3.983339  0  0  -0.057728  0  4.008732  0  0  -0.07931  -0.052725  0  3.966412  0
C  C71  1  0.24581346  0.94465727  0.68977092  1  0  -0.043859  0  3.743727  0  0  -0.054741  0  3.983191  0  0  -0.057765  0  4.008597  0  0  -0.079316  -0.052754  0  3.96626  0
N  N72  1  0.22386032  0.51841908  0.54358289  1  0  -0.40643  0  3.184316  0  0  -0.341548  0  3.47939  0  0  -0.358345  0  3.492448  0  0  -0.404145  -0.330592  0  3.470527  0
N  N73  1  0.77613549  0.48157727  0.45642111  1  0  -0.406394  0  3.18387  0  0  -0.341526  0  3.478979  0  0  -0.358324  0  3.492029  0  0  -0.404089  -0.330566  0  3.470119  0
N  N74  1  0.63784138  0.15453674  0.74786030  1  0  -0.37947  0  3.313136  0  0  -0.301763  0  3.621366  0  0  -0.322442  0  3.634574  0  0  -0.420963  -0.28799  0  3.611769  0
N  N75  1  0.36216219  0.84545863  0.25213920  1  0  -0.379541  0  3.313168  0  0  -0.301825  0  3.621387  0  0  -0.322508  0  3.634601  0  0  -0.420962  -0.288051  0  3.611791  0
N  N76  1  0.62589617  0.10290125  0.04096781  1  0  -0.393247  0  3.169803  0  0  -0.330701  0  3.466101  0  0  -0.347014  0  3.477996  0  0  -0.402553  -0.31995  0  3.458303  0
N  N77  1  0.37410472  0.89709731  0.95903107  1  0  -0.393502  0  3.169344  0  0  -0.330961  0  3.465631  0  0  -0.347275  0  3.47752  0  0  -0.402649  -0.32021  0  3.457838  0
N  N78  1  0.94102413  0.81023601  0.98373427  1  0  -0.263001  0  3.239274  0  0  -0.199974  0  3.515336  0  0  -0.211187  0  3.528765  0  0  -0.317712  -0.192577  0  3.506776  0
N  N79  1  0.05897709  0.18976895  0.01626667  1  0  -0.26313  0  3.239501  0  0  -0.200056  0  3.515537  0  0  -0.211263  0  3.528958  0  0  -0.317751  -0.192659  0  3.506977  0
N  N80  1  0.19504663  0.57440238  0.06321006  1  0  -0.281249  0  3.129004  0  0  -0.231312  0  3.398733  0  0  -0.240751  0  3.413575  0  0  -0.294939  -0.224649  0  3.388978  0
N  N81  1  0.80495320  0.42559510  0.93679011  1  0  -0.281348  0  3.129016  0  0  -0.231425  0  3.398765  0  0  -0.240866  0  3.413614  0  0  -0.294922  -0.224755  0  3.389011  0
N  N82  1  0.26210420  0.46385130  0.25615729  1  0  -0.38906  0  3.302308  0  0  -0.314823  0  3.611547  0  0  -0.333419  0  3.624148  0  0  -0.423659  -0.302123  0  3.602446  0
N  N83  1  0.73790680  0.53614732  0.74384173  1  0  -0.389132  0  3.302296  0  0  -0.314897  0  3.611545  0  0  -0.333497  0  3.624154  0  0  -0.423639  -0.302198  0  3.602443  0
N  N84  1  0.90891739  0.80747244  0.48375772  1  0  -0.264843  0  3.238381  0  0  -0.19802  0  3.511629  0  0  -0.210793  0  3.526025  0  0  -0.314883  -0.189456  0  3.501965  0
N  N85  1  0.09108310  0.19252720  0.51624052  1  0  -0.264937  0  3.238448  0  0  -0.198072  0  3.511635  0  0  -0.21084  0  3.526022  0  0  -0.314897  -0.189508  0  3.501971  0
N  N86  1  0.69157640  0.05497531  0.56190272  1  0  -0.283787  0  3.134748  0  0  -0.236091  0  3.413142  0  0  -0.246041  0  3.426373  0  0  -0.296687  -0.229481  0  3.404231  0
N  N87  1  0.30842674  0.94502112  0.43809736  1  0  -0.283811  0  3.134749  0  0  -0.236128  0  3.413143  0  0  -0.246081  0  3.426378  0  0  -0.296716  -0.229517  0  3.404229  0
