# generated using pymatgen
data_CaH20C10S2(NO4)2
_symmetry_space_group_name_H-M   'P 1'
_cell_length_a   5.40274119
_cell_length_b   8.09970498
_cell_length_c   9.69465482
_cell_angle_alpha   70.48267272
_cell_angle_beta   84.48946092
_cell_angle_gamma   89.62630355
_symmetry_Int_Tables_number   1
_chemical_formula_structural   CaH20C10S2(NO4)2
_chemical_formula_sum   'Ca1 H20 C10 S2 N2 O8'
_cell_volume   397.87144789
_cell_formula_units_Z   1
loop_
 _symmetry_equiv_pos_site_id
 _symmetry_equiv_pos_as_xyz
  1  'x, y, z'
loop_
 _atom_site_type_symbol
 _atom_site_label
 _atom_site_symmetry_multiplicity
 _atom_site_fract_x
 _atom_site_fract_y
 _atom_site_fract_z
 _atom_site_occupancy
 _atom_site_hle17_bader_spin_density
 _atom_site_hle17_ddec_charge
 _atom_site_hle17_ddec_spin_density
 _atom_site_hle17_ddec_sum_bond_order
 _atom_site_hle17_magmom
 _atom_site_hse06_10hf_bader_spin_density
 _atom_site_hse06_10hf_ddec_charge
 _atom_site_hse06_10hf_ddec_spin_density
 _atom_site_hse06_10hf_ddec_sum_bond_order
 _atom_site_hse06_10hf_magmom
 _atom_site_hse06_bader_spin_density
 _atom_site_hse06_ddec_charge
 _atom_site_hse06_ddec_spin_density
 _atom_site_hse06_ddec_sum_bond_order
 _atom_site_hse06_magmom
 _atom_site_pbe_bader_spin_density
 _atom_site_pbe_cm5_charge
 _atom_site_pbe_ddec_charge
 _atom_site_pbe_ddec_spin_density
 _atom_site_pbe_ddec_sum_bond_order
 _atom_site_pbe_magmom
Ca  Ca0  1  0.00000308  0.50000485  0.99999384  1  0  1.594088  0  1.073209  0  0  1.470136  0  1.421412  0  0  1.510439  0  1.377477  0  0  0.911289  1.439752  0  1.452892  0
H  H1  1  0.88901052  0.17995033  0.69440724  1  0  0.304606  0  0.924318  0  0  0.286621  0  0.988213  0  0  0.293926  0  0.983002  0  0  0.308279  0.281417  0  0.992024  0
H  H2  1  0.11098768  0.82005826  0.30558674  1  0  0.304759  0  0.924183  0  0  0.286697  0  0.988163  0  0  0.294033  0  0.982927  0  0  0.308287  0.281466  0  0.991998  0
H  H3  1  0.53419480  0.23474327  0.33389152  1  0  0.122102  0  0.949302  0  0  0.13195  0  1.016117  0  0  0.134839  0  1.014609  0  0  0.110235  0.129824  0  1.01735  0
H  H4  1  0.46580646  0.76524967  0.66611502  1  0  0.122087  0  0.949191  0  0  0.131894  0  1.016019  0  0  0.134793  0  1.014516  0  0  0.110213  0.129777  0  1.017259  0
H  H5  1  0.60960768  0.34305510  0.45796904  1  0  0.130919  0  0.947146  0  0  0.141087  0  1.010377  0  0  0.144097  0  1.008992  0  0  0.108565  0.138818  0  1.011614  0
H  H6  1  0.39038817  0.65694175  0.54203460  1  0  0.130936  0  0.947149  0  0  0.141041  0  1.010398  0  0  0.144062  0  1.009016  0  0  0.10858  0.138782  0  1.011635  0
H  H7  1  0.16941340  0.38133898  0.52778811  1  0  0.084892  0  0.929638  0  0  0.09888  0  0.994886  0  0  0.1003  0  0.99439  0  0  0.099623  0.097782  0  0.995354  0
H  H8  1  0.83059005  0.61866177  0.47221093  1  0  0.084932  0  0.929599  0  0  0.098955  0  0.994829  0  0  0.100374  0  0.994329  0  0  0.099655  0.097857  0  0.995298  0
H  H9  1  0.07118172  0.28293194  0.40316143  1  0  0.080469  0  0.934647  0  0  0.096269  0  0.997426  0  0  0.097373  0  0.997688  0  0  0.099602  0.095413  0  0.997345  0
H  H10  1  0.92881638  0.71707401  0.59683227  1  0  0.080361  0  0.934857  0  0  0.09624  0  0.99755  0  0  0.097342  0  0.997809  0  0  0.099614  0.095388  0  0.99746  0
H  H11  1  0.23226017  0.99779882  0.54714572  1  0  0.054095  0  0.93356  0  0  0.072228  0  0.99665  0  0  0.071767  0  0.997687  0  0  0.102838  0.072387  0  0.996159  0
H  H12  1  0.76772468  0.00220056  0.45284950  1  0  0.05415  0  0.933566  0  0  0.072282  0  0.996654  0  0  0.071821  0  0.997692  0  0  0.102867  0.072444  0  0.996164  0
H  H13  1  0.38844245  0.09623561  0.65418908  1  0  0.067284  0  0.930295  0  0  0.083958  0  0.992765  0  0  0.083949  0  0.993165  0  0  0.105119  0.083898  0  0.992608  0
H  H14  1  0.61155528  0.90375982  0.34580352  1  0  0.067378  0  0.930253  0  0  0.084035  0  0.99273  0  0  0.084029  0  0.993123  0  0  0.105156  0.083977  0  0.99257  0
H  H15  1  0.75141841  0.87885317  0.02253156  1  0  0.147519  0  0.947629  0  0  0.16632  0  1.004572  0  0  0.169175  0  1.00341  0  0  0.10809  0.164124  0  1.005675  0
H  H16  1  0.24858302  0.12114506  0.97747759  1  0  0.147511  0  0.94772  0  0  0.166318  0  1.004657  0  0  0.169171  0  1.003501  0  0  0.108108  0.164123  0  1.005757  0
H  H17  1  0.57620590  0.82759983  0.89727533  1  0  0.150426  0  0.93933  0  0  0.166404  0  1.004635  0  0  0.169971  0  1.002372  0  0  0.112728  0.163865  0  1.006293  0
H  H18  1  0.42381616  0.17240092  0.10272172  1  0  0.150374  0  0.93933  0  0  0.16645  0  1.004544  0  0  0.17002  0  1.002277  0  0  0.112745  0.16391  0  1.006204  0
H  H19  1  0.62682367  0.05219439  0.87874441  1  0  0.138924  0  0.976175  0  0  0.155098  0  1.038302  0  0  0.157993  0  1.0371  0  0  0.099879  0.152963  0  1.039214  0
H  H20  1  0.37317598  0.94780511  0.12126034  1  0  0.138932  0  0.976171  0  0  0.155108  0  1.038302  0  0  0.158008  0  1.037092  0  0  0.099887  0.152977  0  1.039211  0
C  C21  1  0.46963588  0.32969198  0.38715712  1  0  -0.321955  0  3.635889  0  0  -0.358506  0  3.896643  0  0  -0.364369  0  3.903753  0  0  -0.155114  -0.354394  0  3.891892  0
C  C22  1  0.53037493  0.67030614  0.61284023  1  0  -0.321933  0  3.635933  0  0  -0.358314  0  3.89659  0  0  -0.364235  0  3.903768  0  0  -0.155107  -0.35425  0  3.8919  0
C  C23  1  0.21622998  0.28212001  0.47565630  1  0  -0.103923  0  3.673457  0  0  -0.146907  0  3.937443  0  0  -0.146985  0  3.94869  0  0  -0.160757  -0.146683  0  3.929748  0
C  C24  1  0.78376217  0.71787681  0.52434444  1  0  -0.10377  0  3.673651  0  0  -0.146865  0  3.937634  0  0  -0.146916  0  3.948877  0  0  -0.16077  -0.146632  0  3.929958  0
C  C25  1  0.22221187  0.10316983  0.59536117  1  0  0.070596  0  3.638044  0  0  0.00994  0  3.905094  0  0  0.015898  0  3.915739  0  0  -0.059498  0.005984  0  3.897874  0
C  C26  1  0.77777848  0.89682828  0.40463723  1  0  0.070454  0  3.637954  0  0  0.009765  0  3.905078  0  0  0.015723  0  3.915714  0  0  -0.059576  0.005801  0  3.897873  0
C  C27  1  0.94534537  0.92570104  0.81077661  1  0  0.649928  0  3.80279  0  0  0.611445  0  4.087363  0  0  0.640845  0  4.086782  0  0  0.249196  0.591427  0  4.087191  0
C  C28  1  0.05466390  0.07430629  0.18922232  1  0  0.650071  0  3.802545  0  0  0.611399  0  4.087362  0  0  0.640799  0  4.086786  0  0  0.249223  0.591384  0  4.087186  0
C  C29  1  0.71051617  0.92339721  0.90736243  1  0  -0.474065  0  3.667736  0  0  -0.552165  0  3.903685  0  0  -0.559082  0  3.905338  0  0  -0.239678  -0.547114  0  3.902512  0
C  C30  1  0.28949474  0.07660490  0.09263997  1  0  -0.474094  0  3.667687  0  0  -0.552253  0  3.903695  0  0  -0.559175  0  3.905344  0  0  -0.239742  -0.547207  0  3.902521  0
S  S31  1  0.47696639  0.53495551  0.24141257  1  0  1.405568  0  5.551669  0  0  1.309606  0  6.074142  0  0  1.356601  0  6.0501  0  0  0.541185  1.276861  0  6.089812  0
S  S32  1  0.52302026  0.46504395  0.75858976  1  0  1.405283  0  5.551743  0  0  1.309289  0  6.074206  0  0  1.356295  0  6.050179  0  0  0.541107  1.276577  0  6.089855  0
N  N33  1  0.00019733  0.07527010  0.69898638  1  0  -0.430761  0  3.274902  0  0  -0.370981  0  3.521595  0  0  -0.392709  0  3.530329  0  0  -0.416283  -0.356205  0  3.515754  0
N  N34  1  0.99980646  0.92473984  0.30101106  1  0  -0.430991  0  3.274872  0  0  -0.371043  0  3.521598  0  0  -0.392794  0  3.530286  0  0  -0.416286  -0.35624  0  3.515804  0
O  O35  1  0.37611724  0.66552502  0.30467457  1  0  -0.68763  0  1.970991  0  0  -0.625358  0  2.214249  0  0  -0.646573  0  2.20103  0  0  -0.332751  -0.610318  0  2.222992  0
O  O36  1  0.62389892  0.33446791  0.69532812  1  0  -0.687518  0  1.970659  0  0  -0.625265  0  2.213927  0  0  -0.646461  0  2.200689  0  0  -0.332791  -0.610233  0  2.222661  0
O  O37  1  0.74179913  0.57045934  0.18422478  1  0  -0.74533  0  1.938805  0  0  -0.687418  0  2.20279  0  0  -0.710313  0  2.187693  0  0  -0.385525  -0.670961  0  2.21272  0
O  O38  1  0.25819851  0.42953209  0.81576174  1  0  -0.74522  0  1.939163  0  0  -0.687322  0  2.203203  0  0  -0.710215  0  2.188105  0  0  -0.385428  -0.67087  0  2.213125  0
O  O39  1  0.32562315  0.51072214  0.13082939  1  0  -0.768439  0  2.004741  0  0  -0.708499  0  2.280789  0  0  -0.732198  0  2.265347  0  0  -0.401145  -0.691356  0  2.291311  0
O  O40  1  0.67435204  0.48927083  0.86918260  1  0  -0.76836  0  2.00467  0  0  -0.70843  0  2.280756  0  0  -0.732133  0  2.265314  0  0  -0.401111  -0.6913  0  2.291275  0
O  O41  1  0.08141864  0.79371002  0.83314751  1  0  -0.672331  0  1.920871  0  0  -0.615096  0  2.155476  0  0  -0.639794  0  2.147418  0  0  -0.350272  -0.597661  0  2.160651  0
O  O42  1  0.91860952  0.20630792  0.16685980  1  0  -0.672324  0  1.920795  0  0  -0.614993  0  2.155419  0  0  -0.639693  0  2.147365  0  0  -0.350237  -0.597557  0  2.160586  0
