# generated using pymatgen
data_Cu3H6C10(N4O)4
_symmetry_space_group_name_H-M   'P 1'
_cell_length_a   7.48984958
_cell_length_b   8.31645996
_cell_length_c   14.80789964
_cell_angle_alpha   90.00173956
_cell_angle_beta   90.00361201
_cell_angle_gamma   106.25063164
_symmetry_Int_Tables_number   1
_chemical_formula_structural   Cu3H6C10(N4O)4
_chemical_formula_sum   'Cu6 H12 C20 N32 O8'
_cell_volume   885.51811157
_cell_formula_units_Z   2
loop_
 _symmetry_equiv_pos_site_id
 _symmetry_equiv_pos_as_xyz
  1  'x, y, z'
loop_
 _atom_site_type_symbol
 _atom_site_label
 _atom_site_symmetry_multiplicity
 _atom_site_fract_x
 _atom_site_fract_y
 _atom_site_fract_z
 _atom_site_occupancy
 _atom_site_hle17_ddec_charge
 _atom_site_hle17_ddec_spin_density
 _atom_site_hle17_ddec_sum_bond_order
 _atom_site_hle17_magmom
 _atom_site_hse06_10hf_ddec_charge
 _atom_site_hse06_10hf_ddec_spin_density
 _atom_site_hse06_10hf_ddec_sum_bond_order
 _atom_site_hse06_10hf_magmom
 _atom_site_hse06_ddec_charge
 _atom_site_hse06_ddec_spin_density
 _atom_site_hse06_ddec_sum_bond_order
 _atom_site_hse06_magmom
 _atom_site_pbe_cm5_charge
 _atom_site_pbe_ddec_charge
 _atom_site_pbe_ddec_spin_density
 _atom_site_pbe_ddec_sum_bond_order
 _atom_site_pbe_magmom
Cu  Cu0  1  0.06740362  0.70544821  0.01449727  1  0.780117  -0.539518  1.92779  -0.365  0.782279  -0.700131  2.342975  -0.534  0.878584  -0.806077  2.268078  -0.643  0.749344  0.731682  -0.58842  2.38904  -0.437
Cu  Cu1  1  0.43272065  0.79470279  0.51445964  1  0.779805  -0.539509  1.928779  -0.365  0.78225  -0.700299  2.343833  -0.535  0.878609  -0.806305  2.268834  -0.643  0.749294  0.731757  -0.588756  2.389808  -0.437
Cu  Cu2  1  0.93265522  0.29466419  0.98553773  1  0.780108  -0.539521  1.928295  -0.365  0.782355  -0.700289  2.343433  -0.535  0.878719  -0.806262  2.268397  -0.643  0.749332  0.7318  -0.58858  2.389459  -0.437
Cu  Cu3  1  0.56739010  0.20548084  0.48543152  1  0.780322  -0.539834  1.927887  -0.365  0.782526  -0.700255  2.342939  -0.535  0.878918  -0.806173  2.267935  -0.643  0.749381  0.731895  -0.588619  2.389004  -0.437
Cu  Cu4  1  0.50005118  0.00005245  0.00000898  1  0.751722  0.575679  1.913947  0.391  0.762966  0.728302  2.282628  0.563  0.855765  0.861203  2.223181  0.681  0.756173  0.707161  0.555656  2.323093  0.424
Cu  Cu5  1  0.00012623  0.50006636  0.50002405  1  0.752149  0.575573  1.912948  0.391  0.763665  0.727925  2.281628  0.562  0.856538  0.860835  2.222029  0.681  0.756183  0.70784  0.555562  2.322169  0.424
H  H6  1  0.44928952  0.86320411  0.19445757  1  0.102456  0.000435  0.932244  0.001  0.10939  0.000647  0.998643  0.002  0.111867  0.000517  0.994673  0.001  0.130172  0.107332  0.000572  1.00179  0.001
H  H7  1  0.05045983  0.63651548  0.69455918  1  0.102437  0.000433  0.932269  0.001  0.109351  0.000644  0.998611  0.002  0.111817  0.000515  0.994661  0.001  0.130163  0.107298  0.000569  1.001752  0.001
H  H8  1  0.55077588  0.13685306  0.80555988  1  0.102473  0.000433  0.932106  0.001  0.109567  0.000646  0.99837  0.002  0.112056  0.000517  0.994389  0.001  0.130257  0.107492  0.000571  1.001522  0.001
H  H9  1  0.94954044  0.36375779  0.30553322  1  0.102045  0.000445  0.931913  0.001  0.109109  0.00065  0.998257  0.002  0.111575  0.00052  0.9943  0.001  0.130054  0.107051  0.000574  1.001409  0.001
H  H10  1  0.62198339  0.69702558  0.28573658  1  0.142461  -0.00016  0.966149  0.0  0.150142  -0.000203  1.020726  0.0  0.155339  -0.000144  1.017986  0.0  0.118701  0.146152  -0.000276  1.022735  0.0
H  H11  1  0.87768115  0.80260466  0.78586150  1  0.14244  -0.000155  0.966714  0.0  0.150112  -0.000205  1.021168  0.0  0.155322  -0.000145  1.018424  0.0  0.118547  0.146113  -0.000278  1.023174  0.0
H  H12  1  0.37804010  0.30300044  0.71426060  1  0.142534  -0.000157  0.966124  0.0  0.150202  -0.000203  1.020611  0.0  0.155405  -0.000144  1.017863  0.0  0.118682  0.146206  -0.000276  1.02264  0.0
H  H13  1  0.12204890  0.19753198  0.21417215  1  0.142142  -0.000164  0.966983  0.0  0.149855  -0.000204  1.021422  0.0  0.155056  -0.000145  1.018687  0.0  0.118518  0.145868  -0.000277  1.023424  0.0
H  H14  1  0.89107872  0.61981293  0.20838477  1  0.095709  3e-05  0.934888  -0.001  0.101866  -0.000402  1.00298  -0.001  0.104831  -0.000342  0.999169  -0.001  0.127881  0.099943  -0.000466  1.005669  -0.001
H  H15  1  0.60896951  0.88027667  0.70835678  1  0.095464  2.3e-05  0.935035  -0.001  0.10153  -0.000396  1.003338  -0.001  0.1045  -0.000336  0.999505  -0.001  0.127705  0.099593  -0.000461  1.006046  -0.001
H  H16  1  0.10901752  0.38027419  0.79164348  1  0.095656  2.7e-05  0.93484  -0.001  0.101674  -0.000397  1.003093  -0.001  0.104633  -0.000338  0.99926  -0.001  0.127784  0.099747  -0.000461  1.005799  -0.001
H  H17  1  0.39090652  0.11989936  0.29152087  1  0.095808  2.4e-05  0.935148  -0.001  0.101762  -0.000401  1.003364  -0.001  0.104713  -0.000342  0.999542  -0.001  0.127865  0.099832  -0.000464  1.006074  -0.001
C  C18  1  0.82212310  0.88296347  0.95094746  1  0.564306  0.003249  3.963769  0.005  0.51288  0.000536  4.275228  0.002  0.547585  0.000542  4.269044  0.002  0.201041  0.488639  0.000422  4.27862  0.002
C  C19  1  0.67782843  0.61700827  0.45095269  1  0.563708  0.003244  3.963344  0.005  0.512556  0.00053  4.274507  0.002  0.547265  0.000536  4.268334  0.002  0.201  0.488333  0.000413  4.277882  0.002
C  C20  1  0.17794932  0.11710746  0.04907471  1  0.563863  0.003242  3.964607  0.005  0.512431  0.000534  4.276057  0.002  0.547139  0.00054  4.269888  0.002  0.200649  0.488188  0.00042  4.279446  0.002
C  C21  1  0.32220527  0.38290229  0.54907758  1  0.56343  0.003263  3.963773  0.005  0.512135  0.000534  4.275045  0.002  0.546847  0.000538  4.268888  0.002  0.20069  0.487896  0.00042  4.278445  0.002
C  C22  1  0.75859031  0.82610591  0.04525043  1  0.267014  -0.002494  3.742106  -0.003  0.246729  -0.000742  3.999393  -0.001  0.260962  -0.000933  4.01397  -0.002  0.244967  0.236065  -0.000475  3.992206  -0.001
C  C23  1  0.74148702  0.67393559  0.54525241  1  0.2674  -0.002501  3.741377  -0.003  0.24711  -0.000734  3.99879  -0.001  0.261328  -0.000923  4.013389  -0.002  0.244937  0.236438  -0.00047  3.991604  -0.001
C  C24  1  0.24152813  0.17400493  0.95478187  1  0.267359  -0.002508  3.74238  -0.003  0.247032  -0.000742  3.999494  -0.001  0.261267  -0.000935  4.014098  -0.002  0.245247  0.236381  -0.000474  3.992314  -0.001
C  C25  1  0.25862154  0.32613139  0.45473262  1  0.267184  -0.002462  3.741792  -0.003  0.247142  -0.000731  3.999124  -0.001  0.261396  -0.000921  4.013697  -0.002  0.244753  0.236448  -0.000464  3.991955  -0.001
C  C26  1  0.56810954  0.82758229  0.16721689  1  0.196328  -0.001467  3.585943  -0.002  0.162017  0.000818  3.836305  0.0  0.178096  0.000211  3.846587  -0.001  0.082401  0.151554  0.001116  3.829581  0.001
C  C27  1  0.93172893  0.67221566  0.66728003  1  0.196378  -0.001447  3.585791  -0.002  0.162236  0.000831  3.836067  0.0  0.178337  0.000221  3.846323  -0.001  0.082553  0.151763  0.001131  3.829349  0.001
C  C28  1  0.43196916  0.17248736  0.83280392  1  0.1965  -0.001465  3.586146  -0.002  0.161888  0.000825  3.836483  0.0  0.177984  0.000216  3.846764  -0.001  0.08245  0.151428  0.001125  3.829772  0.001
C  C29  1  0.06827047  0.32798736  0.33275362  1  0.197438  -0.001439  3.584696  -0.002  0.163081  0.000823  3.835263  0.0  0.179184  0.000215  3.845507  -0.001  0.082978  0.152591  0.001122  3.828568  0.001
C  C30  1  0.66331177  0.73578097  0.21686008  1  -0.12843  0.002348  3.617019  0.002  -0.134804  0.000714  3.853286  0.001  -0.144121  0.000728  3.866168  0.001  -0.056971  -0.128709  0.000457  3.844819  0.001
C  C31  1  0.83649820  0.76401214  0.71692372  1  -0.128668  0.00233  3.616932  0.002  -0.134843  0.000707  3.852826  0.001  -0.144165  0.000723  3.865695  0.001  -0.056765  -0.12874  0.000452  3.844351  0.001
C  C32  1  0.33677730  0.26429615  0.78316480  1  -0.128846  0.002354  3.617063  0.002  -0.134897  0.000714  3.852899  0.001  -0.144204  0.000729  3.86576  0.001  -0.057027  -0.128821  0.000458  3.844449  0.001
C  C33  1  0.16336948  0.23615015  0.28308291  1  -0.128555  0.002306  3.617304  0.002  -0.134996  0.000704  3.853594  0.001  -0.144334  0.000721  3.866479  0.001  -0.056929  -0.12888  0.000444  3.8451  0.001
C  C34  1  0.80921777  0.69174756  0.17489856  1  0.220967  -0.00249  3.580323  -0.002  0.187735  -0.001488  3.829094  -0.001  0.203911  -0.000965  3.837969  0.0  0.092101  0.176923  -0.001695  3.823517  -0.001
C  C35  1  0.69077491  0.80825612  0.67489832  1  0.221634  -0.002465  3.580426  -0.002  0.188411  -0.001477  3.829128  -0.001  0.204613  -0.000955  3.837957  0.0  0.092255  0.177588  -0.001683  3.823576  -0.001
C  C36  1  0.19087462  0.30833581  0.82513307  1  0.221641  -0.002481  3.580132  -0.002  0.188442  -0.00148  3.828818  -0.001  0.204658  -0.000957  3.837631  0.0  0.09241  0.177607  -0.001688  3.823286  -0.001
C  C37  1  0.30913538  0.19187208  0.32503268  1  0.221014  -0.00247  3.580463  -0.002  0.188121  -0.001501  3.829109  -0.001  0.204342  -0.000976  3.83794  0.0  0.092  0.177288  -0.001704  3.823558  -0.001
N  N38  1  0.31208523  0.76847503  0.95404662  1  -0.515787  0.016426  2.836383  0.019  -0.565791  0.003526  3.224433  0.006  -0.623679  0.001827  3.243481  0.003  -0.347043  -0.535691  7.1e-05  3.217449  0.001
N  N39  1  0.18783805  0.73184838  0.45409981  1  -0.516014  0.016951  2.835873  0.019  -0.565917  0.00376  3.223544  0.006  -0.623795  0.002009  3.242625  0.003  -0.347056  -0.535866  0.000303  3.216577  0.002
N  N40  1  0.68797153  0.23162233  0.04601607  1  -0.515959  0.016621  2.835747  0.019  -0.565899  0.003589  3.223685  0.006  -0.623772  0.001875  3.242737  0.003  -0.347395  -0.535822  0.000128  3.216694  0.001
N  N41  1  0.81219096  0.26830054  0.54583187  1  -0.515765  0.016523  2.834916  0.019  -0.565748  0.003621  3.222779  0.006  -0.623693  0.001915  3.241816  0.003  -0.346998  -0.535652  0.000151  3.215859  0.001
N  N42  1  0.31026264  0.74818802  0.87259261  1  0.401652  -0.00449  4.103593  -0.006  0.446302  -0.000234  4.419226  0.0  0.46803  0.001166  4.456153  0.002  0.09713  0.432807  -0.000634  4.397157  0.0
N  N43  1  0.18977867  0.75165985  0.37261105  1  0.402645  -0.004703  4.103528  -0.007  0.447252  -0.000258  4.4192  0.0  0.46897  0.001135  4.456165  0.002  0.09746  0.433765  -0.000647  4.397141  0.0
N  N44  1  0.68979592  0.25169983  0.12749236  1  0.401699  -0.004573  4.104181  -0.006  0.446326  -0.000248  4.419878  0.0  0.468056  0.001148  4.456814  0.002  0.097362  0.432827  -0.000643  4.397815  0.0
N  N45  1  0.81049402  0.24806509  0.62729159  1  0.401731  -0.004528  4.104159  -0.006  0.446318  -0.00024  4.419903  0.0  0.468073  0.001149  4.456823  0.002  0.097073  0.432796  -0.000633  4.397879  0.0
N  N46  1  0.31237605  0.72927132  0.79501837  1  -0.276761  0.008735  2.346544  0.009  -0.291992  -0.004223  2.577832  -0.005  -0.304226  -0.006534  2.591083  -0.008  -0.129798  -0.286625  -0.007205  2.570573  -0.008
N  N47  1  0.18774256  0.77016057  0.29499583  1  -0.277571  0.009227  2.345706  0.01  -0.292954  -0.00403  2.577218  -0.005  -0.30522  -0.006386  2.590474  -0.008  -0.13012  -0.28757  -0.006979  2.569971  -0.007
N  N48  1  0.68765080  0.27037709  0.20507471  1  -0.276673  0.008943  2.347306  0.009  -0.292038  -0.00416  2.578651  -0.005  -0.304301  -0.006482  2.591918  -0.008  -0.129833  -0.286665  -0.007137  2.571403  -0.008
N  N49  1  0.81273019  0.22920082  0.70486359  1  -0.276893  0.00871  2.347541  0.009  -0.292033  -0.004141  2.578857  -0.005  -0.304368  -0.006445  2.5922  -0.008  -0.129669  -0.286536  -0.007126  2.571465  -0.008
N  N50  1  0.11144131  0.53241933  0.09354701  1  -0.520763  -0.107754  2.724687  -0.125  -0.586688  -0.05116  3.105429  -0.066  -0.641151  -0.032636  3.123352  -0.047  -0.332261  -0.556597  -0.056525  3.09694  -0.068
N  N51  1  0.38853905  0.96729512  0.59387937  1  -0.519746  -0.107981  2.723774  -0.125  -0.5858  -0.051178  3.104298  -0.066  -0.64026  -0.032584  3.12231  -0.047  -0.331615  -0.555679  -0.056621  3.095663  -0.068
N  N52  1  0.88832035  0.46733201  0.90630024  1  -0.519484  -0.107878  2.723382  -0.125  -0.585392  -0.051178  3.10392  -0.066  -0.639838  -0.032619  3.121878  -0.047  -0.331595  -0.555312  -0.056585  3.09539  -0.068
N  N53  1  0.61077814  0.03202194  0.40648247  1  -0.521364  -0.107551  2.726791  -0.124  -0.586817  -0.051072  3.107938  -0.066  -0.641281  -0.03257  3.125764  -0.047  -0.332301  -0.556682  -0.05644  3.099368  -0.068
N  N54  1  0.25880753  0.49909260  0.09564114  1  0.372095  0.042218  4.163701  0.061  0.425423  0.006312  4.486382  0.016  0.445088  0.009033  4.52802  0.018  0.081049  0.413539  0.002554  4.460043  0.011
N  N55  1  0.24132015  0.00084677  0.59592142  1  0.372184  0.042464  4.16467  0.061  0.425387  0.006338  4.487734  0.016  0.445069  0.009052  4.529472  0.018  0.081059  0.413494  0.002576  4.461314  0.011
N  N56  1  0.74106512  0.50087021  0.90437563  1  0.370797  0.04229  4.164873  0.061  0.424053  0.006312  4.487898  0.016  0.443713  0.009034  4.529609  0.018  0.080446  0.412174  0.002554  4.4615  0.011
N  N57  1  0.75824073  0.99891563  0.40399201  1  0.372648  0.042206  4.163102  0.061  0.425159  0.006314  4.486566  0.016  0.444862  0.009036  4.528155  0.018  0.080842  0.413257  0.002558  4.460242  0.011
N  N58  1  0.39483909  0.45757001  0.09975287  1  -0.28581  -0.154256  2.369989  -0.164  -0.326248  -0.072114  2.620887  -0.081  -0.341378  -0.060898  2.639656  -0.073  -0.162084  -0.31678  -0.072557  2.608487  -0.079
N  N59  1  0.10530733  0.04247756  0.59994454  1  -0.286795  -0.155039  2.369578  -0.165  -0.327537  -0.072383  2.620783  -0.082  -0.34283  -0.061089  2.639629  -0.073  -0.16272  -0.317955  -0.072884  2.608324  -0.079
N  N60  1  0.60511013  0.54256302  0.90041179  1  -0.285542  -0.154548  2.370961  -0.164  -0.326172  -0.072221  2.622234  -0.081  -0.341346  -0.060976  2.641013  -0.073  -0.162077  -0.316671  -0.072689  2.6098  -0.079
N  N61  1  0.89434597  0.95753901  0.39953197  1  -0.28638  -0.154271  2.368613  -0.164  -0.326065  -0.072058  2.619191  -0.081  -0.341192  -0.060852  2.637898  -0.073  -0.161998  -0.316645  -0.072514  2.606885  -0.078
N  N62  1  0.85567305  0.73786876  0.08914066  1  -0.330785  -0.035042  3.281481  -0.041  -0.27601  -0.036438  3.55776  -0.047  -0.305182  -0.033293  3.569601  -0.046  -0.329026  -0.258762  -0.034589  3.552095  -0.043
N  N63  1  0.64441845  0.76221226  0.58911670  1  -0.33125  -0.035012  3.281847  -0.041  -0.276514  -0.036453  3.558181  -0.047  -0.305671  -0.033311  3.570005  -0.046  -0.328987  -0.259281  -0.034606  3.552516  -0.043
N  N64  1  0.14440561  0.26221343  0.91089029  1  -0.33165  -0.034983  3.281926  -0.041  -0.276832  -0.036419  3.558206  -0.047  -0.306003  -0.033278  3.570016  -0.046  -0.329152  -0.259597  -0.03457  3.552554  -0.043
N  N65  1  0.35563062  0.23786506  0.41081701  1  -0.330535  -0.035154  3.281569  -0.041  -0.276021  -0.036515  3.557915  -0.047  -0.305217  -0.033358  3.569742  -0.046  -0.328779  -0.258772  -0.034672  3.552261  -0.043
N  N66  1  0.61702182  0.87183953  0.08134287  1  -0.320162  0.050266  3.336053  0.059  -0.265822  0.043601  3.610991  0.056  -0.298278  0.0394  3.629896  0.053  -0.335831  -0.246281  0.039098  3.600173  0.049
N  N67  1  0.88298275  0.62808809  0.58137008  1  -0.320159  0.050212  3.33575  0.059  -0.266207  0.043535  3.611132  0.056  -0.298651  0.039354  3.629997  0.053  -0.336012  -0.246694  0.039046  3.600385  0.049
N  N68  1  0.38308001  0.12825258  0.91868403  1  -0.320132  0.050268  3.335829  0.059  -0.265701  0.043607  3.610772  0.056  -0.298204  0.039409  3.629707  0.053  -0.336013  -0.246197  0.039106  3.600004  0.049
N  N69  1  0.11712375  0.37204414  0.41865411  1  -0.320751  0.050243  3.335974  0.059  -0.266975  0.043585  3.611621  0.056  -0.299467  0.0394  3.630516  0.053  -0.336271  -0.247375  0.039078  3.600759  0.049
O  O70  1  0.73491594  0.96410205  0.90608758  1  -0.564389  -0.011311  1.990616  -0.013  -0.53585  -0.005873  2.25023  -0.008  -0.563722  -0.00274  2.238057  -0.003  -0.299798  -0.512658  -0.010509  2.256105  -0.014
O  O71  1  0.76492056  0.53575657  0.40611788  1  -0.564285  -0.011272  1.990851  -0.013  -0.53584  -0.005882  2.250348  -0.008  -0.563721  -0.00275  2.23817  -0.003  -0.299833  -0.512651  -0.010498  2.256231  -0.014
O  O72  1  0.26518996  0.03601137  0.09394945  1  -0.564332  -0.011311  1.990983  -0.013  -0.535753  -0.005878  2.250468  -0.008  -0.563632  -0.002746  2.23829  -0.003  -0.299674  -0.51255  -0.010513  2.256343  -0.014
O  O73  1  0.23500714  0.46397513  0.59396574  1  -0.563973  -0.011306  1.990183  -0.013  -0.535561  -0.005872  2.249846  -0.008  -0.563423  -0.002737  2.237659  -0.003  -0.299589  -0.512407  -0.010495  2.255759  -0.014
O  O74  1  0.97080587  0.84776082  0.92553533  1  -0.575997  -0.052513  2.093361  -0.065  -0.522847  -0.047167  2.349023  -0.066  -0.560262  -0.039341  2.343014  -0.058  -0.310023  -0.495944  -0.048603  2.351691  -0.065
O  O75  1  0.52908352  0.65218105  0.42556424  1  -0.575941  -0.052525  2.093522  -0.065  -0.523016  -0.047179  2.34922  -0.066  -0.560449  -0.039349  2.34324  -0.058  -0.309976  -0.496102  -0.048637  2.351843  -0.065
O  O76  1  0.02924584  0.15228262  0.07447806  1  -0.57568  -0.052491  2.093484  -0.065  -0.522608  -0.047163  2.349275  -0.066  -0.560002  -0.039335  2.343207  -0.058  -0.309844  -0.495701  -0.048608  2.351923  -0.065
O  O77  1  0.47094963  0.34768560  0.57444307  1  -0.575633  -0.052539  2.093594  -0.065  -0.522579  -0.047167  2.349321  -0.066  -0.559983  -0.03934  2.343238  -0.058  -0.309825  -0.495681  -0.048604  2.351978  -0.065
