# generated using pymatgen
data_ZnH12C12NO4
_symmetry_space_group_name_H-M   'P 1'
_cell_length_a   14.33788030
_cell_length_b   14.35878854
_cell_length_c   14.33684745
_cell_angle_alpha   95.54823929
_cell_angle_beta   116.75707011
_cell_angle_gamma   116.89087478
_symmetry_Int_Tables_number   1
_chemical_formula_structural   ZnH12C12NO4
_chemical_formula_sum   'Zn4 H48 C48 N4 O16'
_cell_volume   2177.02937082
_cell_formula_units_Z   4
loop_
 _symmetry_equiv_pos_site_id
 _symmetry_equiv_pos_as_xyz
  1  'x, y, z'
loop_
 _atom_site_type_symbol
 _atom_site_label
 _atom_site_symmetry_multiplicity
 _atom_site_fract_x
 _atom_site_fract_y
 _atom_site_fract_z
 _atom_site_occupancy
 _atom_site_pbe_bader_charge
 _atom_site_pbe_bader_spin_density
 _atom_site_pbe_cm5_charge
 _atom_site_pbe_ddec_charge
 _atom_site_pbe_ddec_spin_density
 _atom_site_pbe_ddec_sum_bond_order
 _atom_site_pbe_magmom
Zn  Zn0  1  0.97398871  0.55414361  0.56655149  1  1.289766  0  0.67357  0.82749  0  2.352044  0
Zn  Zn1  1  0.96956929  0.90145063  0.91797912  1  1.289258  0  0.673093  0.82775  0  2.349398  0
Zn  Zn2  1  0.98324206  0.40142874  0.43174169  1  1.289444  0  0.673326  0.828048  0  2.348616  0
Zn  Zn3  1  0.98734336  0.05399053  0.08001150  1  1.289704  0  0.673699  0.827647  0  2.351662  0
H  H4  1  0.92487088  0.37629947  0.77300451  1  0.08093  0  0.101832  0.104079  0  1.011914  0
H  H5  1  0.99267979  0.88074852  0.46373787  1  0.060275  0  0.096322  0.129726  0  1.025101  0
H  H6  1  0.13293359  0.00733488  0.59215861  1  0.036454  0  0.095444  0.12635  0  0.999356  0
H  H7  1  0.15406723  0.85374065  0.49205628  1  0.068249  0  0.101657  0.100672  0  1.018641  0
H  H8  1  0.04103826  0.61075066  0.80191990  1  0.074216  0  0.113809  0.102239  0  0.966272  0
H  H9  1  0.87470076  0.53314546  0.71798741  1  0.0673  0  0.112852  0.101219  0  0.972818  0
H  H10  1  0.36679695  0.76300755  0.83663476  1  0.08054  0  0.100763  0.102595  0  1.010373  0
H  H11  1  0.76858040  0.57876876  0.56269960  1  0.075929  0  0.111643  0.098251  0  0.975379  0
H  H12  1  0.85872872  0.69734965  0.54120083  1  0.077143  0  0.111588  0.097481  0  0.970135  0
H  H13  1  0.59824696  0.47089964  0.31869946  1  0.100292  0  0.102584  0.105016  0  1.00638  0
H  H14  1  0.08329409  0.80250021  0.65446513  1  0.069167  0  0.108885  0.096722  0  0.996625  0
H  H15  1  0.16101123  0.76929380  0.76882675  1  0.063933  0  0.111128  0.09995  0  0.978906  0
H  H16  1  0.35938507  0.07675793  0.05477193  1  0.074113  0  0.101416  0.10335  0  1.010345  0
H  H17  1  0.84941795  0.81151979  0.66277097  1  0.051014  0  0.108864  0.094943  0  0.991084  0
H  H18  1  0.76831595  0.69509393  0.69231756  1  0.094226  0  0.112208  0.100507  0  0.97366  0
H  H19  1  0.59000959  0.59781577  0.79156040  1  0.05979  0  0.101544  0.104407  0  1.005314  0
H  H20  1  0.16112233  0.89719334  0.88713368  1  0.077673  0  0.110456  0.097456  0  0.980467  0
H  H21  1  0.07496691  0.92264007  0.77040809  1  0.070933  0  0.110871  0.097425  0  0.982427  0
H  H22  1  0.02153276  0.69420336  0.09787349  1  0.088855  0  0.101829  0.103599  0  1.010522  0
H  H23  1  0.99366991  0.03476004  0.63221627  1  0.083858  0  0.098048  0.133048  0  1.017266  0
H  H24  1  0.85387243  0.90833134  0.50386406  1  0.038242  0  0.094819  0.124532  0  1.004671  0
H  H25  1  0.80332570  0.98386763  0.62979407  1  0.056055  0  0.100973  0.100136  0  1.021153  0
H  H26  1  0.88286606  0.65747016  0.84792044  1  0.05722  0  0.113797  0.101695  0  0.963745  0
H  H27  1  0.04926049  0.73884520  0.92781343  1  0.064912  0  0.111932  0.102291  0  0.978944  0
H  H28  1  0.02163477  0.57663569  0.21700889  1  0.061757  0  0.101312  0.103264  0  1.010028  0
H  H29  1  0.14799279  0.31078796  0.46220610  1  0.059668  0  0.108899  0.095067  0  0.991859  0
H  H30  1  0.00174876  0.19448275  0.42641331  1  0.074615  0  0.112388  0.100672  0  0.974581  0
H  H31  1  0.80674476  0.09828555  0.50801277  1  0.102646  0  0.101543  0.103243  0  1.006472  0
H  H32  1  0.01058997  0.39731051  0.23644345  1  0.05955  0  0.110588  0.097944  0  0.980537  0
H  H33  1  0.15242095  0.42227075  0.34815147  1  0.066477  0  0.110908  0.097149  0  0.982515  0
H  H34  1  0.59609348  0.19431212  0.17243948  1  0.075681  0  0.1018  0.103934  0  1.011174  0
H  H35  1  0.39856390  0.53269109  0.53927633  1  0.080109  0  0.097923  0.132649  0  1.01659  0
H  H36  1  0.40211167  0.40719137  0.55365390  1  0.033712  0  0.094812  0.123755  0  1.005096  0
H  H37  1  0.35386795  0.48345468  0.68076092  1  0.082391  0  0.101162  0.100588  0  1.021205  0
H  H38  1  0.80902751  0.15744405  0.27411950  1  0.056199  0  0.113921  0.102118  0  0.963401  0
H  H39  1  0.81108324  0.23904489  0.18931737  1  0.072015  0  0.111864  0.102178  0  0.978735  0
H  H40  1  0.60324476  0.87625450  0.95085855  1  0.078319  0  0.101637  0.103627  0  1.011585  0
H  H41  1  0.42163595  0.38299444  0.39116744  1  0.056771  0  0.096248  0.130114  0  1.025137  0
H  H42  1  0.41818218  0.50868474  0.37640460  1  0.047814  0  0.096229  0.128009  0  0.999459  0
H  H43  1  0.36153555  0.35355339  0.20031248  1  0.06103  0  0.101901  0.101085  0  1.018859  0
H  H44  1  0.80887834  0.11091434  0.06954071  1  0.063886  0  0.113554  0.102084  0  0.966403  0
H  H45  1  0.81463928  0.03306004  0.15808273  1  0.041835  0  0.112729  0.101122  0  0.972526  0
H  H46  1  0.92579854  0.26296406  0.89613455  1  0.095959  0  0.100697  0.102284  0  1.010038  0
H  H47  1  0.01515300  0.07816876  0.30995295  1  0.069235  0  0.111846  0.098856  0  0.974484  0
H  H48  1  0.15557597  0.19675239  0.33883705  1  0.074351  0  0.111634  0.09765  0  0.969599  0
H  H49  1  0.15285693  0.97105990  0.37269836  1  0.091467  0  0.102583  0.104948  0  1.005853  0
H  H50  1  0.14821698  0.30217236  0.21973027  1  0.065858  0  0.108865  0.096493  0  0.996417  0
H  H51  1  0.00094363  0.26933378  0.10862779  1  0.065867  0  0.111121  0.100052  0  0.97857  0
C  C52  1  0.89749676  0.28986049  0.74219368  1  -0.022271  0  -0.085612  -0.09743  0  3.983039  0
C  C53  1  0.03052559  0.95019138  0.53709607  1  -0.124971  0  -0.177837  -0.240765  0  3.948535  0
C  C54  1  0.12592322  0.82000938  0.40577468  1  -0.034601  0  -0.087316  -0.10207  0  3.99858  0
C  C55  1  0.96060809  0.61824482  0.75955213  1  0.228783  0  -0.069806  -0.091667  0  3.827146  0
C  C56  1  0.41661866  0.72690198  0.82885138  1  0.027074  0  -0.08946  -0.100634  0  3.990021  0
C  C57  1  0.85266337  0.66518380  0.60601931  1  0.23669  0  -0.066717  -0.085601  0  3.81637  0
C  C58  1  0.54488721  0.38480895  0.25976561  1  0.02961  0  -0.086566  -0.100119  0  3.990989  0
C  C59  1  0.08028066  0.77563428  0.72268138  1  0.248419  0  -0.070644  -0.092277  0  3.817655  0
C  C60  1  0.41264556  0.16373681  0.11163769  1  -0.086384  0  -0.087487  -0.099176  0  3.987949  0
C  C61  1  0.85044233  0.74196876  0.68773920  1  0.213996  0  -0.067728  -0.091787  0  3.810593  0
C  C62  1  0.54031902  0.63272089  0.80215419  1  -0.061434  0  -0.086294  -0.101016  0  3.990355  0
C  C63  1  0.07828776  0.85603495  0.80031890  1  0.228197  0  -0.07046  -0.087664  0  3.82669  0
C  C64  1  0.05185022  0.72868795  0.18486907  1  0.019585  0  -0.085607  -0.095065  0  3.985936  0
C  C65  1  0.95629624  0.96528324  0.55914024  1  -0.084847  0  -0.177578  -0.242813  0  3.956108  0
C  C66  1  0.82959743  0.06989992  0.66013342  1  -0.033185  0  -0.086462  -0.100087  0  3.996642  0
C  C67  1  0.96477072  0.69990270  0.84228164  1  0.256864  0  -0.069727  -0.091344  0  3.824478  0
C  C68  1  0.05197971  0.66367488  0.25082536  1  -0.076336  0  -0.087501  -0.099392  0  3.987221  0
C  C69  1  0.05350163  0.24142102  0.39142320  1  0.230194  0  -0.068326  -0.092622  0  3.813809  0
C  C70  1  0.83085678  0.13307092  0.59255774  1  -0.083045  0  -0.086701  -0.100393  0  3.990261  0
C  C71  1  0.05588700  0.35589290  0.27804773  1  0.248644  0  -0.070496  -0.087634  0  3.826018  0
C  C72  1  0.54361179  0.22874179  0.17675674  1  -0.00993  0  -0.085965  -0.096096  0  3.986879  0
C  C73  1  0.40458031  0.46446801  0.50854523  1  -0.095378  0  -0.177425  -0.24105  0  3.957052  0
C  C74  1  0.40958125  0.56958139  0.74031065  1  -0.040059  0  -0.086797  -0.100608  0  3.996964  0
C  C75  1  0.85736688  0.19989201  0.23485534  1  0.250255  0  -0.069955  -0.092033  0  3.824488  0
C  C76  1  0.54757132  0.78974450  0.89192912  1  -0.123491  0  -0.085246  -0.096355  0  3.981169  0
C  C77  1  0.41524702  0.45118584  0.42128212  1  -0.113729  0  -0.178641  -0.24348  0  3.950072  0
C  C78  1  0.41408244  0.31991494  0.19452371  1  -0.082649  0  -0.087564  -0.10218  0  3.999101  0
C  C79  1  0.85845092  0.11821047  0.15741178  1  0.268875  0  -0.069746  -0.091861  0  3.826602  0
C  C80  1  0.89776641  0.22699046  0.81028817  1  -0.08633  0  -0.088502  -0.098858  0  3.988622  0
C  C81  1  0.05854145  0.16465330  0.31248800  1  0.244115  0  -0.066496  -0.08603  0  3.817002  0
C  C82  1  0.12555088  0.88493220  0.33988505  1  -0.01542  0  -0.086439  -0.099248  0  3.989057  0
C  C83  1  0.05314160  0.27548035  0.19568143  1  0.239982  0  -0.070454  -0.091896  0  3.818277  0
C  C84  1  0.86835625  0.24477740  0.63432396  1  0.006434  0  -0.014099  -0.020416  0  3.957321  0
C  C85  1  0.88889211  0.31909699  0.56929692  1  1.559553  0  0.214148  0.590966  0  4.171802  0
C  C86  1  0.08566783  0.70792373  0.36072448  1  0.042053  0  -0.015298  -0.023257  0  3.963974  0
C  C87  1  0.06699115  0.63263921  0.42509734  1  1.549305  0  0.21561  0.591689  0  4.175825  0
C  C88  1  0.34652642  0.61748923  0.74987916  1  -0.010058  0  -0.016432  -0.025879  0  3.959678  0
C  C89  1  0.20690614  0.55711035  0.66827959  1  1.5667  0  0.216694  0.592039  0  4.167403  0
C  C90  1  0.61058246  0.33864377  0.25342526  1  -0.028477  0  -0.015759  -0.023743  0  3.96356  0
C  C91  1  0.75033935  0.40187357  0.33481185  1  1.587467  0  0.214818  0.589714  0  4.179969  0
C  C92  1  0.34705161  0.20792351  0.12240760  1  -0.016742  0  -0.015649  -0.023846  0  3.964203  0
C  C93  1  0.20738721  0.13265134  0.06563169  1  1.566319  0  0.215818  0.592069  0  4.175117  0
C  C94  1  0.61030263  0.74452951  0.87613012  1  0.039428  0  -0.013994  -0.020057  0  3.957626  0
C  C95  1  0.74964000  0.81885100  0.92988317  1  1.565699  0  0.2142  0.590116  0  4.173708  0
C  C96  1  0.08533102  0.83866388  0.22789965  1  -0.099518  0  -0.016395  -0.025151  0  3.964657  0
C  C97  1  0.06700890  0.90186885  0.15136742  1  1.557167  0  0.214827  0.589622  0  4.180498  0
C  C98  1  0.86758449  0.11766672  0.77099977  1  0.021886  0  -0.016472  -0.026167  0  3.959692  0
C  C99  1  0.88872166  0.05724258  0.85021955  1  1.553731  0  0.216288  0.59136  0  4.167843  0
N  N100  1  0.96455687  0.65976954  0.66930677  1  -0.997162  0  -0.338582  -0.103221  0  3.443593  0
N  N101  1  0.96490954  0.79272948  0.80389895  1  -0.993625  0  -0.337387  -0.10236  0  3.441409  0
N  N102  1  0.98855288  0.29251946  0.32777857  1  -0.995123  0  -0.337176  -0.101903  0  3.441158  0
N  N103  1  0.99023070  0.15951404  0.19523221  1  -0.990112  0  -0.338337  -0.103181  0  3.444954  0
O  O104  1  0.89835551  0.41100175  0.59979419  1  -1.169275  0  -0.317411  -0.559858  0  2.35247  0
O  O105  1  0.05740848  0.66454892  0.50466581  1  -1.165133  0  -0.317361  -0.548023  0  2.327494  0
O  O106  1  0.15177325  0.59653878  0.68935127  1  -1.172217  0  -0.317607  -0.554622  0  2.331198  0
O  O107  1  0.80152397  0.48727013  0.42012236  1  -1.176996  0  -0.317915  -0.552725  0  2.339678  0
O  O108  1  0.14804800  0.04111878  0.98371827  1  -1.179984  0  -0.316226  -0.556205  0  2.354904  0
O  O109  1  0.79507213  0.78643633  0.88589213  1  -1.165317  0  -0.318147  -0.550387  0  2.317075  0
O  O110  1  0.04799443  0.86310629  0.05637256  1  -1.170481  0  -0.316758  -0.555362  0  2.359149  0
O  O111  1  0.89217416  0.97337811  0.81821080  1  -1.172725  0  -0.318295  -0.551048  0  2.324522  0
O  O112  1  0.05728650  0.54108157  0.39295024  1  -1.168762  0  -0.316302  -0.556169  0  2.355551  0
O  O113  1  0.90028811  0.28662046  0.49134948  1  -1.168384  0  -0.318581  -0.55084  0  2.316318  0
O  O114  1  0.80653807  0.36316440  0.31498553  1  -1.169413  0  -0.316907  -0.555451  0  2.359795  0
O  O115  1  0.15501655  0.47321337  0.58099733  1  -1.180252  0  -0.318496  -0.551616  0  2.325095  0
O  O116  1  0.81107225  0.91069102  0.01238632  1  -1.177711  0  -0.317658  -0.559547  0  2.35332  0
O  O117  1  0.15961097  0.16447966  0.10699106  1  -1.169164  0  -0.317313  -0.548016  0  2.327788  0
O  O118  1  0.90691421  0.09655391  0.94472113  1  -1.170242  0  -0.317637  -0.554528  0  2.331311  0
O  O119  1  0.06707786  0.98721296  0.18560842  1  -1.172793  0  -0.317768  -0.552252  0  2.340772  0
