# generated using pymatgen
data_ZnH26C30(NO)4
_symmetry_space_group_name_H-M   'P 1'
_cell_length_a   12.13523342
_cell_length_b   12.11699685
_cell_length_c   12.21424183
_cell_angle_alpha   61.28560718
_cell_angle_beta   78.18184781
_cell_angle_gamma   107.61916173
_symmetry_Int_Tables_number   1
_chemical_formula_structural   ZnH26C30(NO)4
_chemical_formula_sum   'Zn2 H52 C60 N8 O8'
_cell_volume   1363.12578577
_cell_formula_units_Z   2
loop_
 _symmetry_equiv_pos_site_id
 _symmetry_equiv_pos_as_xyz
  1  'x, y, z'
loop_
 _atom_site_type_symbol
 _atom_site_label
 _atom_site_symmetry_multiplicity
 _atom_site_fract_x
 _atom_site_fract_y
 _atom_site_fract_z
 _atom_site_occupancy
 _atom_site_hle17_bader_spin_density
 _atom_site_hle17_ddec_charge
 _atom_site_hle17_ddec_spin_density
 _atom_site_hle17_ddec_sum_bond_order
 _atom_site_hle17_magmom
 _atom_site_hse06_10hf_bader_spin_density
 _atom_site_hse06_10hf_ddec_charge
 _atom_site_hse06_10hf_ddec_spin_density
 _atom_site_hse06_10hf_ddec_sum_bond_order
 _atom_site_hse06_10hf_magmom
 _atom_site_hse06_bader_spin_density
 _atom_site_hse06_ddec_charge
 _atom_site_hse06_ddec_spin_density
 _atom_site_hse06_ddec_sum_bond_order
 _atom_site_hse06_magmom
 _atom_site_pbe_bader_charge
 _atom_site_pbe_bader_spin_density
 _atom_site_pbe_cm5_charge
 _atom_site_pbe_ddec_charge
 _atom_site_pbe_ddec_spin_density
 _atom_site_pbe_ddec_sum_bond_order
 _atom_site_pbe_magmom
Zn  Zn0  1  0.45574291  0.75136665  0.29544153  1  0  0.988359  0  1.881515  0  0  0.795617  0  2.360768  0  0  0.84244  0  2.306832  0  1.241628  0  0.688937  0.762991  0  2.39768  0
Zn  Zn1  1  0.04643763  0.25113447  0.20335937  1  0  0.988478  0  1.87847  0  0  0.795787  0  2.357224  0  0  0.842601  0  2.30337  0  1.242713  0  0.688487  0.763154  0  2.394092  0
H  H2  1  0.74989995  0.86174880  0.25859958  1  0  0.1134  0  0.959657  0  0  0.118224  0  1.030804  0  0  0.120675  0  1.028189  0  0.195427  0  0.137769  0.116368  0  1.032728  0
H  H3  1  0.75512315  0.99575218  0.38556498  1  0  0.112717  0  0.960858  0  0  0.117749  0  1.031405  0  0  0.120266  0  1.028661  0  0.211437  0  0.137942  0.115842  0  1.033443  0
H  H4  1  0.12086945  0.50812456  0.24115300  1  0  0.113383  0  0.959307  0  0  0.118583  0  1.02987  0  0  0.12108  0  1.027178  0  0.190104  0  0.138405  0.116655  0  1.031887  0
H  H5  1  0.38130225  0.64054227  0.11293592  1  0  0.112693  0  0.962012  0  0  0.117711  0  1.032774  0  0  0.12025  0  1.029992  0  0.198814  0  0.137607  0.115826  0  1.034764  0
H  H6  1  0.35638216  0.26513752  0.68006130  1  0  0.086403  0  0.960504  0  0  0.099203  0  1.019929  0  0  0.101616  0  1.019068  0  0.042601  0  0.09956  0.09746  0  1.020628  0
H  H7  1  0.14201539  0.96276460  0.59285901  1  0  0.086764  0  0.961808  0  0  0.099486  0  1.021116  0  0  0.101941  0  1.020205  0  0.040389  0  0.099578  0.097725  0  1.021824  0
H  H8  1  0.94366841  0.53708530  0.82198631  1  0  0.086129  0  0.961434  0  0  0.098844  0  1.020853  0  0  0.101291  0  1.019951  0  0.046651  0  0.099587  0.097075  0  1.021582  0
H  H9  1  0.55767849  0.23508000  0.90507457  1  0  0.086569  0  0.960892  0  0  0.09924  0  1.020362  0  0  0.101749  0  1.019384  0  0.046214  0  0.09997  0.09744  0  1.021136  0
H  H10  1  0.01066189  0.21586774  0.98737509  1  0  0.09373  0  0.926838  0  0  0.105837  0  0.99284  0  0  0.107182  0  0.991487  0  0.126176  0  0.113588  0.104783  0  0.993951  0
H  H11  1  0.48820945  0.00309144  0.29517502  1  0  0.094622  0  0.928269  0  0  0.106901  0  0.994324  0  0  0.108244  0  0.992973  0  0.095642  0  0.114713  0.10583  0  0.995443  0
H  H12  1  0.20339269  0.49949409  0.51395672  1  0  0.096216  0  0.925472  0  0  0.108536  0  0.99117  0  0  0.109948  0  0.989823  0  0.106599  0  0.114317  0.107406  0  0.992319  0
H  H13  1  0.29846246  0.28313238  0.20324062  1  0  0.095876  0  0.925498  0  0  0.108012  0  0.991377  0  0  0.109502  0  0.989912  0  0.105865  0  0.114789  0.106849  0  0.992549  0
H  H14  1  0.97825264  0.04423100  0.12034656  1  0  0.096273  0  0.939672  0  0  0.110058  0  1.003224  0  0  0.110165  0  1.004301  0  0.10236  0  0.118735  0.109863  0  1.002651  0
H  H15  1  0.52621387  0.90401611  0.43001697  1  0  0.095796  0  0.939323  0  0  0.110293  0  1.00292  0  0  0.110408  0  1.003909  0  0.127988  0  0.11868  0.110084  0  1.002389  0
H  H16  1  0.16402344  0.59877075  0.38054543  1  0  0.097908  0  0.937283  0  0  0.112315  0  1.000308  0  0  0.112511  0  1.001357  0  0.13171  0  0.119  0.11205  0  0.999766  0
H  H17  1  0.33325949  0.45502527  0.06862734  1  0  0.097621  0  0.940545  0  0  0.111471  0  1.00436  0  0  0.111638  0  1.005401  0  0.110821  0  0.119547  0.111206  0  1.003831  0
H  H18  1  0.04096593  0.87640138  0.81523602  1  0  0.088669  0  0.942944  0  0  0.10284  0  0.996646  0  0  0.105759  0  0.995191  0  0.065176  0  0.10198  0.100754  0  0.997746  0
H  H19  1  0.46085460  0.14430473  0.66344893  1  0  0.088953  0  0.943865  0  0  0.102779  0  0.998019  0  0  0.105709  0  0.99657  0  0.041934  0  0.101611  0.100686  0  0.999096  0
H  H20  1  0.69322285  0.35612836  0.68289956  1  0  0.090295  0  0.942539  0  0  0.104551  0  0.99616  0  0  0.107374  0  0.994842  0  0.069123  0  0.103026  0.102507  0  0.99721  0
H  H21  1  0.80492721  0.62347582  0.83851965  1  0  0.089522  0  0.943818  0  0  0.103319  0  0.997885  0  0  0.106129  0  0.9966  0  0.065827  0  0.102284  0.101295  0  0.998892  0
H  H22  1  0.58708181  0.02516498  0.98421223  1  0  0.105981  0  0.97649  0  0  0.114657  0  1.037398  0  0  0.117244  0  1.035866  0  0.136836  0  0.115665  0.112772  0  1.038568  0
H  H23  1  0.90807004  0.42856270  0.06173333  1  0  0.106078  0  0.972687  0  0  0.114839  0  1.033907  0  0  0.117309  0  1.032546  0  0.158943  0  0.116133  0.113028  0  1.034989  0
H  H24  1  0.00974841  0.07246094  0.51566884  1  0  0.108444  0  0.975658  0  0  0.11681  0  1.036706  0  0  0.119377  0  1.035214  0  0.142142  0  0.11676  0.114941  0  1.037854  0
H  H25  1  0.49099330  0.47136218  0.43837610  1  0  0.105988  0  0.97281  0  0  0.115156  0  1.033151  0  0  0.117619  0  1.031802  0  0.128935  0  0.116132  0.113268  0  1.034302  0
H  H26  1  0.21830197  0.28367038  0.84387541  1  0  0.101591  0  0.959215  0  0  0.112759  0  1.018885  0  0  0.11584  0  1.017144  0  0.083993  0  0.103235  0.110503  0  1.020243  0
H  H27  1  0.28050609  0.93773551  0.43587967  1  0  0.101875  0  0.958797  0  0  0.113534  0  1.017631  0  0  0.116551  0  1.015972  0  0.090065  0  0.103722  0.111309  0  1.018964  0
H  H28  1  0.12596946  0.56302877  0.65871621  1  0  0.101449  0  0.959158  0  0  0.113375  0  1.017766  0  0  0.11632  0  1.016178  0  0.076372  0  0.103568  0.111216  0  1.01901  0
H  H29  1  0.37559471  0.21619931  0.06164546  1  0  0.101672  0  0.958908  0  0  0.113834  0  1.01698  0  0  0.116733  0  1.015504  0  0.090412  0  0.104039  0.1117  0  1.018186  0
H  H30  1  0.90315615  0.89886348  0.97359110  1  0  0.098011  0  0.944199  0  0  0.110176  0  0.999411  0  0  0.112842  0  0.998888  0  0.090827  0  0.104444  0.108275  0  0.999841  0
H  H31  1  0.59896262  0.12404688  0.50305473  1  0  0.097117  0  0.943823  0  0  0.109303  0  0.999141  0  0  0.111974  0  0.998596  0  0.064917  0  0.103745  0.107377  0  0.99962  0
H  H32  1  0.87426312  0.37707398  0.52487828  1  0  0.09734  0  0.945104  0  0  0.109745  0  1.000156  0  0  0.112394  0  0.999645  0  0.063601  0  0.10427  0.107847  0  1.000582  0
H  H33  1  0.62421197  0.60085364  0.99854106  1  0  0.09717  0  0.943303  0  0  0.109604  0  0.998445  0  0  0.112322  0  0.997865  0  0.072725  0  0.104199  0.107632  0  0.998957  0
H  H34  1  0.34976506  0.49572638  0.75305186  1  0  0.104815  0  0.962338  0  0  0.117282  0  1.026599  0  0  0.12015  0  1.024153  0  0.065753  0  0.096488  0.115189  0  1.028448  0
H  H35  1  0.15196054  0.89269171  0.35410592  1  0  0.105497  0  0.964907  0  0  0.117065  0  1.029778  0  0  0.120018  0  1.027222  0  0.034252  0  0.096855  0.114925  0  1.031689  0
H  H36  1  0.25024052  0.60218325  0.74622852  1  0  0.103634  0  0.964606  0  0  0.116299  0  1.028728  0  0  0.119176  0  1.02622  0  0.051826  0  0.096884  0.114233  0  1.030624  0
H  H37  1  0.24552651  0.00527585  0.14647409  1  0  0.104608  0  0.963931  0  0  0.117079  0  1.028416  0  0  0.120061  0  1.025758  0  0.053136  0  0.096671  0.11489  0  1.030397  0
H  H38  1  0.50422183  0.50868279  0.72292442  1  0  0.10565  0  0.940043  0  0  0.120694  0  0.999162  0  0  0.122231  0  0.999568  0  0.050868  0  0.096728  0.119603  0  0.998902  0
H  H39  1  0.99815258  0.77248571  0.49284939  1  0  0.105489  0  0.939252  0  0  0.11998  0  0.998219  0  0  0.121575  0  0.998528  0  0.045257  0  0.096355  0.118854  0  0.99804  0
H  H40  1  0.23215890  0.72591662  0.77739201  1  0  0.107069  0  0.939127  0  0  0.121834  0  0.9981  0  0  0.123355  0  0.99846  0  0.052121  0  0.098056  0.12079  0  0.997865  0
H  H41  1  0.26316776  0.98914162  0.00748786  1  0  0.105014  0  0.93935  0  0  0.119895  0  0.998498  0  0  0.121435  0  0.998847  0  0.080687  0  0.096442  0.118789  0  0.998282  0
H  H42  1  0.85067551  0.20200321  0.85086361  1  0  0.109908  0  0.990412  0  0  0.116081  0  1.058449  0  0  0.117588  0  1.059957  0  0.142422  0  0.116681  0.114954  0  1.057519  0
H  H43  1  0.64370849  0.29806419  0.14905579  1  0  0.107348  0  0.99718  0  0  0.113236  0  1.065889  0  0  0.114757  0  1.067455  0  0.140036  0  0.11541  0.112094  0  1.064922  0
H  H44  1  0.05385285  0.20342851  0.64983228  1  0  0.107572  0  0.994085  0  0  0.113765  0  1.062093  0  0  0.115264  0  1.063621  0  0.114091  0  0.115588  0.112622  0  1.061146  0
H  H45  1  0.44574581  0.29250252  0.35184356  1  0  0.107333  0  0.996375  0  0  0.113247  0  1.06509  0  0  0.114687  0  1.066741  0  0.1374  0  0.115339  0.112144  0  1.064109  0
H  H46  1  0.69032927  0.74711024  0.62462008  1  0  0.102341  0  0.952301  0  0  0.112048  0  1.01597  0  0  0.11566  0  1.013615  0  0.085399  0  0.099114  0.109432  0  1.017739  0
H  H47  1  0.81031315  0.68251129  0.44375364  1  0  0.103558  0  0.952273  0  0  0.113049  0  1.016071  0  0  0.11665  0  1.013752  0  0.104615  0  0.098672  0.110446  0  1.017818  0
H  H48  1  0.37161730  0.81457577  0.87709092  1  0  0.102661  0  0.952619  0  0  0.112072  0  1.016728  0  0  0.115627  0  1.014433  0  0.080012  0  0.097991  0.109451  0  1.018525  0
H  H49  1  0.12598333  0.75244808  0.05589058  1  0  0.103137  0  0.953545  0  0  0.112643  0  1.017301  0  0  0.116228  0  1.014988  0  0.081666  0  0.098405  0.11004  0  1.019059  0
H  H50  1  0.76157941  0.91913942  0.68078436  1  0  0.083369  0  0.956622  0  0  0.095812  0  1.014984  0  0  0.098852  0  1.013561  0  0.0546  0  0.093854  0.093646  0  1.016054  0
H  H51  1  0.73815794  0.55586411  0.34287335  1  0  0.083811  0  0.958732  0  0  0.095888  0  1.017525  0  0  0.098909  0  1.016115  0  0.054467  0  0.093591  0.093695  0  1.01862  0
H  H52  1  0.59881603  0.94308902  0.82025659  1  0  0.083391  0  0.95972  0  0  0.095119  0  1.018796  0  0  0.09814  0  1.017391  0  0.056962  0  0.093192  0.0929  0  1.019916  0
H  H53  1  0.89982583  0.58052184  0.15539907  1  0  0.082799  0  0.959814  0  0  0.094639  0  1.019277  0  0  0.097644  0  1.017901  0  0.064705  0  0.093185  0.092483  0  1.020337  0
C  C54  1  0.74062379  0.93091765  0.16684162  1  0  0.159189  0  3.644369  0  0  0.095895  0  3.911552  0  0  0.110109  0  3.923654  0  0.974551  0  0.143573  0.086738  0  3.903104  0
C  C55  1  0.76155048  0.09556115  0.30803992  1  0  0.161025  0  3.641943  0  0  0.097811  0  3.908917  0  0  0.111996  0  3.920946  0  0.918706  0  0.145441  0.088663  0  3.900517  0
C  C56  1  0.09848257  0.40765640  0.33300688  1  0  0.158318  0  3.64503  0  0  0.094861  0  3.912254  0  0  0.109046  0  3.924354  0  0.961559  0  0.143312  0.085769  0  3.903844  0
C  C57  1  0.40344979  0.56967249  0.19105226  1  0  0.1599  0  3.646326  0  0  0.096507  0  3.913535  0  0  0.110638  0  3.925613  0  0.953757  0  0.144182  0.087382  0  3.905129  0
C  C58  1  0.20909141  0.06922783  0.73513617  1  0  0.045903  0  3.799271  0  0  0.057963  0  4.035635  0  0  0.057827  0  4.06073  0  -0.054373  0  -0.007485  0.058043  0  4.018638  0
C  C59  1  0.29105369  0.05579494  0.64000229  1  0  0.043323  0  3.801417  0  0  0.055432  0  4.037822  0  0  0.055267  0  4.062981  0  -0.054613  0  -0.009775  0.055539  0  4.020768  0
C  C60  1  0.80427644  0.44434831  0.76501033  1  0  0.045619  0  3.799102  0  0  0.057542  0  4.035753  0  0  0.057447  0  4.060801  0  -0.032056  0  -0.008321  0.057614  0  4.018754  0
C  C61  1  0.69551957  0.43079848  0.85999596  1  0  0.043605  0  3.799452  0  0  0.055736  0  4.035909  0  0  0.055529  0  4.061086  0  -0.002118  0  -0.009468  0.05585  0  4.018868  0
C  C62  1  0.05149227  0.09371558  0.91839387  1  0  0.072658  0  3.743462  0  0  0.091278  0  3.984405  0  0  0.09087  0  4.00796  0  -0.052152  0  -0.012318  0.091555  0  3.968412  0
C  C63  1  0.44900295  0.03070304  0.45761014  1  0  0.070006  0  3.743911  0  0  0.08881  0  3.985223  0  0  0.088396  0  4.008697  0  -0.044404  0  -0.012873  0.089076  0  3.969245  0
C  C64  1  0.01236564  0.47072631  0.58201443  1  0  0.074163  0  3.744772  0  0  0.093322  0  3.985675  0  0  0.092956  0  4.009301  0  -0.019067  0  -0.009583  0.093577  0  3.969611  0
C  C65  1  0.48773999  0.40590745  0.04188823  1  0  0.071523  0  3.746129  0  0  0.091613  0  3.985789  0  0  0.091283  0  4.009276  0  -0.024815  0  -0.010669  0.091819  0  3.969799  0
C  C66  1  0.48445072  0.63489913  0.53946949  1  0  0.678089  0  3.878839  0  0  0.636017  0  4.176639  0  0  0.668539  0  4.169587  0  1.548688  0  0.196055  0.613957  0  4.180607  0
C  C67  1  0.01755199  0.97651127  0.34917974  1  0  0.681357  0  3.874603  0  0  0.638013  0  4.173065  0  0  0.670528  0  4.166011  0  1.539806  0  0.196039  0.615975  0  4.177033  0
C  C68  1  0.17417368  0.52302887  0.96033587  1  0  0.679831  0  3.87475  0  0  0.637936  0  4.172252  0  0  0.670455  0  4.165142  0  1.545275  0  0.196594  0.615912  0  4.176263  0
C  C69  1  0.32560941  0.86704119  0.15052817  1  0  0.678783  0  3.878859  0  0  0.63569  0  4.177372  0  0  0.668134  0  4.170434  0  1.560352  0  0.195631  0.613678  0  4.181257  0
C  C70  1  0.49017537  0.68195029  0.71854252  1  0  0.062799  0  3.698772  0  0  0.079149  0  3.935472  0  0  0.07837  0  3.961302  0  -0.018338  0  -0.013047  0.07963  0  3.918026  0
C  C71  1  0.00953090  0.79022144  0.30788383  1  0  0.064391  0  3.705077  0  0  0.080006  0  3.941982  0  0  0.079228  0  3.967723  0  0.012695  0  -0.012406  0.080491  0  3.924628  0
C  C72  1  0.40024837  0.70702867  0.78347929  1  0  0.066659  0  3.696011  0  0  0.083124  0  3.932551  0  0  0.082334  0  3.958296  0  -0.054339  0  -0.012167  0.083633  0  3.91521  0
C  C73  1  0.09809993  0.81663504  0.19223677  1  0  0.063681  0  3.700955  0  0  0.079414  0  3.938797  0  0  0.078639  0  3.964421  0  -0.024341  0  -0.013691  0.07988  0  3.921492  0
C  C74  1  0.25738925  0.18337696  0.74544087  1  0  -0.112968  0  3.761469  0  0  -0.133376  0  4.011956  0  0  -0.136025  0  4.033489  0  -0.000764  0  -0.091533  -0.131512  0  3.997315  0
C  C75  1  0.24185452  0.99675140  0.57503240  1  0  -0.113469  0  3.763108  0  0  -0.133658  0  4.013358  0  0  -0.136349  0  4.034974  0  -0.028706  0  -0.09048  -0.131765  0  3.998647  0
C  C76  1  0.92787508  0.50329556  0.75593281  1  0  -0.111816  0  3.759714  0  0  -0.131815  0  4.009962  0  0  -0.134503  0  4.031522  0  -0.012671  0  -0.090747  -0.129921  0  3.995281  0
C  C77  1  0.57280203  0.31677916  0.92368404  1  0  -0.112108  0  3.762579  0  0  -0.132361  0  4.013147  0  0  -0.135054  0  4.034683  0  -0.094737  0  -0.091289  -0.130465  0  3.998506  0
C  C78  1  0.97262967  0.10458788  0.02180307  1  0  -0.046141  0  3.651138  0  0  -0.110946  0  3.897175  0  0  -0.106473  0  3.907433  0  0.265239  0  -0.044266  -0.113914  0  3.890375  0
C  C79  1  0.52836415  0.00726899  0.36677837  1  0  -0.046265  0  3.65405  0  0  -0.112728  0  3.901574  0  0  -0.108193  0  3.91177  0  0.282127  0  -0.044736  -0.115669  0  3.894733  0
C  C80  1  0.12667028  0.49533740  0.47897147  1  0  -0.050193  0  3.65102  0  0  -0.116876  0  3.899773  0  0  -0.112627  0  3.910198  0  0.263886  0  -0.045202  -0.119675  0  3.892893  0
C  C81  1  0.37342867  0.39434853  0.13230407  1  0  -0.050145  0  3.658058  0  0  -0.116477  0  3.90584  0  0  -0.112248  0  3.91627  0  0.287283  0  -0.04656  -0.119194  0  3.898823  0
C  C82  1  0.08000388  0.96825269  0.81812912  1  0  -0.103215  0  3.748997  0  0  -0.119079  0  3.993684  0  0  -0.122041  0  4.014874  0  -0.018593  0  -0.085136  -0.117003  0  3.979256  0
C  C83  1  0.42106904  0.10210578  0.61127230  1  0  -0.103863  0  3.751341  0  0  -0.119502  0  3.99601  0  0  -0.122494  0  4.01734  0  -0.015252  0  -0.085126  -0.117389  0  3.98145  0
C  C84  1  0.78736501  0.39833305  0.68091741  1  0  -0.105867  0  3.75241  0  0  -0.121799  0  3.99744  0  0  -0.124688  0  4.018575  0  -0.014445  0  -0.087114  -0.119763  0  3.98302  0
C  C85  1  0.71160814  0.53164617  0.88978114  1  0  -0.104925  0  3.75188  0  0  -0.120593  0  3.997041  0  0  -0.123489  0  4.018362  0  -0.060227  0  -0.085445  -0.118542  0  3.982487  0
C  C86  1  0.66073982  0.02048563  0.02083821  1  0  -0.000532  0  3.746602  0  0  -0.03496  0  4.010557  0  0  -0.033541  0  4.03075  0  0.368733  0  -0.004046  -0.03592  0  3.997001  0
C  C87  1  0.83629843  0.31912072  0.13999596  1  0  -0.001564  0  3.746061  0  0  -0.03589  0  4.010295  0  0  -0.034467  0  4.030621  0  0.394245  0  -0.00426  -0.036856  0  3.996648  0
C  C88  1  0.04194662  0.18256066  0.47906779  1  0  -0.004567  0  3.747717  0  0  -0.038954  0  4.011976  0  0  -0.037544  0  4.032223  0  0.378679  0  -0.006711  -0.039919  0  3.998409  0
C  C89  1  0.45923508  0.47718863  0.36000250  1  0  -0.000549  0  3.743859  0  0  -0.03492  0  4.007745  0  0  -0.033473  0  4.028003  0  0.393589  0  -0.004358  -0.035825  0  3.994186  0
C  C90  1  0.17970375  0.19539025  0.83574654  1  0  -0.114185  0  3.745021  0  0  -0.130676  0  3.987178  0  0  -0.133188  0  4.008254  0  -0.033294  0  -0.089625  -0.128863  0  3.972839  0
C  C91  1  0.31971038  0.98443709  0.48517239  1  0  -0.111278  0  3.742161  0  0  -0.127906  0  3.983786  0  0  -0.130382  0  4.004818  0  -0.06601  0  -0.088811  -0.126123  0  3.969494  0
C  C92  1  0.03031015  0.51621939  0.66576071  1  0  -0.114697  0  3.74576  0  0  -0.131749  0  3.987709  0  0  -0.134227  0  4.008917  0  -0.075502  0  -0.090275  -0.129959  0  3.973281  0
C  C93  1  0.47051995  0.30459618  0.01330807  1  0  -0.113756  0  3.745931  0  0  -0.130808  0  3.98684  0  0  -0.133264  0  4.007933  0  -0.032034  0  -0.090462  -0.129051  0  3.972516  0
C  C94  1  0.00220005  0.98042043  0.90812171  1  0  -0.114776  0  3.7664  0  0  -0.135  0  4.014879  0  0  -0.137032  0  4.036247  0  -0.084167  0  -0.091026  -0.133519  0  4.000313  0
C  C95  1  0.49904936  0.09012916  0.52122392  1  0  -0.111422  0  3.763782  0  0  -0.131582  0  4.011817  0  0  -0.133608  0  4.033171  0  -0.024071  0  -0.089156  -0.130093  0  3.997256  0
C  C96  1  0.88963297  0.41081233  0.59107545  1  0  -0.114637  0  3.768529  0  0  -0.135144  0  4.01686  0  0  -0.137124  0  4.038129  0  -0.069767  0  -0.091387  -0.133679  0  4.002328  0
C  C97  1  0.60951330  0.51939748  0.97959058  1  0  -0.111486  0  3.762764  0  0  -0.132223  0  4.010553  0  0  -0.134281  0  4.031841  0  -0.058321  0  -0.089876  -0.130693  0  3.996015  0
C  C98  1  0.45179211  0.56932898  0.69152609  1  0  -0.300832  0  3.703253  0  0  -0.344817  0  3.945331  0  0  -0.350425  0  3.952989  0  -0.04245  0  -0.164166  -0.340822  0  3.939986  0
C  C99  1  0.04968125  0.85506695  0.38171716  1  0  -0.303822  0  3.709461  0  0  -0.345322  0  3.948977  0  0  -0.350949  0  3.956533  0  0.005942  0  -0.166252  -0.341365  0  3.94381  0
C  C100  1  0.26142200  0.64210588  0.80901011  1  0  -0.303335  0  3.70453  0  0  -0.347263  0  3.946727  0  0  -0.352715  0  3.954093  0  -0.032244  0  -0.167068  -0.343519  0  3.941755  0
C  C101  1  0.23571964  0.93040412  0.11861933  1  0  -0.301164  0  3.70484  0  0  -0.344502  0  3.946001  0  0  -0.349983  0  3.953294  0  -0.068463  0  -0.165369  -0.340535  0  3.940842  0
C  C102  1  0.78992088  0.10660200  0.95411559  1  0  -0.06613  0  3.682484  0  0  -0.105323  0  3.940061  0  0  -0.104249  0  3.960832  0  0.314719  0  -0.00227  -0.105969  0  3.9261  0
C  C103  1  0.70669451  0.25653768  0.18316598  1  0  -0.063068  0  3.677379  0  0  -0.10248  0  3.934708  0  0  -0.101374  0  3.9554  0  0.269956  0  -0.000548  -0.10314  0  3.920815  0
C  C104  1  0.06174742  0.24542197  0.54617963  1  0  -0.062793  0  3.681976  0  0  -0.101809  0  3.93922  0  0  -0.100725  0  3.959998  0  0.306408  0  0.000835  -0.102426  0  3.925298  0
C  C105  1  0.43876408  0.38979605  0.31723699  1  0  -0.06372  0  3.676481  0  0  -0.103138  0  3.934066  0  0  -0.101957  0  3.954768  0  0.287033  0  -0.000282  -0.103836  0  3.920144  0
C  C106  1  0.61983650  0.76172674  0.68001587  1  0  -0.126463  0  3.759248  0  0  -0.147611  0  4.013151  0  0  -0.150627  0  4.035542  0  -0.03597  0  -0.100032  -0.145493  0  3.997985  0
C  C107  1  0.88017436  0.69840626  0.35835358  1  0  -0.129262  0  3.761802  0  0  -0.150154  0  4.015846  0  0  -0.15319  0  4.038174  0  -0.138296  0  -0.100731  -0.148038  0  4.000744  0
C  C108  1  0.44127233  0.79901910  0.82179168  1  0  -0.128481  0  3.759523  0  0  -0.149615  0  4.013342  0  0  -0.152559  0  4.035694  0  -0.054842  0  -0.099935  -0.147506  0  3.998155  0
C  C109  1  0.05693073  0.73746936  0.14123992  1  0  -0.127862  0  3.760381  0  0  -0.14892  0  4.014642  0  0  -0.151909  0  4.036836  0  -0.045821  0  -0.100091  -0.146818  0  3.999601  0
C  C110  1  0.66010373  0.85793669  0.71285879  1  0  -0.08469  0  3.818404  0  0  -0.09999  0  4.072377  0  0  -0.101502  0  4.093232  0  -0.099071  0  -0.10481  -0.098883  0  4.058099  0
C  C111  1  0.83939719  0.62567079  0.30229940  1  0  -0.084209  0  3.819668  0  0  -0.099166  0  4.073043  0  0  -0.100631  0  4.093798  0  -0.090675  0  -0.103754  -0.098051  0  4.058831  0
C  C112  1  0.56979458  0.87282153  0.78857029  1  0  -0.083537  0  3.819745  0  0  -0.097956  0  4.072961  0  0  -0.099453  0  4.093848  0  -0.031792  0  -0.102316  -0.096794  0  4.058687  0
C  C113  1  0.92899839  0.64123148  0.19654579  1  0  -0.084183  0  3.818499  0  0  -0.098822  0  4.071946  0  0  -0.100275  0  4.092734  0  -0.040376  0  -0.104059  -0.097737  0  4.05771  0
N  N114  1  0.63120259  0.91163213  0.15360597  1  0  -0.384583  0  3.323826  0  0  -0.302826  0  3.624211  0  0  -0.323063  0  3.636476  0  -1.244218  0  -0.360446  -0.289151  0  3.615662  0
N  N115  1  0.86927588  0.21743346  0.21840280  1  0  -0.38417  0  3.325276  0  0  -0.302897  0  3.626002  0  0  -0.323092  0  3.638294  0  -1.225874  0  -0.361966  -0.289236  0  3.617417  0
N  N116  1  0.06569956  0.28505232  0.34602698  1  0  -0.385339  0  3.326655  0  0  -0.303573  0  3.626953  0  0  -0.323855  0  3.639344  0  -1.238512  0  -0.362204  -0.289874  0  3.618318  0
N  N117  1  0.43643553  0.58863153  0.28075756  1  0  -0.384258  0  3.327628  0  0  -0.303084  0  3.62841  0  0  -0.323295  0  3.640787  0  -1.233684  0  -0.36197  -0.289417  0  3.61977  0
N  N118  1  0.83859437  0.04877288  0.04796336  1  0  -0.052783  0  3.598073  0  0  0.041079  0  3.813035  0  0  0.026325  0  3.839057  0  -1.27135  0  -0.24016  0.050851  0  3.795305  0
N  N119  1  0.66131403  0.11544952  0.28880718  1  0  -0.054944  0  3.591937  0  0  0.039351  0  3.807364  0  0  0.024565  0  3.83336  0  -1.248356  0  -0.242469  0.049129  0  3.789627  0
N  N120  1  0.09787111  0.38745563  0.45224336  1  0  -0.051418  0  3.596609  0  0  0.042558  0  3.812204  0  0  0.027856  0  3.838289  0  -1.237465  0  -0.241375  0.052298  0  3.794406  0
N  N121  1  0.40312480  0.44954462  0.21107216  1  0  -0.053755  0  3.59611  0  0  0.040681  0  3.811205  0  0  0.025949  0  3.837325  0  -1.241948  0  -0.241049  0.050416  0  3.793397  0
O  O122  1  0.40099963  0.66610118  0.49694484  1  0  -0.664577  0  1.993315  0  0  -0.588363  0  2.257168  0  0  -0.616365  0  2.242327  0  -1.175417  0  -0.344071  -0.568793  0  2.266691  0
O  O123  1  0.09983376  0.10052046  0.23587399  1  0  -0.664568  0  1.993548  0  0  -0.58794  0  2.258126  0  0  -0.61598  0  2.243226  0  -1.179358  0  -0.342432  -0.568328  0  2.267656  0
O  O124  1  0.16250615  0.39713777  0.00233805  1  0  -0.664987  0  1.990425  0  0  -0.588947  0  2.254366  0  0  -0.617048  0  2.239634  0  -1.177587  0  -0.34346  -0.569302  0  2.263791  0
O  O125  1  0.33689445  0.83637155  0.26419596  1  0  -0.663665  0  1.995739  0  0  -0.586984  0  2.260168  0  0  -0.615089  0  2.245455  0  -1.181114  0  -0.341634  -0.567339  0  2.269605  0
O  O126  1  0.58760766  0.65865573  0.46307520  1  0  -0.631598  0  1.900788  0  0  -0.582587  0  2.123632  0  0  -0.60525  0  2.114766  0  -1.197222  0  -0.327998  -0.566699  0  2.129144  0
O  O127  1  0.91574939  0.95293374  0.42773327  1  0  -0.631895  0  1.903324  0  0  -0.582294  0  2.12557  0  0  -0.604842  0  2.116577  0  -1.194479  0  -0.326685  -0.566488  0  2.131175  0
O  O128  1  0.12089790  0.54985371  0.03671953  1  0  -0.631707  0  1.903174  0  0  -0.582427  0  2.125821  0  0  -0.605128  0  2.116982  0  -1.196216  0  -0.32708  -0.566514  0  2.131291  0
O  O129  1  0.38110399  0.84465831  0.07102377  1  0  -0.630699  0  1.906682  0  0  -0.58083  0  2.129169  0  0  -0.603453  0  2.12028  0  -1.196493  0  -0.327076  -0.564989  0  2.134722  0
