# generated using pymatgen
data_ZnH10C17N4F
_symmetry_space_group_name_H-M   'P 1'
_cell_length_a   19.29362454
_cell_length_b   20.46609790
_cell_length_c   19.95169244
_cell_angle_alpha   105.53211923
_cell_angle_beta   110.65356191
_cell_angle_gamma   111.15195597
_symmetry_Int_Tables_number   1
_chemical_formula_structural   ZnH10C17N4F
_chemical_formula_sum   'Zn4 H40 C68 N16 F4'
_cell_volume   6130.43249868
_cell_formula_units_Z   4
loop_
 _symmetry_equiv_pos_site_id
 _symmetry_equiv_pos_as_xyz
  1  'x, y, z'
loop_
 _atom_site_type_symbol
 _atom_site_label
 _atom_site_symmetry_multiplicity
 _atom_site_fract_x
 _atom_site_fract_y
 _atom_site_fract_z
 _atom_site_occupancy
 _atom_site_pbe_bader_charge
 _atom_site_pbe_bader_spin_density
 _atom_site_pbe_cm5_charge
 _atom_site_pbe_ddec_charge
 _atom_site_pbe_ddec_spin_density
 _atom_site_pbe_ddec_sum_bond_order
 _atom_site_pbe_magmom
Zn  Zn0  1  0.12289521  0.50276657  0.10017248  1  1.218762  0  0.771021  0.736016  0  2.191619  0
Zn  Zn1  1  0.90139810  0.52490531  0.91119492  1  1.191241  0  0.752678  0.670411  0  2.291018  0
Zn  Zn2  1  0.89924009  0.39775630  0.98193188  1  1.184043  0  0.740384  0.639887  0  2.37586  0
Zn  Zn3  1  0.12327982  0.63029970  0.01974866  1  1.19595  0  0.753442  0.64906  0  2.336977  0
H  H4  1  0.78038513  0.57211824  0.96069317  1  0.085456  0  0.122692  0.11196  0  1.008927  0
H  H5  1  0.14620452  0.62935889  0.62928644  1  0.056393  0  0.102419  0.107568  0  1.00024  0
H  H6  1  0.35171287  0.89092962  0.54277879  1  0.093599  0  0.102769  0.108011  0  1.009715  0
H  H7  1  0.48166479  0.01403369  0.65776312  1  0.097214  0  0.106667  0.112448  0  0.985965  0
H  H8  1  0.14963726  0.16928851  0.20522913  1  0.055186  0  0.107991  0.113202  0  0.983786  0
H  H9  1  0.14865679  0.04477220  0.19233051  1  0.055859  0  0.103257  0.104812  0  1.009816  0
H  H10  1  0.87253812  0.92202037  0.07799085  1  0.070945  0  0.103992  0.110614  0  0.994699  0
H  H11  1  0.80284387  0.24350561  0.83049941  1  0.082542  0  0.121447  0.116018  0  0.999078  0
H  H12  1  0.30818044  0.65251018  0.00678763  1  0.10888  0  0.126886  0.115561  0  0.978206  0
H  H13  1  0.20196342  0.42799105  0.01036447  1  0.129861  0  0.126744  0.121817  0  0.988808  0
H  H14  1  0.15789324  0.59908822  0.87034611  1  0.137771  0  0.1206  0.109092  0  1.004835  0
H  H15  1  0.88444415  0.50871955  0.12332643  1  0.12042  0  0.123666  0.120681  0  1.001611  0
H  H16  1  0.24035849  0.65452936  0.29713659  1  0.098952  0  0.124921  0.117615  0  0.98429  0
H  H17  1  0.12344559  0.72581816  0.45660610  1  0.043817  0  0.085895  0.1163  0  1.01324  0
H  H18  1  0.18347570  0.77183616  0.56333624  1  0.036121  0  0.083804  0.110514  0  1.003164  0
H  H19  1  0.23565615  0.76296383  0.50621553  1  0.013913  0  0.082215  0.107222  0  1.020297  0
H  H20  1  0.21631147  0.66235291  0.55842273  1  0.019543  0  0.091124  0.084854  0  0.977371  0
H  H21  1  0.15817722  0.61745287  0.45214902  1  0.042292  0  0.091248  0.09072  0  0.987053  0
H  H22  1  0.21738058  0.00863178  0.37115270  1  0.027293  0  0.088509  0.1185  0  0.997341  0
H  H23  1  0.30614502  0.10422289  0.41232088  1  0.02931  0  0.086852  0.116672  0  1.003553  0
H  H24  1  0.24332254  0.04481377  0.30658423  1  0.042765  0  0.083858  0.109196  0  1.022247  0
H  H25  1  0.38077518  0.04389137  0.35878985  1  0.037513  0  0.093461  0.090021  0  0.974615  0
H  H26  1  0.14552219  0.81059607  0.06375398  1  0.124867  0  0.126373  0.116637  0  0.976655  0
H  H27  1  0.29317025  0.94873697  0.32000515  1  0.033133  0  0.09111  0.089168  0  0.993606  0
H  H28  1  0.81578993  0.00800666  0.16992482  1  0.044963  0  0.086343  0.11325  0  1.003232  0
H  H29  1  0.87400428  0.11163281  0.20820684  1  0.029192  0  0.088516  0.117357  0  0.998922  0
H  H30  1  0.76373994  0.05700797  0.13277847  1  0.015238  0  0.085967  0.111373  0  1.00229  0
H  H31  1  0.85556328  0.09507419  0.07195544  1  0.032448  0  0.088823  0.083949  0  1.01579  0
H  H32  1  0.79776567  0.99174793  0.03348725  1  0.049385  0  0.091985  0.085935  0  0.97429  0
H  H33  1  0.81521127  0.14148137  0.87936439  1  0.023131  0  0.088923  0.116816  0  1.000632  0
H  H34  1  0.85174381  0.11677886  0.95850514  1  0.031199  0  0.092065  0.124593  0  1.010361  0
H  H35  1  0.74575681  0.10121497  0.91506409  1  0.042845  0  0.09114  0.119854  0  0.993938  0
H  H36  1  0.84018191  0.22124876  0.04791119  1  0.046624  0  0.104084  0.108611  0  0.956507  0
H  H37  1  0.87365272  0.67428760  0.97502316  1  0.081024  0  0.121543  0.109873  0  1.007524  0
H  H38  1  0.80532023  0.24745645  0.96994829  1  0.006339  0  0.091982  0.08121  0  0.993035  0
H  H39  1  0.12604945  0.75551684  0.15919306  1  0.130856  0  0.117478  0.108672  0  1.040685  0
H  H40  1  0.69669512  0.34861970  0.96810345  1  0.120031  0  0.129981  0.121958  0  0.975262  0
H  H41  1  0.86995753  0.50196321  0.51298280  1  0.068314  0  0.105474  0.110705  0  0.9891  0
H  H42  1  0.86131650  0.51018331  0.38839581  1  0.057599  0  0.105624  0.108661  0  0.989231  0
H  H43  1  0.87966395  0.46995315  0.74082584  1  0.068049  0  0.123995  0.117986  0  0.988953  0
C  C44  1  0.07630022  0.33973649  0.07249070  1  1.052504  0  0.201185  0.326961  0  4.117214  0
C  C45  1  0.06040448  0.51075581  0.22449494  1  1.082354  0  0.211756  0.340653  0  4.079058  0
C  C46  1  0.14958081  0.72013790  0.18035762  1  0.34472  0  0.013773  -0.039825  0  3.927358  0
C  C47  1  0.94761448  0.50287279  0.78493415  1  0.476248  0  0.020231  -0.035718  0  3.906905  0
C  C48  1  0.73007035  0.40334926  0.96675633  1  0.454635  0  0.028594  -0.033636  0  3.932525  0
C  C49  1  0.19616740  0.73367032  0.25973619  1  0.147469  0  -0.025905  0.043752  0  4.184477  0
C  C50  1  0.70458140  0.45927931  0.96082072  1  0.135227  0  -0.026004  0.033779  0  4.210104  0
C  C51  1  0.99698673  0.52720695  0.22925970  1  0.118234  0  -0.030354  -0.061655  0  4.20479  0
C  C52  1  0.00931188  0.77291962  0.03586907  1  0.119654  0  -0.026632  0.0471  0  4.198568  0
C  C53  1  0.33257021  0.51371886  0.97410903  1  -0.40747  0  -0.025436  -0.057882  0  4.077236  0
C  C54  1  0.38332515  0.49800893  0.95997652  1  0.171722  0  -0.046979  -0.061255  0  4.335647  0
C  C55  1  0.01864731  0.53572336  0.77437422  1  0.127616  0  -0.02495  0.052398  0  4.189095  0
C  C56  1  0.44245588  0.48332566  0.95055255  1  -0.107873  0  -0.026273  -0.015627  0  4.25209  0
C  C57  1  0.50029760  0.47213249  0.94730311  1  0.10704  0  -0.028945  -0.022042  0  4.254453  0
C  C58  1  0.56647814  0.46376901  0.94872519  1  0.118842  0  -0.045594  -0.05484  0  4.337352  0
C  C59  1  0.78998414  0.28706615  0.81636017  1  0.42267  0  0.011601  -0.037602  0  3.957116  0
C  C60  1  0.62971995  0.45888702  0.95386760  1  -0.368601  0  -0.028441  -0.065121  0  4.080488  0
C  C61  1  0.92355325  0.53660774  0.44173724  1  0.031573  0  -0.08544  -0.120654  0  3.999151  0
C  C62  1  0.99861947  0.57281299  0.43771473  1  0.083762  0  -0.003478  0.07625  0  4.081438  0
C  C63  1  0.08045679  0.60960870  0.50742116  1  0.012982  0  0.00125  0.091216  0  3.91462  0
C  C64  1  0.08383459  0.60352624  0.57620136  1  -0.029891  0  -0.087939  -0.191831  0  3.933505  0
C  C65  1  0.00891464  0.56295008  0.57887952  1  0.097444  0  -0.003959  0.144131  0  4.140012  0
C  C66  1  0.71492251  0.27543163  0.75537884  1  0.165246  0  -0.034851  -0.067656  0  4.212135  0
C  C67  1  0.92826046  0.53167834  0.51098523  1  -0.06515  0  -0.089961  -0.137446  0  3.983144  0
C  C68  1  0.99313040  0.56544037  0.36322939  1  -0.388323  0  -0.040659  -0.09508  0  4.142813  0
C  C69  1  0.01413785  0.55232933  0.64728330  1  -0.314133  0  -0.051031  -0.115906  0  4.142988  0
C  C70  1  0.01731074  0.54159474  0.70539918  1  -0.053888  0  -0.056065  -0.104367  0  4.171773  0
C  C71  1  0.27360829  0.60135553  0.01295296  1  0.448405  0  0.02585  -0.028689  0  3.946571  0
C  C72  1  0.99075837  0.55096438  0.29869146  1  0.086849  0  -0.057348  -0.094765  0  4.168547  0
C  C73  1  0.45053623  0.01199976  0.59924837  1  -0.086763  0  -0.088199  -0.116362  0  4.007097  0
C  C74  1  0.48696911  0.07978549  0.58943095  1  0.140836  0  -0.013758  0.031194  0  4.167131  0
C  C75  1  0.44270318  0.07535404  0.51367079  1  0.41949  0  0.103708  0.186908  0  3.995582  0
C  C76  1  0.37027602  0.00790676  0.44744822  1  0.078744  0  -0.009528  -0.027652  0  3.921907  0
C  C77  1  0.27818107  0.53172090  0.99645709  1  0.125848  0  -0.025349  0.029453  0  4.198669  0
C  C78  1  0.33914454  0.93933717  0.45824023  1  0.064751  0  0.000597  0.102432  0  4.096973  0
C  C79  1  0.37809760  0.94352257  0.53518049  1  0.025131  0  -0.094147  -0.145891  0  4.01091  0
C  C80  1  0.56584861  0.14799185  0.65005372  1  0.024928  0  -0.052876  -0.102552  0  4.158774  0
C  C81  1  0.27614954  0.86538961  0.39083423  1  -0.149858  0  -0.04696  -0.110293  0  4.136159  0
C  C82  1  0.23358125  0.80232600  0.33054740  1  -0.215457  0  -0.047286  -0.093839  0  4.144241  0
C  C83  1  0.73782604  0.35309065  0.76703946  1  1.100584  0  0.213796  0.34303  0  4.071516  0
C  C84  1  0.63617476  0.20637042  0.69873312  1  -0.345316  0  -0.053533  -0.075693  0  4.181722  0
C  C85  1  0.08869292  0.04539693  0.17048468  1  0.016371  0  -0.089063  -0.134635  0  3.987796  0
C  C86  1  0.00990053  0.97385358  0.12908877  1  0.074621  0  -0.004532  0.142353  0  4.13821  0
C  C87  1  0.93334153  0.97661490  0.10642451  1  -0.020732  0  -0.086927  -0.190293  0  3.927761  0
C  C88  1  0.20868721  0.66857292  0.25090728  1  0.461982  0  0.022849  -0.028569  0  3.93334  0
C  C89  1  0.93257221  0.04603413  0.11408867  1  0.026905  0  0.000125  0.086676  0  3.913501  0
C  C90  1  0.01151656  0.11516454  0.14469809  1  0.080695  0  -0.00292  0.079908  0  4.087316  0
C  C91  1  0.08923584  0.11477739  0.17789801  1  -0.041563  0  -0.084764  -0.120232  0  3.99012  0
C  C92  1  0.00851643  0.90170064  0.10337907  1  -0.079437  0  -0.050342  -0.113926  0  4.138301  0
C  C93  1  0.01294061  0.17998865  0.13139285  1  -0.148972  0  -0.046136  -0.116682  0  4.143103  0
C  C94  1  0.01459248  0.22801396  0.10550417  1  -0.210687  0  -0.052494  -0.069774  0  4.193968  0
C  C95  1  0.21899266  0.48597654  0.01394250  1  0.438591  0  0.027552  -0.020248  0  3.916778  0
C  C96  1  0.00870802  0.84163378  0.07214071  1  -0.274785  0  -0.057696  -0.108416  0  4.173105  0
C  C97  1  0.09006831  0.56890417  0.85124614  1  0.37201  0  0.01745  -0.04432  0  3.927262  0
C  C98  1  0.93680923  0.27944561  0.02322819  1  0.46642  0  0.102935  0.181853  0  3.951515  0
C  C99  1  0.77373528  0.51824257  0.96367090  1  0.438122  0  0.017749  -0.043428  0  3.942879  0
C  C100  1  0.01086091  0.27868236  0.07095914  1  0.129975  0  -0.036419  -0.127237  0  4.19973  0
C  C101  1  0.16159186  0.65353548  0.50654463  1  0.015804  0  -0.159271  -0.142186  0  3.981029  0
C  C102  1  0.17691692  0.73322994  0.50838645  1  -0.079523  0  -0.242778  -0.347727  0  3.958012  0
C  C103  1  0.32984793  0.00909332  0.36835927  1  0.022633  0  -0.15935  -0.124021  0  3.982573  0
C  C104  1  0.27072499  0.04374667  0.36452448  1  -0.067062  0  -0.241252  -0.349106  0  3.951904  0
C  C105  1  0.84941550  0.04668632  0.08796399  1  -0.034144  0  -0.160474  -0.144622  0  3.983646  0
C  C106  1  0.82428960  0.05637167  0.15352287  1  -0.064752  0  -0.241287  -0.348655  0  3.963921  0
C  C107  1  0.84566065  0.22397413  0.99549151  1  0.036769  0  -0.151631  -0.156026  0  3.992975  0
C  C108  1  0.81246777  0.14091873  0.93330122  1  -0.051817  0  -0.237926  -0.347018  0  3.939966  0
C  C109  1  0.94303191  0.50676410  0.14862527  1  0.418474  0  0.01995  -0.013865  0  3.921404  0
C  C110  1  0.07913450  0.76496970  0.03621010  1  0.385291  0  0.018678  -0.047077  0  3.964892  0
C  C111  1  0.94031351  0.69493895  0.99154221  1  0.435455  0  0.01743  -0.043053  0  3.953141  0
N  N112  1  0.04795721  0.37565565  0.03229534  1  -0.7947  0  -0.284207  -0.333203  0  3.442821  0
N  N113  1  0.85031960  0.36447497  0.85955159  1  -0.787156  0  -0.285269  -0.212864  0  3.517768  0
N  N114  1  0.21812475  0.59785473  0.03948127  1  -0.776708  0  -0.267088  -0.190047  0  3.514707  0
N  N115  1  0.81662753  0.40521492  0.82784077  1  -0.811717  0  -0.277291  -0.302135  0  3.549302  0
N  N116  1  0.18410482  0.52612315  0.03966437  1  -0.821077  0  -0.27996  -0.210452  0  3.624773  0
N  N117  1  0.06266780  0.55819299  0.90298620  1  -0.786962  0  -0.284046  -0.184135  0  3.636809  0
N  N118  1  0.95969719  0.33706252  0.00121255  1  -0.800898  0  -0.279207  -0.222182  0  3.518196  0
N  N119  1  0.17462683  0.62206342  0.17287892  1  -0.769517  0  -0.272427  -0.200137  0  3.551474  0
N  N120  1  0.83464130  0.49873798  0.97037452  1  -0.793038  0  -0.277882  -0.210595  0  3.562704  0
N  N121  1  0.97271421  0.48015786  0.10180035  1  -0.809822  0  -0.28275  -0.214085  0  3.572458  0
N  N122  1  0.05391225  0.68888631  0.99673064  1  -0.786721  0  -0.267519  -0.191537  0  3.4988  0
N  N123  1  0.96724649  0.64524211  0.96877681  1  -0.787279  0  -0.270351  -0.190969  0  3.555653  0
N  N124  1  0.04615737  0.48244550  0.14995834  1  -0.815581  0  -0.292284  -0.315482  0  3.581325  0
N  N125  1  0.13751266  0.65332963  0.12899525  1  -0.810829  0  -0.286913  -0.206753  0  3.624547  0
N  N126  1  0.80702192  0.42766335  0.97205497  1  -0.796096  0  -0.271397  -0.177073  0  3.602521  0
N  N127  1  0.97550368  0.51793541  0.86244390  1  -0.788355  0  -0.279985  -0.187563  0  3.622708  0
F  F128  1  0.16110372  0.36560836  0.11080327  1  -0.634789  0  -0.091719  -0.140766  0  1.326469  0
F  F129  1  0.12931875  0.52070010  0.28480670  1  -0.64167  0  -0.084243  -0.136805  0  1.337867  0
F  F130  1  0.47553593  0.14103970  0.50382413  1  -0.631045  0  -0.100142  -0.138755  0  1.344411  0
F  F131  1  0.69032276  0.37660380  0.72389868  1  -0.636345  0  -0.089187  -0.134891  0  1.322791  0
