# generated using pymatgen
data_CdH24C33(N4O3)2
_symmetry_space_group_name_H-M   'P 1'
_cell_length_a   10.77067523
_cell_length_b   13.45390017
_cell_length_c   15.91241229
_cell_angle_alpha   88.60877944
_cell_angle_beta   89.06292258
_cell_angle_gamma   64.75119637
_symmetry_Int_Tables_number   1
_chemical_formula_structural   CdH24C33(N4O3)2
_chemical_formula_sum   'Cd2 H48 C66 N16 O12'
_cell_volume   2084.87907092
_cell_formula_units_Z   2
loop_
 _symmetry_equiv_pos_site_id
 _symmetry_equiv_pos_as_xyz
  1  'x, y, z'
loop_
 _atom_site_type_symbol
 _atom_site_label
 _atom_site_symmetry_multiplicity
 _atom_site_fract_x
 _atom_site_fract_y
 _atom_site_fract_z
 _atom_site_occupancy
 _atom_site_hle17_bader_spin_density
 _atom_site_hle17_ddec_charge
 _atom_site_hle17_ddec_spin_density
 _atom_site_hle17_ddec_sum_bond_order
 _atom_site_hle17_magmom
 _atom_site_hse06_10hf_bader_spin_density
 _atom_site_hse06_10hf_ddec_charge
 _atom_site_hse06_10hf_ddec_spin_density
 _atom_site_hse06_10hf_ddec_sum_bond_order
 _atom_site_hse06_10hf_magmom
 _atom_site_hse06_bader_spin_density
 _atom_site_hse06_ddec_charge
 _atom_site_hse06_ddec_spin_density
 _atom_site_hse06_ddec_sum_bond_order
 _atom_site_hse06_magmom
 _atom_site_pbe_bader_spin_density
 _atom_site_pbe_cm5_charge
 _atom_site_pbe_ddec_charge
 _atom_site_pbe_ddec_spin_density
 _atom_site_pbe_ddec_sum_bond_order
 _atom_site_pbe_magmom
Cd  Cd0  1  0.62322195  0.98009020  0.74189996  1  0  0.993224  0  1.81015  0  0  0.781577  0  2.270477  0  0  0.837578  0  2.223325  0  0  0.770344  0.74118  0  2.303143  0
Cd  Cd1  1  0.37677513  0.01991105  0.25809966  1  0  0.993256  0  1.810181  0  0  0.781558  0  2.270505  0  0  0.837551  0  2.223357  0  0  0.770338  0.741157  0  2.303173  0
H  H2  1  0.50941348  0.22582510  0.66947904  1  0  0.08173  0  0.952417  0  0  0.088056  0  1.020237  0  0  0.090032  0  1.019787  0  0  0.113722  0.086561  0  1.020576  0
H  H3  1  0.49059754  0.77417434  0.33052487  1  0  0.081723  0  0.952318  0  0  0.088066  0  1.020137  0  0  0.090029  0  1.019698  0  0  0.113709  0.08657  0  1.020479  0
H  H4  1  0.48542403  0.33115717  0.53391158  1  0  0.117128  0  0.949821  0  0  0.122409  0  1.015228  0  0  0.126384  0  1.013585  0  0  0.113142  0.119568  0  1.016526  0
H  H5  1  0.51459031  0.66884303  0.46609164  1  0  0.117111  0  0.949878  0  0  0.122444  0  1.015239  0  0  0.126423  0  1.013591  0  0  0.11314  0.119601  0  1.016537  0
H  H6  1  0.65369185  0.02109700  0.40648786  1  0  0.120906  0  0.960069  0  0  0.128696  0  1.022034  0  0  0.132383  0  1.020492  0  0  0.108683  0.125991  0  1.023333  0
H  H7  1  0.34630388  0.97890510  0.59351301  1  0  0.120908  0  0.960047  0  0  0.128706  0  1.02201  0  0  0.132393  0  1.020468  0  0  0.10869  0.126001  0  1.023308  0
H  H8  1  0.67267721  0.92752818  0.54788319  1  0  0.083755  0  0.936522  0  0  0.093297  0  0.995107  0  0  0.095329  0  0.994038  0  0  0.117304  0.091749  0  0.995981  0
H  H9  1  0.32731936  0.07247227  0.45211709  1  0  0.083808  0  0.936588  0  0  0.093362  0  0.995158  0  0  0.095388  0  0.994093  0  0  0.117325  0.091812  0  0.996033  0
H  H10  1  0.58298753  0.18746476  0.32222025  1  0  0.073508  0  0.928156  0  0  0.084294  0  0.992582  0  0  0.086962  0  0.989198  0  0  0.113021  0.082321  0  0.995114  0
H  H11  1  0.41701642  0.81253396  0.67778187  1  0  0.073561  0  0.928157  0  0  0.084344  0  0.99258  0  0  0.087035  0  0.989179  0  0  0.113023  0.082371  0  0.995111  0
H  H12  1  0.67418101  0.43866569  0.40730717  1  0  0.101963  0  0.946307  0  0  0.109327  0  1.008174  0  0  0.112898  0  1.006214  0  0  0.105641  0.106758  0  1.009645  0
H  H13  1  0.32582109  0.56133303  0.59269120  1  0  0.102056  0  0.94623  0  0  0.109412  0  1.008088  0  0  0.112982  0  1.006133  0  0  0.105675  0.106845  0  1.009558  0
H  H14  1  0.78671507  0.56498661  0.38479263  1  0  0.09653  0  0.926578  0  0  0.112048  0  0.972963  0  0  0.114259  0  0.973296  0  0  0.108082  0.110442  0  0.972885  0
H  H15  1  0.21328609  0.43501212  0.61520449  1  0  0.096516  0  0.926499  0  0  0.112059  0  0.972865  0  0  0.114269  0  0.973199  0  0  0.108082  0.110452  0  0.972789  0
H  H16  1  0.76135189  0.66552599  0.24896058  1  0  0.098525  0  0.973335  0  0  0.105293  0  1.041936  0  0  0.108234  0  1.03996  0  0  0.100216  0.103076  0  1.043617  0
H  H17  1  0.23864707  0.33447522  0.75103776  1  0  0.098584  0  0.973432  0  0  0.105397  0  1.041966  0  0  0.108342  0  1.039985  0  0  0.100241  0.103153  0  1.043674  0
H  H18  1  0.49588520  0.54069898  0.07689860  1  0  0.093605  0  0.964983  0  0  0.101234  0  1.032927  0  0  0.104744  0  1.030342  0  0  0.098438  0.098677  0  1.034877  0
H  H19  1  0.50411409  0.45929979  0.92310043  1  0  0.093574  0  0.965018  0  0  0.101199  0  1.032965  0  0  0.104709  0  1.03038  0  0  0.098415  0.098642  0  1.034915  0
H  H20  1  0.37166323  0.42426993  0.10325954  1  0  0.089719  0  0.957352  0  0  0.099876  0  1.018702  0  0  0.101865  0  1.018862  0  0  0.096776  0.098426  0  1.018666  0
H  H21  1  0.62833784  0.57572717  0.89673888  1  0  0.089686  0  0.957438  0  0  0.099885  0  1.018748  0  0  0.101872  0  1.018916  0  0  0.096773  0.098434  0  1.018713  0
H  H22  1  0.39026751  0.32843222  0.24254199  1  0  0.106826  0  0.965736  0  0  0.112893  0  1.035037  0  0  0.115787  0  1.034461  0  0  0.099575  0.110791  0  1.035612  0
H  H23  1  0.60974002  0.67156316  0.75745765  1  0  0.106916  0  0.96575  0  0  0.112971  0  1.035045  0  0  0.115868  0  1.03446  0  0  0.099622  0.110866  0  1.035622  0
H  H24  1  0.80331254  0.67271549  0.12352532  1  0  0.056813  0  0.966048  0  0  0.062953  0  1.041406  0  0  0.065427  0  1.038817  0  0  0.106128  0.060991  0  1.043583  0
H  H25  1  0.19668496  0.32728493  0.87647306  1  0  0.056808  0  0.966033  0  0  0.062932  0  1.041415  0  0  0.065404  0  1.038831  0  0  0.106123  0.060971  0  1.043589  0
H  H26  1  0.49671245  0.74640126  0.97762566  1  0  0.111336  0  0.948122  0  0  0.120325  0  1.008793  0  0  0.124012  0  1.007057  0  0  0.112616  0.117583  0  1.010333  0
H  H27  1  0.50328370  0.25360000  0.02237335  1  0  0.111361  0  0.948088  0  0  0.12035  0  1.00876  0  0  0.124041  0  1.007022  0  0  0.112624  0.117608  0  1.010301  0
H  H28  1  0.46474848  0.86765180  0.84946846  1  0  0.084277  0  0.943052  0  0  0.092598  0  1.005015  0  0  0.095235  0  1.002697  0  0  0.116315  0.09059  0  1.006784  0
H  H29  1  0.53524861  0.13234945  0.15053116  1  0  0.084297  0  0.942947  0  0  0.092549  0  1.004974  0  0  0.095184  0  1.00266  0  0  0.116289  0.090541  0  1.006742  0
H  H30  1  0.81431682  0.91010792  0.90166854  1  0  0.07956  0  0.92825  0  0  0.089535  0  0.985605  0  0  0.091977  0  0.983844  0  0  0.11805  0.087634  0  0.98705  0
H  H31  1  0.18567704  0.08989419  0.09833047  1  0  0.07966  0  0.928182  0  0  0.089567  0  0.985594  0  0  0.092008  0  0.983836  0  0  0.118066  0.08767  0  0.987035  0
H  H32  1  0.85872450  0.79349228  0.03285412  1  0  0.112905  0  0.942855  0  0  0.123079  0  1.001162  0  0  0.125896  0  1.001086  0  0  0.111073  0.120873  0  1.001616  0
H  H33  1  0.14127437  0.20650730  0.96714427  1  0  0.112839  0  0.942899  0  0  0.123013  0  1.00121  0  0  0.125829  0  1.001136  0  0  0.111042  0.120827  0  1.00164  0
H  H34  1  0.59205071  0.16070154  0.88327091  1  0  0.083251  0  0.955329  0  0  0.089269  0  1.024312  0  0  0.091615  0  1.022585  0  0  0.114359  0.087649  0  1.025475  0
H  H35  1  0.40794969  0.83930048  0.11672865  1  0  0.083277  0  0.955115  0  0  0.089247  0  1.024153  0  0  0.09163  0  1.022386  0  0  0.114345  0.087629  0  1.025313  0
H  H36  1  0.68956732  0.29319762  0.92001292  1  0  0.113702  0  0.954444  0  0  0.119361  0  1.021738  0  0  0.123728  0  1.018696  0  0  0.111527  0.116275  0  1.023938  0
H  H37  1  0.31043393  0.70680276  0.07998730  1  0  0.113722  0  0.954452  0  0  0.119379  0  1.021739  0  0  0.123745  0  1.018697  0  0  0.111535  0.116293  0  1.023939  0
H  H38  1  0.99166940  0.15132486  0.72390360  1  0  0.122415  0  0.949681  0  0  0.131755  0  1.00751  0  0  0.135652  0  1.005321  0  0  0.1119  0.128705  0  1.009524  0
H  H39  1  0.00832989  0.84867391  0.27609668  1  0  0.122383  0  0.949644  0  0  0.131731  0  1.007465  0  0  0.135625  0  1.005277  0  0  0.111893  0.128681  0  1.009479  0
H  H40  1  0.88496216  0.02167367  0.69693827  1  0  0.087776  0  0.922567  0  0  0.099126  0  0.978431  0  0  0.101704  0  0.976278  0  0  0.120375  0.09716  0  0.980121  0
H  H41  1  0.11503671  0.97832593  0.30306200  1  0  0.087764  0  0.922569  0  0  0.09911  0  0.978436  0  0  0.101686  0  0.976285  0  0  0.120369  0.097146  0  0.980124  0
H  H42  1  0.98898432  0.30766703  0.79563582  1  0  0.068852  0  0.942135  0  0  0.078364  0  1.00891  0  0  0.081626  0  1.004605  0  0  0.111136  0.075851  0  1.012268  0
H  H43  1  0.01101735  0.69233252  0.20436316  1  0  0.068809  0  0.942242  0  0  0.078316  0  1.009036  0  0  0.081577  0  1.004731  0  0  0.111103  0.075805  0  1.01239  0
H  H44  1  0.91107547  0.50228841  0.78199729  1  0  0.108255  0  0.941776  0  0  0.120449  0  0.997889  0  0  0.123248  0  0.997071  0  0  0.107065  0.118488  0  0.998475  0
H  H45  1  0.08892485  0.49771196  0.21800043  1  0  0.108252  0  0.941759  0  0  0.120454  0  0.997864  0  0  0.123252  0  0.997047  0  0  0.107044  0.118492  0  0.998453  0
H  H46  1  0.89659872  0.35261671  0.05672027  1  0  0.098875  0  0.946623  0  0  0.108018  0  1.007289  0  0  0.111706  0  1.00514  0  0  0.101917  0.105409  0  1.008804  0
H  H47  1  0.10340024  0.64738449  0.94327556  1  0  0.098882  0  0.946721  0  0  0.108041  0  1.007354  0  0  0.11173  0  1.005204  0  0  0.101914  0.105431  0  1.008869  0
H  H48  1  0.02283129  0.62688178  0.80125541  1  0  0.103844  0  0.947315  0  0  0.113972  0  1.005737  0  0  0.116725  0  1.004801  0  0  0.10349  0.112023  0  1.00641  0
H  H49  1  0.97716861  0.37311939  0.19873978  1  0  0.10388  0  0.947332  0  0  0.113976  0  1.005779  0  0  0.116729  0  1.004843  0  0  0.10351  0.112027  0  1.006452  0
C  C50  1  0.54146578  0.18360046  0.60985218  1  0  0.119446  0  3.716705  0  0  0.089427  0  3.966355  0  0  0.096023  0  3.986077  0  0  0.041504  0.085159  0  3.953081  0
C  C51  1  0.45854244  0.81639900  0.39014861  1  0  0.119512  0  3.716541  0  0  0.089453  0  3.966246  0  0  0.096062  0  3.98597  0  0  0.04153  0.085185  0  3.952971  0
C  C52  1  0.52788560  0.24175994  0.53481908  1  0  -0.132638  0  3.679455  0  0  -0.150527  0  3.919108  0  0  -0.157002  0  3.938718  0  0  -0.070897  -0.146489  0  3.906168  0
C  C53  1  0.47212406  0.75824033  0.46518419  1  0  -0.132671  0  3.679551  0  0  -0.150613  0  3.919215  0  0  -0.157092  0  3.938823  0  0  -0.070894  -0.14657  0  3.906276  0
C  C54  1  0.56935609  0.18371379  0.45958034  1  0  0.103273  0  3.768957  0  0  0.119281  0  3.998519  0  0  0.122717  0  4.01959  0  0  0.015306  0.117061  0  3.984416  0
C  C55  1  0.43064984  0.81628652  0.54042108  1  0  0.103294  0  3.769125  0  0  0.119331  0  3.998687  0  0  0.122773  0  4.019764  0  0  0.015335  0.11711  0  3.984584  0
C  C56  1  0.62221321  0.06872847  0.46379484  1  0  -0.151187  0  3.688958  0  0  -0.168448  0  3.931156  0  0  -0.176868  0  3.953047  0  0  -0.077564  -0.163036  0  3.916676  0
C  C57  1  0.37778607  0.93127031  0.53620670  1  0  -0.151066  0  3.688947  0  0  -0.168337  0  3.931138  0  0  -0.176757  0  3.953025  0  0  -0.077502  -0.162924  0  3.916658  0
C  C58  1  0.63288484  0.01671374  0.54164586  1  0  0.12374  0  3.731758  0  0  0.093401  0  3.984106  0  0  0.100429  0  4.004149  0  0  0.043959  0.088848  0  3.970468  0
C  C59  1  0.36711548  0.98328665  0.45835437  1  0  0.123604  0  3.731757  0  0  0.093241  0  3.984144  0  0  0.100273  0  4.004187  0  0  0.043919  0.088689  0  3.970504  0
C  C60  1  0.56097116  0.23916793  0.37811487  1  0  0.131362  0  3.663526  0  0  0.098494  0  3.920028  0  0  0.107185  0  3.930191  0  0  0.086282  0.092462  0  3.913275  0
C  C61  1  0.43903458  0.76082913  0.62188664  1  0  0.131178  0  3.663676  0  0  0.098278  0  3.920237  0  0  0.106946  0  3.930405  0  0  0.086189  0.092248  0  3.913482  0
C  C62  1  0.52325641  0.39235873  0.29452011  1  0  0.170482  0  3.822473  0  0  0.171454  0  4.068881  0  0  0.175127  0  4.093572  0  0  0.095278  0.168978  0  4.052072  0
C  C63  1  0.47674976  0.60763748  0.70547890  1  0  0.170593  0  3.822622  0  0  0.17159  0  4.068993  0  0  0.175268  0  4.09368  0  0  0.095326  0.169111  0  4.052184  0
C  C64  1  0.58942452  0.46436355  0.28233731  1  0  -0.006368  0  3.752763  0  0  0.007546  0  3.974958  0  0  0.005386  0  4.000583  0  0  -0.005229  0.008925  0  3.957701  0
C  C65  1  0.41057266  0.53563933  0.71766227  1  0  -0.006382  0  3.752689  0  0  0.007509  0  3.974889  0  0  0.005351  0  4.000512  0  0  -0.005233  0.008886  0  3.957632  0
C  C66  1  0.66661361  0.48107741  0.34711507  1  0  -0.088257  0  3.731967  0  0  -0.113238  0  3.985824  0  0  -0.116119  0  4.007773  0  0  -0.083235  -0.111283  0  3.970964  0
C  C67  1  0.33338704  0.51892052  0.65288334  1  0  -0.08838  0  3.731967  0  0  -0.113341  0  3.985827  0  0  -0.116221  0  4.007769  0  0  -0.083255  -0.111386  0  3.970969  0
C  C68  1  0.72894213  0.55130223  0.33426456  1  0  -0.059725  0  3.799956  0  0  -0.072415  0  4.053806  0  0  -0.075413  0  4.078289  0  0  -0.088512  -0.070165  0  4.036997  0
C  C69  1  0.27105954  0.44869733  0.66573630  1  0  -0.059728  0  3.800011  0  0  -0.072451  0  4.053883  0  0  -0.075448  0  4.07837  0  0  -0.088559  -0.0702  0  4.037068  0
C  C70  1  0.71714860  0.60657719  0.25673712  1  0  -0.143478  0  3.73403  0  0  -0.164359  0  3.987855  0  0  -0.1685  0  4.01094  0  0  -0.089904  -0.161647  0  3.972315  0
C  C71  1  0.28284975  0.39342159  0.74326192  1  0  -0.143517  0  3.734186  0  0  -0.164429  0  3.98802  0  0  -0.168568  0  4.011096  0  0  -0.089898  -0.161692  0  3.972496  0
C  C72  1  0.64472127  0.59052739  0.19043757  1  0  0.16273  0  3.801897  0  0  0.162562  0  4.051899  0  0  0.164565  0  4.077334  0  0  0.092133  0.161485  0  4.034313  0
C  C73  1  0.35527947  0.40947217  0.80956205  1  0  0.162696  0  3.801909  0  0  0.16249  0  4.051967  0  0  0.164496  0  4.077403  0  0  0.09213  0.161414  0  4.034376  0
C  C74  1  0.57850055  0.51837096  0.20228099  1  0  0.000508  0  3.749647  0  0  0.013696  0  3.973601  0  0  0.012481  0  3.999483  0  0  -0.004525  0.014523  0  3.955815  0
C  C75  1  0.42149967  0.48162779  0.79771803  1  0  0.000448  0  3.749636  0  0  0.01366  0  3.97359  0  0  0.01244  0  3.999478  0  0  -0.004595  0.014493  0  3.955794  0
C  C76  1  0.50219068  0.49996585  0.13768334  1  0  -0.111506  0  3.757297  0  0  -0.137766  0  4.016492  0  0  -0.141778  0  4.038997  0  0  -0.095731  -0.134896  0  4.000927  0
C  C77  1  0.49781080  0.50003044  0.86231636  1  0  -0.111439  0  3.757121  0  0  -0.137698  0  4.01632  0  0  -0.141709  0  4.038826  0  0  -0.095637  -0.134831  0  4.000755  0
C  C78  1  0.43509368  0.43360076  0.15232790  1  0  -0.057307  0  3.810325  0  0  -0.072501  0  4.069181  0  0  -0.074325  0  4.094129  0  0  -0.097647  -0.071048  0  4.052079  0
C  C79  1  0.56491206  0.56639629  0.84767172  1  0  -0.057184  0  3.810256  0  0  -0.07242  0  4.06911  0  0  -0.074245  0  4.094055  0  0  -0.097674  -0.070967  0  4.052008  0
C  C80  1  0.44566623  0.37894531  0.23036008  1  0  -0.165664  0  3.736731  0  0  -0.185373  0  3.986303  0  0  -0.191702  0  4.010685  0  0  -0.098053  -0.181224  0  3.969858  0
C  C81  1  0.55433900  0.62105092  0.76963894  1  0  -0.165941  0  3.737  0  0  -0.185642  0  3.986571  0  0  -0.191972  0  4.01095  0  0  -0.098124  -0.18149  0  3.970123  0
C  C82  1  0.70846881  0.68820247  0.08967725  1  0  0.123146  0  3.695158  0  0  0.08849  0  3.962661  0  0  0.097834  0  3.972029  0  0  0.075082  0.082113  0  3.956487  0
C  C83  1  0.29152777  0.31179796  0.91032177  1  0  0.123158  0  3.695191  0  0  0.088497  0  3.962763  0  0  0.097841  0  3.972132  0  0  0.075077  0.082121  0  3.956587  0
C  C84  1  0.68142549  0.75936033  0.01518432  1  0  0.103435  0  3.767716  0  0  0.115098  0  4.005338  0  0  0.118889  0  4.024733  0  0  0.013231  0.112619  0  3.992315  0
C  C85  1  0.31857618  0.24063921  0.98481466  1  0  0.103362  0  3.767799  0  0  0.114972  0  4.005521  0  0  0.118764  0  4.024914  0  0  0.013199  0.112493  0  3.992503  0
C  C86  1  0.56794071  0.78250926  0.96306333  1  0  -0.142221  0  3.697182  0  0  -0.158674  0  3.940435  0  0  -0.164674  0  3.95925  0  0  -0.074632  -0.154967  0  3.928115  0
C  C87  1  0.43205722  0.21749035  0.03693695  1  0  -0.142311  0  3.697252  0  0  -0.158759  0  3.940508  0  0  -0.164761  0  3.959323  0  0  -0.074677  -0.155052  0  3.92819  0
C  C88  1  0.55029920  0.84893629  0.89223226  1  0  0.122831  0  3.719207  0  0  0.093743  0  3.96631  0  0  0.100497  0  3.984982  0  0  0.042367  0.089307  0  3.953713  0
C  C89  1  0.44969508  0.15106501  0.10776928  1  0  0.122925  0  3.719074  0  0  0.093906  0  3.966145  0  0  0.10066  0  3.98482  0  0  0.042462  0.089469  0  3.953548  0
C  C90  1  0.74571048  0.87314421  0.92145845  1  0  0.13029  0  3.723057  0  0  0.100456  0  3.973272  0  0  0.108054  0  3.991069  0  0  0.046812  0.095487  0  3.961257  0
C  C91  1  0.25428703  0.12685621  0.07853993  1  0  0.130154  0  3.723058  0  0  0.100359  0  3.973277  0  0  0.107956  0  3.991076  0  0  0.046776  0.095388  0  3.961269  0
C  C92  1  0.77040455  0.80777753  0.99372451  1  0  -0.143079  0  3.691772  0  0  -0.160976  0  3.936454  0  0  -0.167754  0  3.956973  0  0  -0.075131  -0.156732  0  3.923062  0
C  C93  1  0.22959229  0.19222782  0.00627690  1  0  -0.142958  0  3.69178  0  0  -0.160812  0  3.936431  0  0  -0.167588  0  3.956951  0  0  -0.075069  -0.156586  0  3.923032  0
C  C94  1  0.68198881  0.16016069  0.85052468  1  0  0.120828  0  3.714796  0  0  0.08938  0  3.971063  0  0  0.096228  0  3.988871  0  0  0.042457  0.084944  0  3.958493  0
C  C95  1  0.31800827  0.83984058  0.14947682  1  0  0.120819  0  3.714691  0  0  0.089416  0  3.970944  0  0  0.096236  0  3.988742  0  0  0.042478  0.08498  0  3.958374  0
C  C96  1  0.73522661  0.23406335  0.87037745  1  0  -0.13233  0  3.684658  0  0  -0.153055  0  3.932082  0  0  -0.159007  0  3.951255  0  0  -0.072545  -0.149325  0  3.919109  0
C  C97  1  0.26477328  0.76593785  0.12962214  1  0  -0.132401  0  3.684634  0  0  -0.15311  0  3.932048  0  0  -0.159061  0  3.95123  0  0  -0.072586  -0.149379  0  3.919075  0
C  C98  1  0.84736109  0.23358272  0.82387589  1  0  0.098222  0  3.774862  0  0  0.114977  0  4.001657  0  0  0.11778  0  4.023451  0  0  0.011693  0.113134  0  3.986746  0
C  C99  1  0.15263913  0.76641603  0.17612376  1  0  0.098191  0  3.77474  0  0  0.114919  0  4.001587  0  0  0.117722  0  4.023378  0  0  0.011652  0.113075  0  3.986677  0
C  C100  1  0.90241666  0.15625651  0.75997789  1  0  -0.148531  0  3.691345  0  0  -0.164876  0  3.929026  0  0  -0.172156  0  3.949817  0  0  -0.075221  -0.159623  0  3.91454  0
C  C101  1  0.09758459  0.84374387  0.24002233  1  0  -0.148466  0  3.691245  0  0  -0.16481  0  3.92894  0  0  -0.172086  0  3.949727  0  0  -0.075198  -0.159557  0  3.914456  0
C  C102  1  0.84418232  0.08401731  0.74515450  1  0  0.126375  0  3.722553  0  0  0.096187  0  3.972433  0  0  0.103099  0  3.991215  0  0  0.045685  0.09196  0  3.959024  0
C  C103  1  0.15581612  0.91598310  0.25484576  1  0  0.126385  0  3.72253  0  0  0.0962  0  3.972414  0  0  0.103112  0  3.991193  0  0  0.045695  0.091972  0  3.959005  0
C  C104  1  0.90762319  0.31037856  0.83962828  1  0  0.114485  0  3.671519  0  0  0.084284  0  3.926463  0  0  0.092512  0  3.937012  0  0  0.081177  0.078855  0  3.918915  0
C  C105  1  0.09237619  0.68962183  0.16037008  1  0  0.114538  0  3.671598  0  0  0.08432  0  3.926587  0  0  0.092548  0  3.937137  0  0  0.081258  0.078893  0  3.919038  0
C  C106  1  0.92858287  0.44934481  0.91190718  1  0  0.148028  0  3.831496  0  0  0.149457  0  4.085048  0  0  0.152504  0  4.108669  0  0  0.089443  0.147845  0  4.068392  0
C  C107  1  0.07141525  0.55065804  0.08808988  1  0  0.148113  0  3.831468  0  0  0.149503  0  4.085074  0  0  0.15255  0  4.108694  0  0  0.089494  0.147891  0  4.068418  0
C  C108  1  0.94672350  0.50976746  0.84425875  1  0  -0.153574  0  3.728826  0  0  -0.175529  0  3.981198  0  0  -0.180204  0  4.004223  0  0  -0.091525  -0.172533  0  3.965399  0
C  C109  1  0.05327837  0.49023533  0.15573700  1  0  -0.153641  0  3.728735  0  0  -0.175584  0  3.981101  0  0  -0.180259  0  4.004127  0  0  -0.091501  -0.172588  0  3.965303  0
C  C110  1  0.96741237  0.46395747  0.99498285  1  0  -0.01059  0  3.760237  0  0  0.001404  0  3.988508  0  0  -0.000534  0  4.014301  0  0  -0.008708  0.002742  0  3.970765  0
C  C111  1  0.03258964  0.53603962  0.00501556  1  0  -0.01074  0  3.760372  0  0  0.001276  0  3.988612  0  0  -0.000662  0  4.014405  0  0  -0.008777  0.002612  0  3.970869  0
C  C112  1  0.94734490  0.40633755  0.06575944  1  0  -0.101891  0  3.744639  0  0  -0.127958  0  4.003856  0  0  -0.131466  0  4.026358  0  0  -0.092149  -0.125644  0  3.988426  0
C  C113  1  0.05265416  0.59366528  0.93423635  1  0  -0.101831  0  3.744641  0  0  -0.127898  0  4.003832  0  0  -0.131407  0  4.026334  0  0  -0.092055  -0.125582  0  3.988402  0
C  C114  1  0.00880452  0.58170918  0.85560946  1  0  -0.051289  0  3.778532  0  0  -0.065913  0  4.034488  0  0  -0.068252  0  4.059125  0  0  -0.091457  -0.063979  0  4.017393  0
C  C115  1  0.99119580  0.41829120  0.14438889  1  0  -0.051255  0  3.778488  0  0  -0.065845  0  4.034416  0  0  -0.06818  0  4.059047  0  0  -0.091413  -0.063911  0  4.017322  0
N  N116  1  0.59336235  0.07272281  0.61354970  1  0  -0.336717  0  3.279955  0  0  -0.256152  0  3.545444  0  0  -0.277357  0  3.566554  0  0  -0.335356  -0.241743  0  3.530827  0
N  N117  1  0.40663983  0.92727756  0.38645240  1  0  -0.336749  0  3.279878  0  0  -0.256156  0  3.545369  0  0  -0.277359  0  3.566475  0  0  -0.335412  -0.241746  0  3.530751  0
N  N118  1  0.53452197  0.34165728  0.37332705  1  0  -0.302961  0  3.097651  0  0  -0.266669  0  3.362583  0  0  -0.279045  0  3.377195  0  0  -0.293772  -0.2579  0  3.352342  0
N  N119  1  0.46548345  0.65834221  0.62667252  1  0  -0.302838  0  3.097722  0  0  -0.26653  0  3.362657  0  0  -0.27891  0  3.377278  0  0  -0.293726  -0.257761  0  3.352413  0
N  N120  1  0.62482902  0.64750965  0.11376141  1  0  -0.320872  0  3.121668  0  0  -0.28286  0  3.393982  0  0  -0.295072  0  3.409605  0  0  -0.300423  -0.274829  0  3.383125  0
N  N121  1  0.37516713  0.35249161  0.88623760  1  0  -0.320827  0  3.12173  0  0  -0.282778  0  3.394039  0  0  -0.29499  0  3.409659  0  0  -0.300419  -0.274748  0  3.383181  0
N  N122  1  0.63821611  0.89308622  0.87111001  1  0  -0.329885  0  3.274433  0  0  -0.249142  0  3.536916  0  0  -0.269415  0  3.556931  0  0  -0.335591  -0.235454  0  3.523209  0
N  N123  1  0.36177817  0.10691508  0.12889090  1  0  -0.329902  0  3.274446  0  0  -0.249133  0  3.536879  0  0  -0.269405  0  3.556897  0  0  -0.335601  -0.235444  0  3.523173  0
N  N124  1  0.73516707  0.08615793  0.78906280  1  0  -0.336453  0  3.263844  0  0  -0.259091  0  3.529586  0  0  -0.278452  0  3.54864  0  0  -0.332217  -0.245249  0  3.515952  0
N  N125  1  0.26483282  0.91384329  0.21093805  1  0  -0.336413  0  3.263922  0  0  -0.259042  0  3.529617  0  0  -0.278405  0  3.548687  0  0  -0.33218  -0.2452  0  3.515985  0
N  N126  1  0.87092543  0.37484837  0.90281748  1  0  -0.309775  0  3.114727  0  0  -0.273253  0  3.385686  0  0  -0.285086  0  3.40116  0  0  -0.296255  -0.264551  0  3.374207  0
N  N127  1  0.12907311  0.62515367  0.09718085  1  0  -0.309809  0  3.114774  0  0  -0.27327  0  3.385755  0  0  -0.285104  0  3.401228  0  0  -0.296337  -0.26457  0  3.374278  0
N  N128  1  0.32638515  0.09451273  0.76623594  1  0  0.717066  0  4.110109  0  0  0.737026  0  4.414162  0  0  0.766102  0  4.419576  0  0  0.093413  0.717386  0  4.409707  0
N  N129  1  0.67361422  0.90548768  0.23376557  1  0  0.717169  0  4.109853  0  0  0.737129  0  4.413908  0  0  0.766204  0  4.419323  0  0  0.093445  0.71749  0  4.409454  0
N  N130  1  0.81507152  0.77004671  0.68193843  1  0  0.709758  0  4.103559  0  0  0.730881  0  4.409915  0  0  0.759678  0  4.415498  0  0  0.089275  0.711438  0  4.405596  0
N  N131  1  0.18492008  0.22994895  0.31806642  1  0  0.709927  0  4.103814  0  0  0.73099  0  4.410228  0  0  0.759786  0  4.415817  0  0  0.08923  0.711542  0  4.405911  0
O  O132  1  0.40829769  0.13391964  0.79130458  1  0  -0.491425  0  1.795537  0  0  -0.462921  0  2.028265  0  0  -0.482387  0  2.023666  0  0  -0.194561  -0.448637  0  2.030992  0
O  O133  1  0.59170220  0.86608157  0.20869563  1  0  -0.491524  0  1.795479  0  0  -0.463001  0  2.028172  0  0  -0.482463  0  2.023573  0  0  -0.194607  -0.448717  0  2.030904  0
O  O134  1  0.37865899  0.99903105  0.73342813  1  0  -0.506487  0  1.764959  0  0  -0.484228  0  1.994246  0  0  -0.501337  0  1.9836  0  0  -0.206923  -0.471854  0  2.000998  0
O  O135  1  0.62133767  0.00097102  0.26657211  1  0  -0.50653  0  1.764931  0  0  -0.484273  0  1.994224  0  0  -0.50138  0  1.983574  0  0  -0.206929  -0.471897  0  2.000978  0
O  O136  1  0.19954164  0.14788962  0.77343552  1  0  -0.444399  0  1.738673  0  0  -0.444411  0  1.953413  0  0  -0.456207  0  1.944931  0  0  -0.182702  -0.435908  0  1.959331  0
O  O137  1  0.80045815  0.85210999  0.22656914  1  0  -0.444383  0  1.738529  0  0  -0.444387  0  1.953252  0  0  -0.456182  0  1.944771  0  0  -0.182687  -0.435885  0  1.959172  0
O  O138  1  0.86187004  0.83577208  0.71019587  1  0  -0.507739  0  1.707189  0  0  -0.493109  0  1.926118  0  0  -0.510534  0  1.917469  0  0  -0.224722  -0.480844  0  1.931806  0
O  O139  1  0.13811704  0.16423418  0.28979872  1  0  -0.507819  0  1.707311  0  0  -0.493177  0  1.926239  0  0  -0.510601  0  1.91759  0  0  -0.224732  -0.480911  0  1.931927  0
O  O140  1  0.68252969  0.80731326  0.67572480  1  0  -0.521588  0  1.754505  0  0  -0.494324  0  1.99061  0  0  -0.51521  0  1.982826  0  0  -0.223145  -0.47945  0  1.99548  0
O  O141  1  0.31746039  0.19267273  0.32429351  1  0  -0.52177  0  1.754853  0  0  -0.494393  0  1.990898  0  0  -0.515258  0  1.983065  0  0  -0.223104  -0.479515  0  1.995767  0
O  O142  1  0.89138749  0.67492740  0.66154518  1  0  -0.407301  0  1.686539  0  0  -0.407262  0  1.874611  0  0  -0.416239  0  1.86775  0  0  -0.177688  -0.401017  0  1.879423  0
O  O143  1  0.10861273  0.32507137  0.33845698  1  0  -0.407274  0  1.686438  0  0  -0.407238  0  1.874548  0  0  -0.416218  0  1.867686  0  0  -0.177673  -0.400992  0  1.879358  0
