# generated using pymatgen
data_GdH14C15O7
_symmetry_space_group_name_H-M   'P 1'
_cell_length_a   7.59811858
_cell_length_b   15.34230027
_cell_length_c   15.40460000
_cell_angle_alpha   62.69584432
_cell_angle_beta   87.01337903
_cell_angle_gamma   87.04201612
_symmetry_Int_Tables_number   1
_chemical_formula_structural   GdH14C15O7
_chemical_formula_sum   'Gd4 H56 C60 O28'
_cell_volume   1592.73456850
_cell_formula_units_Z   4
loop_
 _symmetry_equiv_pos_site_id
 _symmetry_equiv_pos_as_xyz
  1  'x, y, z'
loop_
 _atom_site_type_symbol
 _atom_site_label
 _atom_site_symmetry_multiplicity
 _atom_site_fract_x
 _atom_site_fract_y
 _atom_site_fract_z
 _atom_site_occupancy
 _atom_site_hle17_bader_spin_density
 _atom_site_hle17_ddec_charge
 _atom_site_hle17_ddec_spin_density
 _atom_site_hle17_ddec_sum_bond_order
 _atom_site_hle17_magmom
 _atom_site_hse06_10hf_bader_spin_density
 _atom_site_hse06_10hf_ddec_charge
 _atom_site_hse06_10hf_ddec_spin_density
 _atom_site_hse06_10hf_ddec_sum_bond_order
 _atom_site_hse06_10hf_magmom
 _atom_site_hse06_bader_spin_density
 _atom_site_hse06_ddec_charge
 _atom_site_hse06_ddec_spin_density
 _atom_site_hse06_ddec_sum_bond_order
 _atom_site_hse06_magmom
 _atom_site_pbe_bader_charge
 _atom_site_pbe_bader_spin_density
 _atom_site_pbe_cm5_charge
 _atom_site_pbe_ddec_charge
 _atom_site_pbe_ddec_spin_density
 _atom_site_pbe_ddec_sum_bond_order
 _atom_site_pbe_magmom
Gd  Gd0  1  0.46684136  0.14133061  0.21753691  1  0  2.192607  0  1.794373  0  0  2.10098  0  2.148559  0  0  2.1586  0  2.091402  0  2.184264  0  1.488243  2.057403  0  2.192691  0
Gd  Gd1  1  0.03305023  0.78219606  0.85873459  1  0  2.192616  0  1.79372  0  0  2.100953  0  2.147725  0  0  2.158374  0  2.090872  0  2.184366  0  1.487727  2.0574  0  2.191815  0
Gd  Gd2  1  0.53316003  0.85866890  0.78246322  1  0  2.192591  0  1.794391  0  0  2.100949  0  2.148591  0  0  2.158569  0  2.091434  0  2.184389  0  1.488231  2.057371  0  2.192726  0
Gd  Gd3  1  0.96694977  0.21780491  0.14126425  1  0  2.192626  0  1.793723  0  0  2.100921  0  2.147803  0  0  2.158347  0  2.090941  0  2.184389  0  1.487726  2.057343  0  2.191932  0
H  H4  1  0.49756042  0.39325049  0.21559237  1  0  0.117011  0  0.910573  0  0  0.13422  0  0.964021  0  0  0.136566  0  0.96285  0  0.048049  0  0.112117  0.132559  0  0.964932  0
H  H5  1  0.00178955  0.78492095  0.60647089  1  0  0.117077  0  0.910699  0  0  0.134355  0  0.963881  0  0  0.136624  0  0.962758  0  0.046022  0  0.11206  0.132713  0  0.964765  0
H  H6  1  0.50244109  0.60674682  0.78440940  1  0  0.11699  0  0.91063  0  0  0.134212  0  0.96407  0  0  0.136557  0  0.962897  0  0.048007  0  0.112113  0.132551  0  0.964981  0
H  H7  1  0.99821193  0.21507709  0.39352926  1  0  0.117074  0  0.910673  0  0  0.134343  0  0.963869  0  0  0.136615  0  0.962745  0  0.046  0  0.112057  0.132701  0  0.964752  0
H  H8  1  0.57498760  0.32127925  0.33305611  1  0  0.135385  0  0.922736  0  0  0.149867  0  0.979274  0  0  0.152904  0  0.977755  0  0.111044  0  0.114241  0.147716  0  0.980448  0
H  H9  1  0.92512593  0.66676101  0.67824583  1  0  0.135268  0  0.922716  0  0  0.149698  0  0.979135  0  0  0.152683  0  0.977632  0  0.121831  0  0.114267  0.147559  0  0.980305  0
H  H10  1  0.42501252  0.67871952  0.66694568  1  0  0.13535  0  0.92273  0  0  0.149848  0  0.979258  0  0  0.152884  0  0.977741  0  0.111077  0  0.114249  0.147698  0  0.980431  0
H  H11  1  0.07487019  0.33323850  0.32175443  1  0  0.135283  0  0.922688  0  0  0.149702  0  0.979119  0  0  0.152688  0  0.977616  0  0.121925  0  0.114271  0.147563  0  0.980289  0
H  H12  1  0.92385756  0.68427496  0.25785346  1  0  0.087171  0  0.977283  0  0  0.09778  0  1.038136  0  0  0.099457  0  1.039332  0  0.099815  0  0.095778  0.096486  0  1.037493  0
H  H13  1  0.57691890  0.74106524  0.31703855  1  0  0.087701  0  0.975662  0  0  0.098673  0  1.036078  0  0  0.100454  0  1.037168  0  0.110149  0  0.096029  0.09738  0  1.035426  0
H  H14  1  0.07614379  0.31572528  0.74214828  1  0  0.087167  0  0.977305  0  0  0.097779  0  1.038157  0  0  0.099456  0  1.039352  0  0.100122  0  0.095783  0.096488  0  1.037511  0
H  H15  1  0.42308505  0.25893574  0.68295889  1  0  0.087699  0  0.97563  0  0  0.098682  0  1.036041  0  0  0.100463  0  1.03713  0  0.110178  0  0.096049  0.097388  0  1.03539  0
H  H16  1  0.90013578  0.52719757  0.41197944  1  0  0.078826  0  0.959697  0  0  0.090625  0  1.020589  0  0  0.093158  0  1.019802  0  0.02823  0  0.094642  0.088797  0  1.02124  0
H  H17  1  0.59984462  0.58670906  0.47390149  1  0  0.078684  0  0.959992  0  0  0.090413  0  1.020961  0  0  0.093013  0  1.020078  0  0.050598  0  0.094724  0.088565  0  1.021638  0
H  H18  1  0.09986430  0.47280194  0.58801942  1  0  0.078853  0  0.959764  0  0  0.090655  0  1.020644  0  0  0.093189  0  1.019857  0  0.0282  0  0.094676  0.08883  0  1.021293  0
H  H19  1  0.40015674  0.41329118  0.52609570  1  0  0.07868  0  0.960078  0  0  0.090398  0  1.021051  0  0  0.092995  0  1.020173  0  0.050579  0  0.094723  0.088552  0  1.021726  0
H  H20  1  0.74983727  0.38663460  0.41109104  1  0  0.084586  0  0.957457  0  0  0.09638  0  1.018281  0  0  0.09908  0  1.017454  0  0.056502  0  0.095468  0.094437  0  1.018939  0
H  H21  1  0.74937206  0.58810930  0.61373830  1  0  0.084252  0  0.958346  0  0  0.095832  0  1.019474  0  0  0.098588  0  1.01859  0  0.048675  0  0.095158  0.093877  0  1.020147  0
H  H22  1  0.25016672  0.61336564  0.58890738  1  0  0.084665  0  0.957375  0  0  0.096452  0  1.018199  0  0  0.099152  0  1.017372  0  0.056476  0  0.095511  0.094508  0  1.018859  0
H  H23  1  0.25062662  0.41189168  0.38626122  1  0  0.084302  0  0.958329  0  0  0.095872  0  1.019459  0  0  0.098628  0  1.018575  0  0.048668  0  0.095168  0.093916  0  1.020134  0
H  H24  1  0.15644765  0.02268925  0.33404335  1  0  0.4255  0  0.883398  0  0  0.393016  0  0.950711  0  0  0.404176  0  0.934612  0  0.657065  0  0.29576  0.385042  0  0.962189  0
H  H25  1  0.34346429  0.66551856  0.97704320  1  0  0.425264  0  0.883816  0  0  0.392902  0  0.95109  0  0  0.404115  0  0.934908  0  0.65689  0  0.295261  0.384893  0  0.962603  0
H  H26  1  0.84355239  0.97731099  0.66595712  1  0  0.425492  0  0.883404  0  0  0.393017  0  0.950704  0  0  0.404177  0  0.934605  0  0.657066  0  0.295766  0.385043  0  0.962183  0
H  H27  1  0.65653711  0.33448095  0.02295627  1  0  0.425265  0  0.88382  0  0  0.392902  0  0.951098  0  0  0.404116  0  0.934916  0  0.656913  0  0.295259  0.384892  0  0.962613  0
H  H28  1  0.32581687  0.94830013  0.36942253  1  0  0.438096  0  0.807967  0  0  0.422886  0  0.859549  0  0  0.430678  0  0.85103  0  0.628069  0  0.332843  0.417343  0  0.865633  0
H  H29  1  0.17373140  0.63027268  0.05094874  1  0  0.438311  0  0.80766  0  0  0.42319  0  0.858962  0  0  0.430969  0  0.850471  0  0.634668  0  0.33305  0.417637  0  0.865054  0
H  H30  1  0.67418316  0.05170011  0.63057924  1  0  0.438079  0  0.807961  0  0  0.422865  0  0.859558  0  0  0.430657  0  0.85104  0  0.628062  0  0.332838  0.417321  0  0.865643  0
H  H31  1  0.82626736  0.36972682  0.94904950  1  0  0.438267  0  0.807731  0  0  0.423141  0  0.859032  0  0  0.430924  0  0.850542  0  0.634642  0  0.333025  0.417589  0  0.865122  0
H  H32  1  0.80799758  0.69908238  0.10604403  1  0  0.104216  0  0.961428  0  0  0.115375  0  1.020183  0  0  0.118873  0  1.017989  0  0.104052  0  0.104931  0.112821  0  1.021915  0
H  H33  1  0.69304162  0.89365571  0.30185015  1  0  0.103218  0  0.962129  0  0  0.115123  0  1.019781  0  0  0.118717  0  1.017454  0  0.072044  0  0.105119  0.112528  0  1.021572  0
H  H34  1  0.19200506  0.30091859  0.89395669  1  0  0.104224  0  0.9614  0  0  0.115383  0  1.020153  0  0  0.118882  0  1.017959  0  0.104061  0  0.104929  0.112829  0  1.021886  0
H  H35  1  0.30696105  0.10634453  0.69814961  1  0  0.103225  0  0.962128  0  0  0.11511  0  1.019802  0  0  0.118702  0  1.017479  0  0.072068  0  0.105101  0.112515  0  1.021591  0
H  H36  1  0.70352238  0.49741174  0.06457480  1  0  0.139568  0  0.914118  0  0  0.156057  0  0.966847  0  0  0.158855  0  0.9652  0  0.099033  0  0.11619  0.154031  0  0.968182  0
H  H37  1  0.79595985  0.93659921  0.50192491  1  0  0.139495  0  0.913138  0  0  0.1559  0  0.965926  0  0  0.158683  0  0.964284  0  0.096331  0  0.11599  0.153883  0  0.967235  0
H  H38  1  0.29647889  0.50258997  0.93542562  1  0  0.139636  0  0.914065  0  0  0.156117  0  0.966804  0  0  0.158915  0  0.965159  0  0.098975  0  0.116221  0.15409  0  0.96814  0
H  H39  1  0.20403755  0.06340103  0.49807433  1  0  0.139539  0  0.91311  0  0  0.155939  0  0.965893  0  0  0.15872  0  0.964252  0  0.096362  0  0.116011  0.15391  0  0.967215  0
H  H40  1  0.49789915  0.54472620  0.08662901  1  0  0.097733  0  0.942661  0  0  0.111613  0  1.003907  0  0  0.113989  0  1.002106  0  0.053108  0  0.098085  0.109869  0  1.005293  0
H  H41  1  0.00185004  0.91412572  0.45526722  1  0  0.09772  0  0.943112  0  0  0.111864  0  1.004013  0  0  0.114223  0  1.002232  0  0.052687  0  0.098279  0.110148  0  1.00537  0
H  H42  1  0.50210212  0.45527550  0.91337076  1  0  0.097713  0  0.942641  0  0  0.111593  0  1.003893  0  0  0.113969  0  1.002091  0  0.053086  0  0.098081  0.109852  0  1.005276  0
H  H43  1  0.99815000  0.08587452  0.54473325  1  0  0.097718  0  0.943125  0  0  0.111844  0  1.004027  0  0  0.114198  0  1.002251  0  0.052696  0  0.098281  0.11013  0  1.00538  0
H  H44  1  0.63040358  0.06199272  0.98854732  1  0  0.123497  0  0.913289  0  0  0.141224  0  0.965795  0  0  0.143525  0  0.964601  0  0.029305  0  0.112385  0.139584  0  0.966705  0
H  H45  1  0.87000873  0.01104117  0.93810768  1  0  0.124172  0  0.912979  0  0  0.141737  0  0.965392  0  0  0.143982  0  0.964288  0  0.075453  0  0.112759  0.14012  0  0.966283  0
H  H46  1  0.36959786  0.93800605  0.01145314  1  0  0.123463  0  0.913308  0  0  0.141186  0  0.96583  0  0  0.143489  0  0.964634  0  0.02935  0  0.112373  0.139546  0  0.96674  0
H  H47  1  0.12999003  0.98895834  0.06189251  1  0  0.124196  0  0.912959  0  0  0.14176  0  0.965379  0  0  0.144006  0  0.964274  0  0.075447  0  0.112767  0.140144  0  0.966268  0
H  H48  1  0.51591106  0.16975804  0.97335333  1  0  0.123668  0  0.914996  0  0  0.138338  0  0.972966  0  0  0.14098  0  0.971645  0  0.075494  0  0.114996  0.136461  0  0.973953  0
H  H49  1  0.98476020  0.02628745  0.83080225  1  0  0.1239  0  0.915211  0  0  0.138329  0  0.973268  0  0  0.140984  0  0.971927  0  0.073248  0  0.115094  0.136448  0  0.974278  0
H  H50  1  0.48409038  0.83024074  0.02664713  1  0  0.123679  0  0.915018  0  0  0.138361  0  0.972979  0  0  0.141001  0  0.971659  0  0.075477  0  0.115014  0.136484  0  0.973965  0
H  H51  1  0.01523600  0.97371059  0.16919868  1  0  0.123917  0  0.915226  0  0  0.138361  0  0.973257  0  0  0.141015  0  0.971917  0  0.073201  0  0.115121  0.136481  0  0.974266  0
H  H52  1  0.57495907  0.32907155  0.83629808  1  0  0.082369  0  0.979381  0  0  0.092735  0  1.044029  0  0  0.094647  0  1.044599  0  0.054925  0  0.093612  0.091343  0  1.043745  0
H  H53  1  0.92510530  0.16335937  0.67203613  1  0  0.082376  0  0.979996  0  0  0.092999  0  1.044131  0  0  0.094913  0  1.044709  0  0.053549  0  0.093767  0.09159  0  1.043864  0
H  H54  1  0.42504233  0.67092796  0.16370204  1  0  0.082374  0  0.979355  0  0  0.092708  0  1.04404  0  0  0.094618  0  1.044614  0  0.054909  0  0.093616  0.091317  0  1.043755  0
H  H55  1  0.07489745  0.83663940  0.32796430  1  0  0.082339  0  0.980023  0  0  0.092985  0  1.04414  0  0  0.0949  0  1.044715  0  0.053323  0  0.093765  0.091557  0  1.043892  0
H  H56  1  0.66078024  0.42278681  0.66170428  1  0  0.083228  0  0.954276  0  0  0.097484  0  1.010316  0  0  0.099734  0  1.009911  0  0.042964  0  0.099382  0.095833  0  1.010726  0
H  H57  1  0.83777923  0.33847838  0.57794482  1  0  0.08327  0  0.954077  0  0  0.097729  0  1.009557  0  0  0.099982  0  1.009159  0  0.051426  0  0.099347  0.096109  0  1.00993  0
H  H58  1  0.33921992  0.57721123  0.33829654  1  0  0.083212  0  0.954288  0  0  0.097447  0  1.010356  0  0  0.099696  0  1.009953  0  0.04292  0  0.099387  0.095821  0  1.010739  0
H  H59  1  0.16222349  0.66152113  0.42205592  1  0  0.083263  0  0.954078  0  0  0.097704  0  1.00958  0  0  0.099957  0  1.00918  0  0.051416  0  0.099326  0.096083  0  1.009953  0
C  C60  1  0.74392811  0.32098203  0.21959202  1  0  0.740367  0  3.786831  0  0  0.698342  0  4.088704  0  0  0.731598  0  4.080676  0  1.547835  0  0.21782  0.675732  0  4.093219  0
C  C61  1  0.75587654  0.78031587  0.67915755  1  0  0.740735  0  3.784069  0  0  0.697854  0  4.087151  0  0  0.731071  0  4.07917  0  1.54198  0  0.217519  0.675247  0  4.091665  0
C  C62  1  0.25607074  0.67901601  0.78040949  1  0  0.740359  0  3.786742  0  0  0.698383  0  4.088559  0  0  0.731638  0  4.080531  0  1.547633  0  0.217822  0.675774  0  4.093075  0
C  C63  1  0.24412341  0.21968584  0.32084030  1  0  0.740698  0  3.784079  0  0  0.697849  0  4.087108  0  0  0.731069  0  4.079127  0  1.543241  0  0.217526  0.675243  0  4.09162  0
C  C64  1  0.69550984  0.46298487  0.25810329  1  0  0.064588  0  3.745582  0  0  0.07822  0  3.982859  0  0  0.077618  0  4.008293  0  -0.00225  0  -0.01741  0.078597  0  3.965661  0
C  C65  1  0.80395303  0.74174848  0.53740082  1  0  0.064719  0  3.744473  0  0  0.078276  0  3.981779  0  0  0.077678  0  4.007152  0  0.000511  0  -0.01706  0.078634  0  3.964605  0
C  C66  1  0.30449015  0.53701610  0.74189620  1  0  0.06453  0  3.745604  0  0  0.078177  0  3.982913  0  0  0.077573  0  4.008346  0  -0.002264  0  -0.017407  0.078535  0  3.965741  0
C  C67  1  0.19604441  0.25825103  0.46259941  1  0  0.064577  0  3.744536  0  0  0.078275  0  3.981707  0  0  0.077677  0  4.007079  0  0.000367  0  -0.017066  0.078632  0  3.964533  0
C  C68  1  0.61709315  0.37482946  0.25896521  1  0  -0.309059  0  3.704024  0  0  -0.352801  0  3.947428  0  0  -0.358765  0  3.955446  0  -0.045013  0  -0.153967  -0.348758  0  3.942043  0
C  C69  1  0.88250668  0.74109239  0.62510444  1  0  -0.309403  0  3.701437  0  0  -0.352478  0  3.944513  0  0  -0.358234  0  3.952273  0  -0.054767  0  -0.15418  -0.348472  0  3.939153  0
C  C70  1  0.38290829  0.62516931  0.74103784  1  0  -0.308969  0  3.704006  0  0  -0.352769  0  3.947462  0  0  -0.358722  0  3.955459  0  -0.045125  0  -0.153966  -0.348722  0  3.942082  0
C  C71  1  0.11749340  0.25890712  0.37489506  1  0  -0.309328  0  3.701456  0  0  -0.352423  0  3.944472  0  0  -0.358187  0  3.952237  0  -0.05619  0  -0.154132  -0.348416  0  3.939111  0
C  C72  1  0.86040384  0.62190356  0.25860864  1  0  -0.064396  0  3.795148  0  0  -0.079148  0  4.046302  0  0  -0.080494  0  4.068734  0  -0.027842  0  -0.096155  -0.078077  0  4.031017  0
C  C73  1  0.63999672  0.74056767  0.37912457  1  0  -0.064494  0  3.796119  0  0  -0.079667  0  4.04745  0  0  -0.081099  0  4.069863  0  -0.038058  0  -0.096003  -0.078598  0  4.032173  0
C  C74  1  0.13959624  0.37809595  0.74139282  1  0  -0.064417  0  3.795169  0  0  -0.079175  0  4.046325  0  0  -0.080521  0  4.068756  0  -0.028122  0  -0.096183  -0.07811  0  4.031043  0
C  C75  1  0.36000595  0.25943257  0.62087324  1  0  -0.064414  0  3.796047  0  0  -0.079583  0  4.047356  0  0  -0.081014  0  4.069768  0  -0.037919  0  -0.095979  -0.078515  0  4.032081  0
C  C76  1  0.84674985  0.53410922  0.34471396  1  0  -0.082168  0  3.82482  0  0  -0.097516  0  4.079225  0  0  -0.100087  0  4.102191  0  -0.035037  0  -0.100607  -0.095685  0  4.063529  0
C  C77  1  0.65324225  0.65435190  0.46678472  1  0  -0.082786  0  3.825817  0  0  -0.097964  0  4.080128  0  0  -0.100598  0  4.103104  0  -0.070333  0  -0.101133  -0.09611  0  4.064456  0
C  C78  1  0.15324755  0.46589102  0.65528528  1  0  -0.082195  0  3.82485  0  0  -0.097543  0  4.079255  0  0  -0.100114  0  4.10222  0  -0.035013  0  -0.100633  -0.095714  0  4.063558  0
C  C79  1  0.34675643  0.34564908  0.53321351  1  0  -0.082825  0  3.825825  0  0  -0.098  0  4.080157  0  0  -0.100633  0  4.103131  0  -0.070672  0  -0.101163  -0.096147  0  4.064486  0
C  C80  1  0.76290674  0.45566813  0.34414979  1  0  -0.131448  0  3.780915  0  0  -0.151319  0  4.03201  0  0  -0.154356  0  4.054723  0  -0.068745  0  -0.099076  -0.149122  0  4.016507  0
C  C81  1  0.73660049  0.65523181  0.54488653  1  0  -0.130731  0  3.781738  0  0  -0.150358  0  4.032721  0  0  -0.153468  0  4.055461  0  -0.052887  0  -0.098386  -0.148144  0  4.017239  0
C  C82  1  0.23709062  0.54433285  0.65585042  1  0  -0.131505  0  3.78087  0  0  -0.15136  0  4.031965  0  0  -0.154402  0  4.054687  0  -0.068705  0  -0.099099  -0.149156  0  4.016469  0
C  C83  1  0.26339691  0.34476843  0.45511206  1  0  -0.130836  0  3.781658  0  0  -0.150487  0  4.032605  0  0  -0.153597  0  4.055341  0  -0.052537  0  -0.098469  -0.148274  0  4.017127  0
C  C84  1  0.71190941  0.55107790  0.17070296  1  0  0.074  0  3.700417  0  0  0.087866  0  3.937576  0  0  0.088214  0  3.961321  0  -0.035466  0  -0.009312  0.087623  0  3.92153  0
C  C85  1  0.78802737  0.82924780  0.44939128  1  0  0.074516  0  3.699312  0  0  0.087788  0  3.937549  0  0  0.088089  0  3.961373  0  -0.033538  0  -0.009606  0.087573  0  3.921455  0
C  C86  1  0.28809059  0.44892307  0.82929718  1  0  0.074023  0  3.700382  0  0  0.087833  0  3.937641  0  0  0.08818  0  3.961388  0  -0.035341  0  -0.009385  0.087597  0  3.921597  0
C  C87  1  0.21197135  0.17075244  0.55060793  1  0  0.074714  0  3.699195  0  0  0.08785  0  3.93752  0  0  0.088153  0  3.961341  0  -0.033622  0  -0.009587  0.087634  0  3.921426  0
C  C88  1  0.79308233  0.63013178  0.17255665  1  0  -0.133476  0  3.751545  0  0  -0.154489  0  4.001584  0  0  -0.156971  0  4.021196  0  -0.097302  0  -0.097727  -0.152762  0  3.988316  0
C  C89  1  0.70737912  0.82704544  0.37069316  1  0  -0.132903  0  3.752676  0  0  -0.154069  0  4.002481  0  0  -0.156625  0  4.022123  0  -0.061513  0  -0.097681  -0.152308  0  3.989218  0
C  C90  1  0.20691766  0.36986920  0.82744349  1  0  -0.133468  0  3.751522  0  0  -0.154456  0  4.001578  0  0  -0.156938  0  4.02119  0  -0.097328  0  -0.097683  -0.152729  0  3.988308  0
C  C91  1  0.29262083  0.17295627  0.62930535  1  0  -0.133036  0  3.75264  0  0  -0.15416  0  4.002484  0  0  -0.156718  0  4.022127  0  -0.061428  0  -0.097705  -0.152398  0  3.989219  0
C  C92  1  0.64057831  0.55677792  0.07797569  1  0  -0.317082  0  3.682646  0  0  -0.35829  0  3.921089  0  0  -0.36395  0  3.927579  0  -0.079409  0  -0.157242  -0.354381  0  3.916764  0
C  C93  1  0.85923164  0.92263428  0.44315696  1  0  -0.317262  0  3.683355  0  0  -0.358639  0  3.921914  0  0  -0.364301  0  3.928443  0  -0.075942  0  -0.157527  -0.354737  0  3.917531  0
C  C94  1  0.35942296  0.44322379  0.92202473  1  0  -0.317136  0  3.68257  0  0  -0.358332  0  3.921048  0  0  -0.363993  0  3.927538  0  -0.079428  0  -0.157268  -0.354426  0  3.916723  0
C  C95  1  0.14076975  0.07736523  0.55684446  1  0  -0.317351  0  3.683277  0  0  -0.35865  0  3.921829  0  0  -0.364308  0  3.928353  0  -0.075981  0  -0.157555  -0.354741  0  3.917449  0
C  C96  1  0.67882847  0.65117274  0.98695888  1  0  0.778563  0  3.7755  0  0  0.734862  0  4.073655  0  0  0.769466  0  4.062967  0  1.588763  0  0.245061  0.711247  0  4.080196  0
C  C97  1  0.82122604  0.01337489  0.34854081  1  0  0.7772  0  3.777011  0  0  0.733974  0  4.074468  0  0  0.768683  0  4.063634  0  1.584678  0  0.244903  0.710324  0  4.081053  0
C  C98  1  0.32117420  0.34882750  0.01304153  1  0  0.778551  0  3.775535  0  0  0.73488  0  4.073664  0  0  0.769484  0  4.062979  0  1.588732  0  0.245097  0.711265  0  4.080204  0
C  C99  1  0.17877676  0.98662315  0.65145995  1  0  0.77719  0  3.777027  0  0  0.733951  0  4.074493  0  0  0.768661  0  4.063659  0  1.584694  0  0.24498  0.710301  0  4.081074  0
C  C100  1  0.77210902  0.15333829  0.02816185  1  0  0.725134  0  3.828085  0  0  0.683084  0  4.133449  0  0  0.716264  0  4.125022  0  1.551994  0  0.211053  0.660499  0  4.138266  0
C  C101  1  0.72822118  0.97178931  0.84676465  1  0  0.726227  0  3.827618  0  0  0.684009  0  4.132916  0  0  0.717183  0  4.124481  0  1.553478  0  0.211235  0.661454  0  4.137723  0
C  C102  1  0.22789242  0.84666048  0.97183861  1  0  0.725201  0  3.828028  0  0  0.68315  0  4.133411  0  0  0.716331  0  4.124981  0  1.551705  0  0.211077  0.660562  0  4.138234  0
C  C103  1  0.27177350  0.02821240  0.15323464  1  0  0.726202  0  3.827748  0  0  0.684012  0  4.133004  0  0  0.717186  0  4.124568  0  1.55338  0  0.211231  0.661451  0  4.137817  0
C  C104  1  0.64578132  0.14130639  0.96125769  1  0  -0.296545  0  3.673712  0  0  -0.340204  0  3.917105  0  0  -0.345291  0  3.923712  0  0.006835  0  -0.150261  -0.336713  0  3.912619  0
C  C105  1  0.85491231  0.03857473  0.85908341  1  0  -0.29839  0  3.675913  0  0  -0.341695  0  3.918463  0  0  -0.346771  0  3.925033  0  -0.037886  0  -0.15048  -0.338253  0  3.914057  0
C  C106  1  0.35421880  0.85869238  0.03874215  1  0  -0.296567  0  3.673761  0  0  -0.340237  0  3.917197  0  0  -0.345324  0  3.923806  0  0.006838  0  -0.150304  -0.336743  0  3.912707  0
C  C107  1  0.14508517  0.96142404  0.14091780  1  0  -0.298421  0  3.675998  0  0  -0.341751  0  3.918537  0  0  -0.346828  0  3.925107  0  -0.037813  0  -0.150507  -0.338309  0  3.91413  0
C  C108  1  0.70090715  0.19287073  0.85453572  1  0  0.077661  0  3.706505  0  0  0.091147  0  3.942209  0  0  0.0914  0  3.965637  0  0.001117  0  -0.007995  0.090913  0  3.926422  0
C  C109  1  0.79992267  0.14569204  0.80764728  1  0  0.07856  0  3.706016  0  0  0.092912  0  3.940786  0  0  0.093235  0  3.96412  0  -0.044032  0  -0.008768  0.092645  0  3.92506  0
C  C110  1  0.29909285  0.80713024  0.14546377  1  0  0.077681  0  3.706513  0  0  0.091129  0  3.942253  0  0  0.091382  0  3.965682  0  0.001126  0  -0.008009  0.090896  0  3.926466  0
C  C111  1  0.20008001  0.85430821  0.19235313  1  0  0.078545  0  3.70597  0  0  0.092945  0  3.940708  0  0  0.09327  0  3.964039  0  -0.043999  0  -0.008739  0.09268  0  3.924976  0
C  C112  1  0.65367243  0.29262726  0.80044669  1  0  -0.125523  0  3.752926  0  0  -0.145274  0  4.003794  0  0  -0.147781  0  4.025183  0  -0.038934  0  -0.094808  -0.143517  0  3.989317  0
C  C113  1  0.84648423  0.19961506  0.70812126  1  0  -0.126082  0  3.753372  0  0  -0.146192  0  4.004163  0  0  -0.148699  0  4.025462  0  -0.035649  0  -0.094908  -0.144421  0  3.989742  0
C  C114  1  0.34632897  0.70737225  0.19955408  1  0  -0.125523  0  3.752868  0  0  -0.145233  0  4.003748  0  0  -0.147738  0  4.025137  0  -0.038893  0  -0.094797  -0.143478  0  3.989282  0
C  C115  1  0.15351984  0.80038372  0.29187978  1  0  -0.126006  0  3.753279  0  0  -0.146142  0  4.004042  0  0  -0.148648  0  4.02534  0  -0.035371  0  -0.094899  -0.144355  0  3.989627  0
C  C116  1  0.70107660  0.34557863  0.70171230  1  0  -0.068661  0  3.797946  0  0  -0.084178  0  4.051778  0  0  -0.085665  0  4.072567  0  -0.032488  0  -0.092387  -0.083062  0  4.037594  0
C  C117  1  0.79824335  0.29855991  0.65500406  1  0  -0.06908  0  3.79853  0  0  -0.084754  0  4.052727  0  0  -0.086221  0  4.073462  0  -0.067386  0  -0.091876  -0.083676  0  4.03854  0
C  C118  1  0.29892747  0.65442015  0.29828874  1  0  -0.068637  0  3.797876  0  0  -0.084138  0  4.051702  0  0  -0.085625  0  4.072489  0  -0.032509  0  -0.092394  -0.083044  0  4.037517  0
C  C119  1  0.20176072  0.70143886  0.34499698  1  0  -0.069123  0  3.798434  0  0  -0.08478  0  4.052636  0  0  -0.086248  0  4.07337  0  -0.067402  0  -0.091874  -0.083703  0  4.038453  0
O  O120  1  0.69097093  0.24384211  0.21573244  1  0  -0.831462  0  2.166873  0  0  -0.786727  0  2.427559  0  0  -0.815713  0  2.418647  0  -1.215947  0  -0.464805  -0.765714  0  2.433019  0
O  O121  1  0.80885709  0.78366235  0.75625883  1  0  -0.830673  0  2.160655  0  0  -0.78581  0  2.421454  0  0  -0.81482  0  2.41267  0  -1.213251  0  -0.462253  -0.764779  0  2.426834  0
O  O122  1  0.30902911  0.75615814  0.78426803  1  0  -0.831515  0  2.166823  0  0  -0.786791  0  2.427482  0  0  -0.81578  0  2.418572  0  -1.215608  0  -0.464819  -0.765782  0  2.432943  0
O  O123  1  0.19114159  0.21633863  0.24374004  1  0  -0.830672  0  2.160644  0  0  -0.785819  0  2.421438  0  0  -0.814823  0  2.412639  0  -1.213171  0  -0.462272  -0.764786  0  2.42682  0
O  O124  1  0.83897168  0.67042892  0.96414052  1  0  -0.698073  0  2.048202  0  0  -0.655177  0  2.296977  0  0  -0.68132  0  2.285713  0  -1.198783  0  -0.397424  -0.636553  0  2.304396  0
O  O125  1  0.66114861  0.03606047  0.32912563  1  0  -0.696824  0  2.048343  0  0  -0.654244  0  2.296979  0  0  -0.680483  0  2.285709  0  -1.197269  0  -0.396784  -0.635601  0  2.304381  0
O  O126  1  0.16103108  0.32956985  0.03585861  1  0  -0.698036  0  2.048232  0  0  -0.655153  0  2.297021  0  0  -0.681296  0  2.285757  0  -1.198738  0  -0.397423  -0.636525  0  2.304442  0
O  O127  1  0.33885415  0.96393830  0.67087350  1  0  -0.696798  0  2.04837  0  0  -0.6542  0  2.297007  0  0  -0.68044  0  2.285739  0  -1.19745  0  -0.396804  -0.635556  0  2.304407  0
O  O128  1  0.89864692  0.34850679  0.19120035  1  0  -0.631362  0  1.958525  0  0  -0.591546  0  2.184175  0  0  -0.615598  0  2.177179  0  -1.169424  0  -0.34187  -0.574756  0  2.188678  0
O  O129  1  0.60123469  0.80903025  0.65178821  1  0  -0.631644  0  1.958209  0  0  -0.591577  0  2.184441  0  0  -0.615663  0  2.177416  0  -1.168809  0  -0.341761  -0.574765  0  2.188941  0
O  O130  1  0.10135307  0.65149418  0.80880109  1  0  -0.631335  0  1.958553  0  0  -0.591536  0  2.184173  0  0  -0.615586  0  2.17718  0  -1.169446  0  -0.341878  -0.574749  0  2.188675  0
O  O131  1  0.39876518  0.19097293  0.34821028  1  0  -0.631607  0  1.958218  0  0  -0.591549  0  2.184429  0  0  -0.615635  0  2.177401  0  -1.16879  0  -0.341745  -0.574736  0  2.188928  0
O  O132  1  0.92726041  0.18135108  0.00034170  1  0  -0.654479  0  1.934663  0  0  -0.61762  0  2.164825  0  0  -0.641781  0  2.157478  0  -1.180739  0  -0.350658  -0.600647  0  2.169465  0
O  O133  1  0.57326932  0.99996868  0.81873887  1  0  -0.654057  0  1.933496  0  0  -0.617235  0  2.163325  0  0  -0.641421  0  2.156039  0  -1.182738  0  -0.351172  -0.600288  0  2.167945  0
O  O134  1  0.07274103  0.81864769  0.99965811  1  0  -0.654459  0  1.934677  0  0  -0.6176  0  2.164838  0  0  -0.641761  0  2.15749  0  -1.180714  0  -0.35064  -0.600631  0  2.169485  0
O  O135  1  0.42672540  0.00003229  0.18126075  1  0  -0.654088  0  1.933394  0  0  -0.617283  0  2.163212  0  0  -0.641471  0  2.155932  0  -1.182629  0  -0.351209  -0.600334  0  2.167835  0
O  O136  1  0.71569693  0.13621843  0.11517855  1  0  -0.826274  0  2.135282  0  0  -0.784373  0  2.396412  0  0  -0.812237  0  2.386511  0  -1.21949  0  -0.443437  -0.764176  0  2.402601  0
O  O137  1  0.78420705  0.88443382  0.86362003  1  0  -0.827506  0  2.141227  0  0  -0.78523  0  2.402093  0  0  -0.813092  0  2.392175  0  -1.215513  0  -0.445298  -0.765043  0  2.408301  0
O  O138  1  0.28430447  0.86378108  0.88482157  1  0  -0.826324  0  2.135263  0  0  -0.78443  0  2.396409  0  0  -0.812292  0  2.386505  0  -1.219224  0  -0.443445  -0.764234  0  2.402601  0
O  O139  1  0.21579031  0.11556715  0.13638083  1  0  -0.827475  0  2.141458  0  0  -0.785203  0  2.402309  0  0  -0.813068  0  2.392395  0  -1.21558  0  -0.445274  -0.765011  0  2.40852  0
O  O140  1  0.54931559  0.70567699  0.93787327  1  0  -0.73008  0  2.030279  0  0  -0.679714  0  2.271446  0  0  -0.707187  0  2.261524  0  -1.213714  0  -0.356915  -0.660189  0  2.277816  0
O  O141  1  0.95088551  0.06222243  0.29389572  1  0  -0.730373  0  2.0323  0  0  -0.679962  0  2.273049  0  0  -0.707421  0  2.263119  0  -1.213463  0  -0.357433  -0.660437  0  2.279439  0
O  O142  1  0.45068836  0.29432398  0.06212547  1  0  -0.730061  0  2.030268  0  0  -0.679721  0  2.271446  0  0  -0.707194  0  2.261523  0  -1.213768  0  -0.356916  -0.660197  0  2.277818  0
O  O143  1  0.04911724  0.93777635  0.70610405  1  0  -0.730333  0  2.032274  0  0  -0.67994  0  2.273031  0  0  -0.707398  0  2.263101  0  -1.213457  0  -0.357485  -0.660419  0  2.27942  0
O  O144  1  0.28383864  0.01517729  0.35141253  1  0  -0.873529  0  1.883576  0  0  -0.83432  0  2.062978  0  0  -0.853095  0  2.036365  0  -1.273581  0  -0.610548  -0.820816  0  2.081762  0
O  O145  1  0.21609497  0.64799726  0.98445096  1  0  -0.873216  0  1.883252  0  0  -0.833999  0  2.061772  0  0  -0.852778  0  2.035122  0  -1.279879  0  -0.60995  -0.820448  0  2.080625  0
O  O146  1  0.71616139  0.98482295  0.64858794  1  0  -0.873519  0  1.883593  0  0  -0.834316  0  2.06299  0  0  -0.85309  0  2.036378  0  -1.273572  0  -0.610557  -0.820812  0  2.081774  0
O  O147  1  0.78390507  0.35200298  0.01554757  1  0  -0.873181  0  1.883312  0  0  -0.833947  0  2.061834  0  0  -0.852732  0  2.035184  0  -1.27986  0  -0.609926  -0.820391  0  2.080687  0
