# generated using pymatgen
data_CdH32Au2C28(N5O2)2
_symmetry_space_group_name_H-M   'P 1'
_cell_length_a   7.22560353
_cell_length_b   9.38183149
_cell_length_c   12.68940744
_cell_angle_alpha   77.01284225
_cell_angle_beta   86.27613230
_cell_angle_gamma   69.85157643
_symmetry_Int_Tables_number   1
_chemical_formula_structural   CdH32Au2C28(N5O2)2
_chemical_formula_sum   'Cd1 H32 Au2 C28 N10 O4'
_cell_volume   786.83537937
_cell_formula_units_Z   1
loop_
 _symmetry_equiv_pos_site_id
 _symmetry_equiv_pos_as_xyz
  1  'x, y, z'
loop_
 _atom_site_type_symbol
 _atom_site_label
 _atom_site_symmetry_multiplicity
 _atom_site_fract_x
 _atom_site_fract_y
 _atom_site_fract_z
 _atom_site_occupancy
 _atom_site_pbe_bader_spin_density
 _atom_site_pbe_cm5_charge
 _atom_site_pbe_ddec_charge
 _atom_site_pbe_ddec_spin_density
 _atom_site_pbe_ddec_sum_bond_order
 _atom_site_pbe_magmom
Cd  Cd0  1  0.99999776  0.99999877  0.99999873  1  0  0.844493  0.858768  0  2.425686  0
H  H1  1  0.34636059  0.09456434  0.88299322  1  0  0.112947  0.088607  0  1.032472  0
H  H2  1  0.65362938  0.90544469  0.11700945  1  0  0.112948  0.088614  0  1.03242  0
H  H3  1  0.45107550  0.20622103  0.70086942  1  0  0.113763  0.125559  0  1.019497  0
H  H4  1  0.54892088  0.79377987  0.29913286  1  0  0.113748  0.125532  0  1.019541  0
H  H5  1  0.92801729  0.18123253  0.56791641  1  0  0.114672  0.130791  0  1.029329  0
H  H6  1  0.07199013  0.81875905  0.43208234  1  0  0.114676  0.130787  0  1.029369  0
H  H7  1  0.84703531  0.07127035  0.75531237  1  0  0.122657  0.099042  0  0.990048  0
H  H8  1  0.15295259  0.92873387  0.24468572  1  0  0.12263  0.099043  0  0.990115  0
H  H9  1  0.31187374  0.09288629  0.34361812  1  0  0.088144  0.123429  0  1.047114  0
H  H10  1  0.68813333  0.90711240  0.65638411  1  0  0.088131  0.123445  0  1.047142  0
H  H11  1  0.31385909  0.19454145  0.20622805  1  0  0.094546  0.148175  0  0.989609  0
H  H12  1  0.68615502  0.80546313  0.79377048  1  0  0.09451  0.148057  0  0.989761  0
H  H13  1  0.08654943  0.20888837  0.27173022  1  0  0.092973  0.137712  0  1.013194  0
H  H14  1  0.91345934  0.79111252  0.72826367  1  0  0.092967  0.137716  0  1.013278  0
H  H15  1  0.99063889  0.49296977  0.21664362  1  0  0.082326  0.120857  0  1.045679  0
H  H16  1  0.00936526  0.50702295  0.78335506  1  0  0.082358  0.120913  0  1.045576  0
H  H17  1  0.22346417  0.49348441  0.16364941  1  0  0.080289  0.12189  0  1.0461  0
H  H18  1  0.77654427  0.50651424  0.83634962  1  0  0.080271  0.121874  0  1.046123  0
H  H19  1  0.11731163  0.59732071  0.26639381  1  0  0.088014  0.126425  0  1.049152  0
H  H20  1  0.88268472  0.40268001  0.73359983  1  0  0.088067  0.126465  0  1.049064  0
H  H21  1  0.33368425  0.55824262  0.40788510  1  0  0.090043  0.125423  0  1.047691  0
H  H22  1  0.66631849  0.44175950  0.59211513  1  0  0.09003  0.12537  0  1.047717  0
H  H23  1  0.45908047  0.55721199  0.28188596  1  0  0.08612  0.128421  0  1.028611  0
H  H24  1  0.54092383  0.44278656  0.71811089  1  0  0.086134  0.128436  0  1.028582  0
H  H25  1  0.59639131  0.47196753  0.40484447  1  0  0.097037  0.151148  0  1.020211  0
H  H26  1  0.40360107  0.52803911  0.59515458  1  0  0.096992  0.15113  0  1.020105  0
H  H27  1  0.61240597  0.29857965  0.21765663  1  0  0.08092  0.122879  0  1.040544  0
H  H28  1  0.38760557  0.70142142  0.78234420  1  0  0.08088  0.122852  0  1.040523  0
H  H29  1  0.62212061  0.12141309  0.30917630  1  0  0.085791  0.121686  0  1.053997  0
H  H30  1  0.37788903  0.87858911  0.69082363  1  0  0.085828  0.12172  0  1.054077  0
H  H31  1  0.75487805  0.23664385  0.33903123  1  0  0.092893  0.135367  0  1.022142  0
H  H32  1  0.24512503  0.76336067  0.66097170  1  0  0.092894  0.135359  0  1.022206  0
Au  Au33  1  0.67599756  0.55212959  0.05429485  1  0  0.303706  0.052758  0  2.88497  0
Au  Au34  1  0.32399019  0.44786874  0.94570271  1  0  0.30371  0.052756  0  2.885258  0
C  C35  1  0.46222468  0.74978388  0.05620912  1  0  0.001043  0.062626  0  3.969191  0
C  C36  1  0.53776132  0.25022148  0.94378885  1  0  0.001017  0.062595  0  3.968893  0
C  C37  1  0.88551644  0.35224741  0.04967583  1  0  0.002881  0.070315  0  3.951893  0
C  C38  1  0.11448048  0.64774289  0.95032436  1  0  0.002827  0.070296  0  3.951271  0
C  C39  1  0.25822865  0.11650374  0.81089783  1  0  0.048637  0.092556  0  3.943949  0
C  C40  1  0.74176478  0.88350061  0.18910316  1  0  0.048602  0.092507  0  3.943924  0
C  C41  1  0.31610443  0.17851992  0.70960700  1  0  -0.072261  -0.151817  0  3.912587  0
C  C42  1  0.68388970  0.82147978  0.29039558  1  0  -0.072248  -0.151737  0  3.912491  0
C  C43  1  0.19779426  0.20410822  0.61901299  1  0  0.021828  0.091864  0  4.004648  0
C  C44  1  0.80221057  0.79588923  0.38098719  1  0  0.021756  0.091703  0  4.004591  0
C  C45  1  0.02585102  0.16385152  0.63484660  1  0  -0.069695  -0.153027  0  3.894771  0
C  C46  1  0.97415019  0.83614476  0.36515630  1  0  -0.069616  -0.15288  0  3.894644  0
C  C47  1  0.97975594  0.10249046  0.73923650  1  0  0.052155  0.099134  0  3.930187  0
C  C48  1  0.02023748  0.89751386  0.26076292  1  0  0.052194  0.099169  0  3.930105  0
C  C49  1  0.25431831  0.26528494  0.51110069  1  0  0.21781  0.076371  0  3.939631  0
C  C50  1  0.74568363  0.73470675  0.48890693  1  0  0.217904  0.076533  0  3.94009  0
C  C51  1  0.23761445  0.34571505  0.32099466  1  0  0.085682  0.196634  0  3.742514  0
C  C52  1  0.76239299  0.65427662  0.67900801  1  0  0.085633  0.196811  0  3.742298  0
C  C53  1  0.23911848  0.20030410  0.28404046  1  0  -0.246018  -0.44471  0  3.869217  0
C  C54  1  0.76089081  0.79969566  0.71595519  1  0  -0.245957  -0.444638  0  3.869292  0
C  C55  1  0.13598855  0.49185736  0.23766072  1  0  -0.249998  -0.420532  0  3.888447  0
C  C56  1  0.86401351  0.50813997  0.76233565  1  0  -0.250055  -0.420659  0  3.888432  0
C  C57  1  0.44308519  0.33259980  0.36118359  1  0  0.085352  0.200129  0  3.740018  0
C  C58  1  0.55691756  0.66740238  0.63881978  1  0  0.085354  0.20007  0  3.740082  0
C  C59  1  0.45759341  0.49064351  0.36485351  1  0  -0.24726  -0.44812  0  3.862658  0
C  C60  1  0.54240743  0.50935970  0.63514423  1  0  -0.247233  -0.448043  0  3.862513  0
C  C61  1  0.61861759  0.24041159  0.30337921  1  0  -0.247262  -0.429487  0  3.894074  0
C  C62  1  0.38139015  0.75959178  0.69662137  1  0  -0.24724  -0.429457  0  3.894277  0
N  N63  1  0.33288042  0.86716069  0.05517548  1  0  -0.366  -0.371242  0  3.204038  0
N  N64  1  0.66712131  0.13283437  0.94482446  1  0  -0.365969  -0.371227  0  3.203674  0
N  N65  1  0.00294557  0.23165220  0.04405964  1  0  -0.372437  -0.384041  0  3.202832  0
N  N66  1  0.99703925  0.76834974  0.95594371  1  0  -0.372369  -0.384026  0  3.202116  0
N  N67  1  0.09293316  0.07981671  0.82569823  1  0  -0.330467  -0.229232  0  3.517104  0
N  N68  1  0.90705750  0.92018755  0.17430053  1  0  -0.330528  -0.229327  0  3.517145  0
N  N69  1  0.12632042  0.34397619  0.42639739  1  0  -0.10022  0.190072  0  3.810058  0
N  N70  1  0.87366647  0.65602094  0.57359963  1  0  -0.10026  0.190003  0  3.810135  0
N  N71  1  0.44153555  0.24550073  0.47723548  1  0  -0.106001  0.188405  0  3.80347  0
N  N72  1  0.55848204  0.75449930  0.52276766  1  0  -0.106065  0.188266  0  3.803654  0
O  O73  1  0.93839291  0.39161638  0.42981741  1  0  -0.170375  -0.35586  0  1.966658  0
O  O74  1  0.06162259  0.60838825  0.57018263  1  0  -0.170502  -0.356034  0  1.96623  0
O  O75  1  0.60004197  0.17218032  0.53392907  1  0  -0.186358  -0.369453  0  1.914375  0
O  O76  1  0.39996027  0.82781351  0.46606791  1  0  -0.186388  -0.369517  0  1.91426  0
