# generated using pymatgen
data_ZnH9C14NO4
_symmetry_space_group_name_H-M   'P 1'
_cell_length_a   7.49681157
_cell_length_b   10.27525205
_cell_length_c   17.42698944
_cell_angle_alpha   86.38802954
_cell_angle_beta   83.49611449
_cell_angle_gamma   70.27499279
_symmetry_Int_Tables_number   1
_chemical_formula_structural   ZnH9C14NO4
_chemical_formula_sum   'Zn4 H36 C56 N4 O16'
_cell_volume   1255.08700186
_cell_formula_units_Z   4
loop_
 _symmetry_equiv_pos_site_id
 _symmetry_equiv_pos_as_xyz
  1  'x, y, z'
loop_
 _atom_site_type_symbol
 _atom_site_label
 _atom_site_symmetry_multiplicity
 _atom_site_fract_x
 _atom_site_fract_y
 _atom_site_fract_z
 _atom_site_occupancy
 _atom_site_pbe_bader_charge
 _atom_site_pbe_bader_spin_density
 _atom_site_pbe_cm5_charge
 _atom_site_pbe_ddec_charge
 _atom_site_pbe_ddec_spin_density
 _atom_site_pbe_ddec_sum_bond_order
 _atom_site_pbe_magmom
Zn  Zn0  1  0.98723952  0.96587934  0.27549439  1  1.321505  0  0.691963  0.891443  0  2.222019  0
Zn  Zn1  1  0.01276503  0.03412327  0.72450128  1  1.32138  0  0.69197  0.891453  0  2.222082  0
Zn  Zn2  1  0.52879256  0.06143575  0.21063276  1  1.29006  0  0.707476  0.867953  0  2.349842  0
Zn  Zn3  1  0.47119173  0.93856998  0.78936214  1  1.290183  0  0.707488  0.868006  0  2.349742  0
H  H4  1  0.12651058  0.84816972  0.51967870  1  0.06532  0  0.104754  0.11341  0  1.004404  0
H  H5  1  0.87349361  0.15183392  0.48032153  1  0.065253  0  0.10478  0.113399  0  1.004476  0
H  H6  1  0.31954744  0.78339297  0.63058850  1  0.062672  0  0.093825  0.089016  0  1.042752  0
H  H7  1  0.68047081  0.21659723  0.36940520  1  0.058353  0  0.093786  0.088963  0  1.042811  0
H  H8  1  0.66066726  0.76756724  0.61431020  1  0.055076  0  0.096319  0.096785  0  1.033273  0
H  H9  1  0.33934165  0.23243743  0.38568229  1  0.054935  0  0.096321  0.096766  0  1.033325  0
H  H10  1  0.80720169  0.81613902  0.48436020  1  0.085614  0  0.106128  0.11072  0  1.002461  0
H  H11  1  0.19279348  0.18388118  0.51563585  1  0.08654  0  0.106092  0.11065  0  1.002542  0
H  H12  1  0.49926909  0.45419600  0.24838173  1  0.079278  0  0.105481  0.112931  0  0.990769  0
H  H13  1  0.50071924  0.54580765  0.75162968  1  0.079354  0  0.105524  0.112901  0  0.990823  0
H  H14  1  0.52887837  0.61804651  0.33998896  1  0.162589  0  0.103067  0.115078  0  1.043997  0
H  H15  1  0.47111582  0.38195300  0.66002000  1  0.162636  0  0.103023  0.11509  0  1.044053  0
H  H16  1  0.84870154  0.58784114  0.38396269  1  0.091627  0  0.106862  0.109457  0  1.003427  0
H  H17  1  0.15129855  0.41215424  0.61604497  1  0.091762  0  0.106885  0.109516  0  1.00338  0
H  H18  1  0.13575167  0.40220674  0.32756925  1  0.080627  0  0.109328  0.111001  0  1.006378  0
H  H19  1  0.86424478  0.59778760  0.67243520  1  0.080561  0  0.109345  0.111042  0  1.006424  0
H  H20  1  0.49562231  0.79112955  0.19917397  1  0.157208  0  0.128242  0.110701  0  0.991887  0
H  H21  1  0.50437015  0.20887927  0.80082784  1  0.157383  0  0.128209  0.110657  0  0.991885  0
H  H22  1  0.64551700  0.59082063  0.11370264  1  0.079388  0  0.111919  0.121334  0  1.016685  0
H  H23  1  0.35448720  0.40917474  0.88630824  1  0.079479  0  0.111904  0.121256  0  1.01675  0
H  H24  1  0.81606329  0.86627855  0.94663341  1  0.113369  0  0.109717  0.12424  0  1.021439  0
H  H25  1  0.18395225  0.13370028  0.05336662  1  0.113697  0  0.109693  0.12417  0  1.021403  0
H  H26  1  0.66760739  0.05582501  0.04233889  1  0.122322  0  0.118197  0.086875  0  1.016402  0
H  H27  1  0.33241184  0.94416312  0.95765599  1  0.122824  0  0.118184  0.086885  0  1.016375  0
H  H28  1  0.89960557  0.62694435  0.91712342  1  0.063542  0  0.106265  0.091578  0  0.994796  0
H  H29  1  0.10039509  0.37304689  0.08288495  1  0.063387  0  0.106232  0.091554  0  0.994734  0
H  H30  1  0.20301655  0.56604445  0.95673633  1  0.10822  0  0.104822  0.096116  0  1.015728  0
H  H31  1  0.79698852  0.43394265  0.04326508  1  0.108187  0  0.104824  0.09607  0  1.015747  0
H  H32  1  0.05984196  0.50620401  0.16825134  1  0.095094  0  0.102697  0.106556  0  1.059723  0
H  H33  1  0.94016097  0.49379654  0.83174908  1  0.095104  0  0.102702  0.106541  0  1.059691  0
H  H34  1  0.01987223  0.68064024  0.26598047  1  0.165304  0  0.122257  0.097674  0  1.020683  0
H  H35  1  0.98013056  0.31936341  0.73401754  1  0.165277  0  0.12219  0.097493  0  1.020702  0
H  H36  1  0.13560279  0.95667006  0.10264557  1  0.114882  0  0.114775  0.090726  0  1.026725  0
H  H37  1  0.86439456  0.04333359  0.89734986  1  0.114835  0  0.114827  0.090789  0  1.026784  0
H  H38  1  0.19090263  0.78897708  0.99531433  1  0.128969  0  0.104894  0.125007  0  1.049706  0
H  H39  1  0.80909948  0.21101933  0.00468516  1  0.128989  0  0.104873  0.124994  0  1.049652  0
C  C40  1  0.55185731  0.85519937  0.42898266  1  -0.064162  0  -0.019218  -0.083953  0  3.964305  0
C  C41  1  0.44814767  0.14480531  0.57101405  1  -0.064082  0  -0.0192  -0.084018  0  3.964382  0
C  C42  1  0.35859199  0.86380857  0.43840447  1  -0.006099  0  -0.000142  -0.015523  0  3.910502  0
C  C43  1  0.64141439  0.13619611  0.56159447  1  -0.006242  0  -0.000188  -0.015533  0  3.910638  0
C  C44  1  0.27678372  0.83829384  0.51142451  1  0.03805  0  -0.085165  -0.107566  0  3.950633  0
C  C45  1  0.72321949  0.16171187  0.48857397  1  0.038057  0  -0.085229  -0.107583  0  3.95085  0
C  C46  1  0.38582238  0.80219322  0.57406636  1  -0.042645  0  -0.085929  -0.052983  0  3.988687  0
C  C47  1  0.61418627  0.19780629  0.42592863  1  -0.038524  0  -0.085851  -0.05294  0  3.988526  0
C  C48  1  0.57752253  0.79180317  0.56478005  1  -0.078052  0  -0.095987  -0.095077  0  4.009508  0
C  C49  1  0.42247567  0.20820462  0.43521747  1  -0.077824  0  -0.095972  -0.09504  0  4.009623  0
C  C50  1  0.65973561  0.81883031  0.49248910  1  0.016192  0  -0.080033  -0.082887  0  3.977057  0
C  C51  1  0.34026843  0.18117644  0.50750815  1  0.015431  0  -0.080045  -0.082784  0  3.97721  0
C  C52  1  0.63820393  0.89444702  0.35364756  1  1.550754  0  0.222113  0.597923  0  4.182082  0
C  C53  1  0.36178956  0.10556490  0.64634489  1  1.550606  0  0.222017  0.597679  0  4.182335  0
C  C54  1  0.23855413  0.88762604  0.37205852  1  1.588418  0  0.20196  0.58971  0  4.208307  0
C  C55  1  0.76144154  0.11237864  0.62794213  1  1.588251  0  0.201924  0.589703  0  4.208466  0
C  C56  1  0.97890170  0.31935202  0.25990089  1  -0.040009  0  -0.022528  -0.081133  0  3.986613  0
C  C57  1  0.02108331  0.68064957  0.74010101  1  -0.038876  0  -0.022583  -0.081097  0  3.986729  0
C  C58  1  0.79812603  0.33266971  0.23842351  1  -0.034426  0  -0.012134  -0.057041  0  3.968641  0
C  C59  1  0.20185886  0.66732671  0.76158722  1  -0.034451  0  -0.012029  -0.056942  0  3.968388  0
C  C60  1  0.63881555  0.44289357  0.26634373  1  -0.094712  0  -0.085872  -0.111537  0  3.961106  0
C  C61  1  0.36117197  0.55710284  0.73366399  1  -0.094072  0  -0.085958  -0.11159  0  3.961131  0
C  C62  1  0.65606303  0.53433965  0.31864738  1  -0.02834  0  -0.077187  -0.052983  0  3.94346  0
C  C63  1  0.34392722  0.46565367  0.68135916  1  -0.028427  0  -0.077108  -0.052918  0  3.943679  0
C  C64  1  0.83467880  0.51770446  0.34242465  1  -0.058717  0  -0.08406  -0.078037  0  3.975279  0
C  C65  1  0.16531668  0.48229505  0.65758195  1  -0.059066  0  -0.084086  -0.078139  0  3.975369  0
C  C66  1  0.99479788  0.41302916  0.31187404  1  -0.025722  0  -0.076164  -0.079748  0  3.953967  0
C  C67  1  0.00519208  0.58697346  0.68812986  1  -0.026002  0  -0.076176  -0.079827  0  3.954163  0
C  C68  1  0.15319957  0.20989160  0.22692344  1  1.542592  0  0.206097  0.574202  0  4.209178  0
C  C69  1  0.84678428  0.79011516  0.77307259  1  1.541515  0  0.206051  0.574191  0  4.209086  0
C  C70  1  0.75827346  0.23286170  0.18913536  1  1.568603  0  0.217418  0.603905  0  4.169429  0
C  C71  1  0.24172139  0.76714505  0.81087099  1  1.568554  0  0.217531  0.603987  0  4.169503  0
C  C72  1  0.56785907  0.80295154  0.14248298  1  0.446558  0  0.055846  0.106915  0  3.909317  0
C  C73  1  0.43213980  0.19705211  0.85751984  1  0.446633  0  0.055857  0.106888  0  3.909372  0
C  C74  1  0.65186584  0.69201734  0.09387141  1  0.004433  0  -0.079821  -0.174654  0  3.923854  0
C  C75  1  0.34814093  0.30797803  0.90613475  1  0.004274  0  -0.07981  -0.174507  0  3.923819  0
C  C76  1  0.75314624  0.71091890  0.02384628  1  -0.038186  0  0.017044  0.14664  0  3.929246  0
C  C77  1  0.24686567  0.28906510  0.97615718  1  -0.038276  0  0.016891  0.146421  0  3.929337  0
C  C78  1  0.74675111  0.84619571  0.00235819  1  0.022432  0  -0.082789  -0.17885  0  3.944803  0
C  C79  1  0.25325672  0.15378828  0.99764320  1  0.022235  0  -0.082655  -0.178574  0  3.944482  0
C  C80  1  0.66361924  0.95138187  0.05424907  1  0.409421  0  0.044765  0.088887  0  3.977627  0
C  C81  1  0.33638885  0.04860730  0.94574980  1  0.408388  0  0.044789  0.088846  0  3.977563  0
C  C82  1  0.89403820  0.59599415  0.97846661  1  -0.001466  0  -0.06622  -0.062952  0  3.737225  0
C  C83  1  0.10596778  0.40399398  0.02153644  1  -0.001119  0  -0.066097  -0.062793  0  3.736563  0
C  C84  1  0.10540048  0.55338310  0.00619121  1  -0.029453  0  -0.068804  -0.073645  0  3.727428  0
C  C85  1  0.89459482  0.44661642  0.99380794  1  -0.029696  0  -0.068777  -0.073588  0  3.727484  0
C  C86  1  0.12086531  0.63551536  0.07162192  1  -0.00719  0  0.011711  0.142517  0  3.927088  0
C  C87  1  0.87915556  0.36448104  0.92837485  1  -0.006642  0  0.011712  0.142586  0  3.927092  0
C  C88  1  0.08058207  0.60353255  0.14952882  1  -0.071899  0  -0.08506  -0.177706  0  3.93221  0
C  C89  1  0.91941449  0.39647317  0.85047288  1  -0.072377  0  -0.085063  -0.177683  0  3.932438  0
C  C90  1  0.05659835  0.70062818  0.20520885  1  0.451827  0  0.054275  0.110848  0  3.911838  0
C  C91  1  0.94340999  0.29937236  0.79479301  1  0.451894  0  0.054322  0.111012  0  3.911566  0
C  C92  1  0.12182744  0.85489027  0.11345744  1  0.480977  0  0.041366  0.090586  0  3.958339  0
C  C93  1  0.87817728  0.14510614  0.88653903  1  0.480679  0  0.041233  0.09045  0  3.958639  0
C  C94  1  0.15180026  0.76213922  0.05487831  1  -0.057523  0  -0.090691  -0.194697  0  3.949168  0
C  C95  1  0.84820007  0.23785512  0.94511962  1  -0.057455  0  -0.090641  -0.194662  0  3.948873  0
N  N96  1  0.06867758  0.82690780  0.18723369  1  -1.239594  0  -0.327269  -0.23759  0  3.573272  0
N  N97  1  0.93132445  0.17308861  0.81276236  1  -1.23936  0  -0.327201  -0.23759  0  3.573197  0
N  N98  1  0.58106974  0.92926786  0.12435220  1  -1.253412  0  -0.340371  -0.258965  0  3.621317  0
N  N99  1  0.41893403  0.07073372  0.87564699  1  -1.253304  0  -0.340344  -0.258973  0  3.621482  0
O  O100  1  0.81476162  0.87814343  0.34530906  1  -1.176031  0  -0.312301  -0.559377  0  2.368904  0
O  O101  1  0.18523527  0.12186126  0.65468693  1  -1.176079  0  -0.312304  -0.559271  0  2.368998  0
O  O102  1  0.52259462  0.94406329  0.30192974  1  -1.192573  0  -0.318117  -0.552153  0  2.444566  0
O  O103  1  0.47740411  0.05593416  0.69806070  1  -1.19231  0  -0.318017  -0.55199  0  2.444539  0
O  O104  1  0.25737041  0.78643556  0.33098762  1  -1.172301  0  -0.323623  -0.561921  0  2.154773  0
O  O105  1  0.74262300  0.21356809  0.66901147  1  -1.172365  0  -0.323573  -0.561846  0  2.154767  0
O  O106  1  0.11027103  0.00743202  0.36307364  1  -1.15244  0  -0.327234  -0.546205  0  2.225121  0
O  O107  1  0.88972936  0.99257370  0.63691983  1  -1.152127  0  -0.327221  -0.546259  0  2.225312  0
O  O108  1  0.31255689  0.23194782  0.22887098  1  -1.146669  0  -0.323712  -0.53815  0  2.29913  0
O  O109  1  0.68743224  0.76806203  0.77112408  1  -1.147082  0  -0.323661  -0.538099  0  2.299205  0
O  O110  1  0.14209250  0.10359516  0.19757469  1  -1.198166  0  -0.315255  -0.581875  0  2.282846  0
O  O111  1  0.85789394  0.89641470  0.80242051  1  -1.197948  0  -0.315265  -0.581934  0  2.282624  0
O  O112  1  0.75659711  0.11570307  0.22453287  1  -1.184466  0  -0.332268  -0.59985  0  2.497621  0
O  O113  1  0.24339883  0.88430058  0.77545977  1  -1.184351  0  -0.332392  -0.599956  0  2.49763  0
O  O114  1  0.70689721  0.26674899  0.12349119  1  -1.168596  0  -0.303662  -0.523735  0  2.129278  0
O  O115  1  0.29310327  0.73325672  0.87650572  1  -1.168652  0  -0.303698  -0.523769  0  2.129633  0
