# generated using pymatgen
data_BaH16C14SO10
_symmetry_space_group_name_H-M   'P 1'
_cell_length_a   6.20111856
_cell_length_b   12.86181311
_cell_length_c   13.78629757
_cell_angle_alpha   76.32122563
_cell_angle_beta   87.18147501
_cell_angle_gamma   82.30604744
_symmetry_Int_Tables_number   1
_chemical_formula_structural   BaH16C14SO10
_chemical_formula_sum   'Ba2 H32 C28 S2 O20'
_cell_volume   1058.58192503
_cell_formula_units_Z   2
loop_
 _symmetry_equiv_pos_site_id
 _symmetry_equiv_pos_as_xyz
  1  'x, y, z'
loop_
 _atom_site_type_symbol
 _atom_site_label
 _atom_site_symmetry_multiplicity
 _atom_site_fract_x
 _atom_site_fract_y
 _atom_site_fract_z
 _atom_site_occupancy
 _atom_site_hle17_bader_spin_density
 _atom_site_hle17_ddec_charge
 _atom_site_hle17_ddec_spin_density
 _atom_site_hle17_ddec_sum_bond_order
 _atom_site_hle17_magmom
 _atom_site_hse06_10hf_bader_spin_density
 _atom_site_hse06_10hf_ddec_charge
 _atom_site_hse06_10hf_ddec_spin_density
 _atom_site_hse06_10hf_ddec_sum_bond_order
 _atom_site_hse06_10hf_magmom
 _atom_site_hse06_bader_spin_density
 _atom_site_hse06_ddec_charge
 _atom_site_hse06_ddec_spin_density
 _atom_site_hse06_ddec_sum_bond_order
 _atom_site_hse06_magmom
 _atom_site_pbe_bader_spin_density
 _atom_site_pbe_cm5_charge
 _atom_site_pbe_ddec_charge
 _atom_site_pbe_ddec_spin_density
 _atom_site_pbe_ddec_sum_bond_order
 _atom_site_pbe_magmom
Ba  Ba0  1  0.74104063  0.47169352  0.63186381  1  0  1.654304  0  1.11231  0  0  1.512703  0  1.507897  0  0  1.551731  0  1.462739  0  0  0.905956  1.484067  0  1.539779  0
Ba  Ba1  1  0.25896123  0.52831015  0.36813348  1  0  1.654345  0  1.112196  0  0  1.512732  0  1.507777  0  0  1.551758  0  1.462619  0  0  0.905939  1.48409  0  1.539672  0
H  H2  1  0.95337586  0.13576157  0.20106644  1  0  0.10769  0  0.937361  0  0  0.118883  0  0.992799  0  0  0.12222  0  0.991239  0  0  0.110421  0.116484  0  0.993979  0
H  H3  1  0.04662470  0.86423324  0.79893494  1  0  0.107676  0  0.937342  0  0  0.118853  0  0.992803  0  0  0.122189  0  0.991243  0  0  0.110421  0.116456  0  0.993983  0
H  H4  1  0.97030570  0.94444339  0.29637033  1  0  0.106147  0  0.959615  0  0  0.114489  0  1.022044  0  0  0.118538  0  1.018925  0  0  0.109438  0.111535  0  1.024413  0
H  H5  1  0.02968449  0.05555472  0.70363207  1  0  0.106131  0  0.95958  0  0  0.114473  0  1.022017  0  0  0.118523  0  1.018895  0  0  0.109441  0.111519  0  1.024386  0
H  H6  1  0.32094125  0.00899781  0.41203900  1  0  0.108454  0  0.93589  0  0  0.116168  0  0.997292  0  0  0.119737  0  0.995774  0  0  0.110108  0.113603  0  0.998476  0
H  H7  1  0.67905764  0.99100504  0.58796290  1  0  0.108383  0  0.935831  0  0  0.116079  0  0.997254  0  0  0.119649  0  0.995734  0  0  0.110029  0.113514  0  0.998437  0
H  H8  1  0.30813029  0.20367452  0.32109449  1  0  0.099111  0  0.965448  0  0  0.107913  0  1.02999  0  0  0.111599  0  1.027326  0  0  0.110264  0.105229  0  1.031961  0
H  H9  1  0.69186099  0.79632601  0.67890665  1  0  0.099112  0  0.965517  0  0  0.107969  0  1.029995  0  0  0.111676  0  1.027307  0  0  0.110285  0.105287  0  1.031963  0
H  H10  1  0.20671399  0.40786832  0.12535931  1  0  0.120662  0  0.952146  0  0  0.127582  0  1.016433  0  0  0.131825  0  1.013072  0  0  0.115319  0.124513  0  1.018932  0
H  H11  1  0.79328783  0.59213537  0.87463653  1  0  0.120641  0  0.952104  0  0  0.127567  0  1.016405  0  0  0.131809  0  1.013045  0  0  0.115321  0.124498  0  1.018902  0
H  H12  1  0.04589707  0.43482996  0.95628902  1  0  0.103984  0  0.961917  0  0  0.111575  0  1.029773  0  0  0.114777  0  1.028015  0  0  0.107864  0.109215  0  1.031178  0
H  H13  1  0.95411198  0.56517768  0.04370580  1  0  0.103985  0  0.961902  0  0  0.111467  0  1.029896  0  0  0.114664  0  1.028144  0  0  0.107842  0.109127  0  1.031284  0
H  H14  1  0.65418858  0.30108844  0.84564431  1  0  0.11371  0  0.950929  0  0  0.12221  0  1.012819  0  0  0.126046  0  1.01014  0  0  0.120966  0.11944  0  1.014851  0
H  H15  1  0.34581712  0.69890474  0.15435437  1  0  0.113715  0  0.951042  0  0  0.122214  0  1.01292  0  0  0.12605  0  1.010242  0  0  0.120981  0.119438  0  1.014947  0
H  H16  1  0.81742045  0.27211699  0.01280634  1  0  0.106184  0  0.936427  0  0  0.11811  0  0.992075  0  0  0.121103  0  0.990828  0  0  0.1116  0.11591  0  0.993092  0
H  H17  1  0.18258026  0.72786975  0.98719818  1  0  0.106289  0  0.936383  0  0  0.118212  0  0.992008  0  0  0.121216  0  0.990745  0  0  0.111635  0.115995  0  0.993048  0
H  H18  1  0.69122921  0.21374564  0.64966332  1  0  0.413891  0  0.887563  0  0  0.386625  0  0.945809  0  0  0.396416  0  0.931432  0  0  0.292079  0.379734  0  0.955917  0
H  H19  1  0.30876828  0.78625638  0.35034096  1  0  0.413875  0  0.887588  0  0  0.386614  0  0.945825  0  0  0.396405  0  0.931448  0  0  0.29207  0.379722  0  0.955934  0
H  H20  1  0.93680779  0.21932549  0.63636539  1  0  0.405569  0  0.903599  0  0  0.377286  0  0.964393  0  0  0.38706  0  0.949907  0  0  0.288715  0.370372  0  0.974625  0
H  H21  1  0.06318673  0.78067500  0.36363567  1  0  0.405548  0  0.903635  0  0  0.377264  0  0.964431  0  0  0.387039  0  0.949943  0  0  0.288717  0.370349  0  0.974664  0
H  H22  1  0.15959618  0.32798870  0.54974318  1  0  0.40005  0  0.921035  0  0  0.370498  0  0.983568  0  0  0.38114  0  0.968138  0  0  0.296431  0.362981  0  0.994451  0
H  H23  1  0.84040158  0.67201176  0.45025780  1  0  0.400036  0  0.921066  0  0  0.370497  0  0.983594  0  0  0.381138  0  0.968166  0  0  0.296431  0.362975  0  0.994485  0
H  H24  1  0.23953078  0.39981316  0.61678061  1  0  0.41703  0  0.898891  0  0  0.386134  0  0.962354  0  0  0.398345  0  0.944885  0  0  0.298442  0.377505  0  0.97467  0
H  H25  1  0.76047787  0.60018885  0.38321613  1  0  0.416996  0  0.898938  0  0  0.3861  0  0.962403  0  0  0.398311  0  0.944931  0  0  0.298451  0.377472  0  0.974717  0
H  H26  1  0.93476903  0.72068331  0.57723514  1  0  0.423529  0  0.871236  0  0  0.392355  0  0.935327  0  0  0.402752  0  0.919949  0  0  0.304601  0.384968  0  0.946235  0
H  H27  1  0.06522726  0.27931637  0.42276532  1  0  0.423541  0  0.871201  0  0  0.392376  0  0.935292  0  0  0.402774  0  0.919912  0  0  0.304608  0.384989  0  0.946199  0
H  H28  1  0.02267872  0.66904035  0.68923311  1  0  0.420789  0  0.874908  0  0  0.389072  0  0.939936  0  0  0.398901  0  0.92546  0  0  0.302488  0.382141  0  0.950129  0
H  H29  1  0.97731740  0.33096013  0.31076718  1  0  0.420815  0  0.874868  0  0  0.389118  0  0.939867  0  0  0.398948  0  0.925389  0  0  0.302512  0.382187  0  0.950061  0
H  H30  1  0.75187921  0.37622966  0.43062587  1  0  0.421239  0  0.879591  0  0  0.395066  0  0.934999  0  0  0.405799  0  0.919324  0  0  0.301984  0.387413  0  0.946168  0
H  H31  1  0.24811599  0.62376762  0.56937512  1  0  0.421229  0  0.879599  0  0  0.394975  0  0.935124  0  0  0.405722  0  0.919435  0  0  0.301932  0.387325  0  0.946291  0
H  H32  1  0.56942623  0.31556215  0.49635291  1  0  0.419083  0  0.888836  0  0  0.386025  0  0.956698  0  0  0.397933  0  0.93907  0  0  0.295874  0.377579  0  0.969176  0
H  H33  1  0.43056526  0.68443754  0.50364984  1  0  0.419116  0  0.888796  0  0  0.386015  0  0.956714  0  0  0.39792  0  0.939091  0  0  0.295863  0.377569  0  0.969194  0
C  C34  1  0.81556795  0.10762437  0.24736051  1  0  -0.073327  0  3.754346  0  0  -0.094602  0  3.998852  0  0  -0.095339  0  4.019826  0  0  -0.082076  -0.093946  0  3.984512  0
C  C35  1  0.18441902  0.89237306  0.75263486  1  0  -0.073267  0  3.754383  0  0  -0.094513  0  3.998903  0  0  -0.095247  0  4.019876  0  0  -0.082041  -0.093861  0  3.984559  0
C  C36  1  0.82469166  0.00093345  0.30111785  1  0  -0.058522  0  3.7058  0  0  -0.078098  0  3.944371  0  0  -0.080072  0  3.964786  0  0  -0.074931  -0.076744  0  3.930631  0
C  C37  1  0.17529859  0.99906393  0.69887890  1  0  -0.058475  0  3.705839  0  0  -0.078027  0  3.944402  0  0  -0.080001  0  3.964815  0  0  -0.074942  -0.076673  0  3.930662  0
C  C38  1  0.64695526  0.96583956  0.36101412  1  0  -0.043876  0  3.721486  0  0  -0.022268  0  3.956719  0  0  -0.026751  0  3.977918  0  0  -0.005313  -0.019407  0  3.942473  0
C  C39  1  0.35303783  0.03416013  0.63898786  1  0  -0.043906  0  3.721632  0  0  -0.02235  0  3.956938  0  0  -0.026831  0  3.978136  0  0  -0.00538  -0.019488  0  3.942692  0
C  C40  1  0.45777945  0.03786062  0.36543774  1  0  -0.063442  0  3.707082  0  0  -0.087627  0  3.958369  0  0  -0.089759  0  3.97909  0  0  -0.076374  -0.086207  0  3.944418  0
C  C41  1  0.54222267  0.96214291  0.63457119  1  0  -0.063343  0  3.70696  0  0  -0.087489  0  3.958247  0  0  -0.089623  0  3.978974  0  0  -0.07623  -0.086069  0  3.944296  0
C  C42  1  0.44903170  0.14542349  0.31418881  1  0  -0.055518  0  3.73662  0  0  -0.078717  0  3.985466  0  0  -0.078818  0  4.005447  0  0  -0.078504  -0.078455  0  3.97185  0
C  C43  1  0.55096908  0.85457848  0.68581758  1  0  -0.055573  0  3.736615  0  0  -0.078797  0  3.985472  0  0  -0.078915  0  4.005446  0  0  -0.078544  -0.07854  0  3.971851  0
C  C44  1  0.62909490  0.17940784  0.25632204  1  0  -0.111882  0  3.758134  0  0  -0.088915  0  4.007884  0  0  -0.094961  0  4.031148  0  0  -0.020637  -0.084872  0  3.992187  0
C  C45  1  0.37089967  0.82059263  0.74368120  1  0  -0.111878  0  3.758113  0  0  -0.088985  0  4.007985  0  0  -0.095034  0  4.031262  0  0  -0.020657  -0.084924  0  3.992265  0
C  C46  1  0.51977873  0.33780366  0.07807544  1  0  -0.117572  0  3.772777  0  0  -0.094488  0  4.024409  0  0  -0.101804  0  4.049765  0  0  -0.021463  -0.089476  0  4.00713  0
C  C47  1  0.48021951  0.66219440  0.92192458  1  0  -0.117614  0  3.772864  0  0  -0.094546  0  4.024548  0  0  -0.101864  0  4.049905  0  0  -0.021526  -0.089532  0  4.007262  0
C  C48  1  0.30287154  0.38390660  0.06426164  1  0  -0.064643  0  3.730248  0  0  -0.08868  0  3.981119  0  0  -0.088982  0  4.001204  0  0  -0.079038  -0.088314  0  3.967386  0
C  C49  1  0.69712902  0.61609549  0.93573529  1  0  -0.064563  0  3.730164  0  0  -0.088601  0  3.980996  0  0  -0.0889  0  4.001078  0  0  -0.079008  -0.088236  0  3.967273  0
C  C50  1  0.21410532  0.39944289  0.97046367  1  0  -0.063109  0  3.716647  0  0  -0.087722  0  3.968293  0  0  -0.08946  0  3.988523  0  0  -0.078723  -0.086486  0  3.954668  0
C  C51  1  0.78590195  0.60056557  0.02953175  1  0  -0.063188  0  3.716712  0  0  -0.087722  0  3.968396  0  0  -0.089456  0  3.988626  0  0  -0.078774  -0.086505  0  3.954768  0
C  C52  1  0.33986146  0.37109212  0.89141123  1  0  -0.044391  0  3.713629  0  0  -0.024543  0  3.947943  0  0  -0.028988  0  3.967964  0  0  -0.002239  -0.021685  0  3.934469  0
C  C53  1  0.66014793  0.62891392  0.10858392  1  0  -0.044253  0  3.713567  0  0  -0.024416  0  3.947892  0  0  -0.028866  0  3.967917  0  0  -0.002158  -0.021558  0  3.934422  0
C  C54  1  0.55691489  0.32423564  0.90699802  1  0  -0.064444  0  3.698865  0  0  -0.085042  0  3.942907  0  0  -0.08648  0  3.962221  0  0  -0.0654  -0.084058  0  3.929899  0
C  C55  1  0.44308695  0.67576077  0.09300298  1  0  -0.064473  0  3.698957  0  0  -0.08507  0  3.942994  0  0  -0.086509  0  3.962313  0  0  -0.065401  -0.084072  0  3.929974  0
C  C56  1  0.64814048  0.30701298  0.00068048  1  0  -0.062359  0  3.740014  0  0  -0.08571  0  3.989565  0  0  -0.086066  0  4.010202  0  0  -0.076843  -0.08529  0  3.97546  0
C  C57  1  0.35186035  0.69298026  0.99931759  1  0  -0.062443  0  3.740102  0  0  -0.085777  0  3.989607  0  0  -0.086141  0  4.010238  0  0  -0.076818  -0.085345  0  3.97551  0
C  C58  1  0.65837713  0.85220090  0.42361204  1  0  0.661725  0  3.897313  0  0  0.602031  0  4.204732  0  0  0.634784  0  4.197511  0  0  0.221664  0.57991  0  4.208789  0
C  C59  1  0.34161954  0.14779715  0.57639021  1  0  0.661689  0  3.897347  0  0  0.601981  0  4.204806  0  0  0.634736  0  4.197585  0  0  0.221632  0.579859  0  4.208866  0
C  C60  1  0.23881760  0.39454131  0.78973822  1  0  0.676474  0  3.903793  0  0  0.625277  0  4.201243  0  0  0.659847  0  4.191371  0  0  0.22533  0.601845  0  4.207144  0
C  C61  1  0.76120203  0.60546221  0.21025720  1  0  0.67652  0  3.903946  0  0  0.62532  0  4.20142  0  0  0.659892  0  4.191547  0  0  0.225428  0.601888  0  4.207324  0
S  S62  1  0.62843605  0.31820966  0.19810761  1  0  1.086259  0  5.200184  0  0  1.011921  0  5.686429  0  0  1.051445  0  5.673875  0  0  0.493466  0.984016  0  5.695645  0
S  S63  1  0.37156111  0.68179326  0.80188924  1  0  1.086301  0  5.199985  0  0  1.011892  0  5.686293  0  0  1.051407  0  5.673741  0  0  0.493424  0.983985  0  5.695505  0
O  O64  1  0.81154155  0.23902613  0.67832907  1  0  -0.864203  0  1.771503  0  0  -0.818385  0  1.923716  0  0  -0.83647  0  1.894172  0  0  -0.625484  -0.805479  0  1.944336  0
O  O65  1  0.18846223  0.76096937  0.32167860  1  0  -0.864186  0  1.771591  0  0  -0.81836  0  1.923788  0  0  -0.836445  0  1.894243  0  0  -0.625487  -0.805452  0  1.944408  0
O  O66  1  0.48221776  0.81160973  0.44349145  1  0  -0.6291  0  1.997699  0  0  -0.567782  0  2.216196  0  0  -0.592371  0  2.205439  0  0  -0.299223  -0.550628  0  2.223137  0
O  O67  1  0.51778072  0.18838749  0.55651165  1  0  -0.629075  0  1.997682  0  0  -0.567757  0  2.216181  0  0  -0.592349  0  2.205426  0  0  -0.2992  -0.550601  0  2.223121  0
O  O68  1  0.15022652  0.40385762  0.55590737  1  0  -0.919559  0  1.863985  0  0  -0.853322  0  2.053263  0  0  -0.87726  0  2.022945  0  0  -0.66053  -0.836235  0  2.074392  0
O  O69  1  0.84977604  0.59614283  0.44409131  1  0  -0.91953  0  1.864053  0  0  -0.853311  0  2.053287  0  0  -0.877251  0  2.022971  0  0  -0.660549  -0.836223  0  2.074418  0
O  O70  1  0.84695615  0.80443500  0.45348628  1  0  -0.670756  0  2.002293  0  0  -0.601294  0  2.215343  0  0  -0.62683  0  2.203113  0  0  -0.313997  -0.583343  0  2.223217  0
O  O71  1  0.15304515  0.19556383  0.54651350  1  0  -0.670756  0  2.00231  0  0  -0.60127  0  2.215354  0  0  -0.626808  0  2.203126  0  0  -0.313969  -0.583321  0  2.223226  0
O  O72  1  0.03503372  0.41759432  0.78419883  1  0  -0.674786  0  1.923068  0  0  -0.62112  0  2.157257  0  0  -0.646555  0  2.148009  0  0  -0.365342  -0.603264  0  2.163062  0
O  O73  1  0.96498447  0.58240041  0.21579412  1  0  -0.674883  0  1.923083  0  0  -0.621185  0  2.157235  0  0  -0.646622  0  2.147987  0  0  -0.365406  -0.60333  0  2.163043  0
O  O74  1  0.98945925  0.65338933  0.62545581  1  0  -0.842041  0  1.858512  0  0  -0.781083  0  2.023004  0  0  -0.801095  0  1.99289  0  0  -0.576298  -0.766862  0  2.044118  0
O  O75  1  0.01053704  0.34661035  0.37454465  1  0  -0.842103  0  1.858489  0  0  -0.781156  0  2.02291  0  0  -0.801163  0  1.992786  0  0  -0.576338  -0.766935  0  2.044027  0
O  O76  1  0.37078656  0.39011458  0.71567306  1  0  -0.701386  0  2.001502  0  0  -0.633894  0  2.229629  0  0  -0.66172  0  2.219392  0  0  -0.362095  -0.614305  0  2.236088  0
O  O77  1  0.62924057  0.60988404  0.28432320  1  0  -0.701387  0  2.001699  0  0  -0.633898  0  2.229823  0  0  -0.661725  0  2.219587  0  0  -0.36213  -0.614308  0  2.236283  0
O  O78  1  0.61676425  0.38834849  0.47024535  1  0  -0.916659  0  1.849278  0  0  -0.857086  0  2.034385  0  0  -0.878849  0  2.002567  0  0  -0.642196  -0.841568  0  2.056707  0
O  O79  1  0.38323715  0.61165029  0.52975879  1  0  -0.916687  0  1.849251  0  0  -0.856977  0  2.034476  0  0  -0.878749  0  2.002632  0  0  -0.642129  -0.84146  0  2.056792  0
O  O80  1  0.47872404  0.37974410  0.25437081  1  0  -0.625566  0  2.014371  0  0  -0.57754  0  2.279122  0  0  -0.598671  0  2.268492  0  0  -0.317677  -0.562474  0  2.286009  0
O  O81  1  0.52127242  0.62026205  0.74562538  1  0  -0.625605  0  2.014319  0  0  -0.57755  0  2.279101  0  0  -0.598693  0  2.268502  0  0  -0.317674  -0.562485  0  2.285988  0
O  O82  1  0.85639037  0.33731028  0.18724118  1  0  -0.598731  0  1.972463  0  0  -0.544015  0  2.21362  0  0  -0.564704  0  2.202982  0  0  -0.298631  -0.529376  0  2.220631  0
O  O83  1  0.14360461  0.66269510  0.81275376  1  0  -0.598769  0  1.97237  0  0  -0.543951  0  2.21348  0  0  -0.564627  0  2.202837  0  0  -0.298594  -0.529315  0  2.220491  0
