# generated using pymatgen
data_KH6C9Br4O3
_symmetry_space_group_name_H-M   'P 1'
_cell_length_a   7.70436157
_cell_length_b   10.50691809
_cell_length_c   16.98626838
_cell_angle_alpha   90.86855879
_cell_angle_beta   91.51851242
_cell_angle_gamma   100.67017913
_symmetry_Int_Tables_number   1
_chemical_formula_structural   KH6C9Br4O3
_chemical_formula_sum   'K4 H24 C36 Br16 O12'
_cell_volume   1350.49161667
_cell_formula_units_Z   4
loop_
 _symmetry_equiv_pos_site_id
 _symmetry_equiv_pos_as_xyz
  1  'x, y, z'
loop_
 _atom_site_type_symbol
 _atom_site_label
 _atom_site_symmetry_multiplicity
 _atom_site_fract_x
 _atom_site_fract_y
 _atom_site_fract_z
 _atom_site_occupancy
 _atom_site_hle17_bader_spin_density
 _atom_site_hle17_ddec_charge
 _atom_site_hle17_ddec_spin_density
 _atom_site_hle17_ddec_sum_bond_order
 _atom_site_hle17_magmom
 _atom_site_hse06_10hf_bader_spin_density
 _atom_site_hse06_10hf_ddec_charge
 _atom_site_hse06_10hf_ddec_spin_density
 _atom_site_hse06_10hf_ddec_sum_bond_order
 _atom_site_hse06_10hf_magmom
 _atom_site_hse06_bader_spin_density
 _atom_site_hse06_ddec_charge
 _atom_site_hse06_ddec_spin_density
 _atom_site_hse06_ddec_sum_bond_order
 _atom_site_hse06_magmom
 _atom_site_pbe_bader_spin_density
 _atom_site_pbe_cm5_charge
 _atom_site_pbe_ddec_charge
 _atom_site_pbe_ddec_spin_density
 _atom_site_pbe_ddec_sum_bond_order
 _atom_site_pbe_magmom
K  K0  1  0.93900764  0.31228929  0.23528431  1  0  0.922732  0  0.493175  0  0  0.859888  0  0.704838  0  0  0.876131  0  0.680704  0  0  0.689613  0.847776  0  0.722212  0
K  K1  1  0.06097276  0.68769981  0.76472521  1  0  0.922762  0  0.493152  0  0  0.859844  0  0.704931  0  0  0.876091  0  0.68079  0  0  0.689594  0.847729  0  0.722302  0
K  K2  1  0.56017224  0.70127789  0.73854837  1  0  0.929923  0  0.469285  0  0  0.868533  0  0.675327  0  0  0.884673  0  0.650979  0  0  0.680529  0.856357  0  0.692977  0
K  K3  1  0.43984542  0.29871509  0.26145099  1  0  0.92996  0  0.469234  0  0  0.86856  0  0.675314  0  0  0.88471  0  0.650954  0  0  0.680553  0.856391  0  0.692966  0
H  H4  1  0.20748912  0.84782386  0.18380664  1  0  0.130286  0  0.963139  0  0  0.146994  0  1.030631  0  0  0.148205  0  1.031183  0  0  0.086126  0.146125  0  1.030424  0
H  H5  1  0.79251778  0.15217790  0.81618801  1  0  0.130256  0  0.963138  0  0  0.14699  0  1.030604  0  0  0.148203  0  1.031155  0  0  0.086139  0.146121  0  1.030392  0
H  H6  1  0.23453245  0.91275337  0.08988364  1  0  0.127604  0  0.966334  0  0  0.140353  0  1.039278  0  0  0.142228  0  1.038902  0  0  0.08279  0.13919  0  1.039136  0
H  H7  1  0.76546718  0.08725032  0.91011449  1  0  0.12764  0  0.966326  0  0  0.140392  0  1.039266  0  0  0.142267  0  1.03889  0  0  0.082803  0.139227  0  1.039132  0
H  H8  1  0.37006799  0.99046627  0.17154312  1  0  0.140314  0  0.95437  0  0  0.156521  0  1.017049  0  0  0.159452  0  1.01558  0  0  0.098378  0.154368  0  1.018281  0
H  H9  1  0.62993633  0.00953548  0.82845386  1  0  0.140259  0  0.954404  0  0  0.156451  0  1.017116  0  0  0.159376  0  1.015656  0  0  0.098362  0.154297  0  1.01835  0
H  H10  1  0.92246397  0.01273706  0.31684821  1  0  0.142915  0  0.951956  0  0  0.162632  0  1.007932  0  0  0.165284  0  1.006778  0  0  0.102516  0.160716  0  1.008942  0
H  H11  1  0.07754456  0.98726078  0.68315112  1  0  0.142964  0  0.951969  0  0  0.162663  0  1.007935  0  0  0.165339  0  1.006755  0  0  0.102544  0.16075  0  1.008949  0
H  H12  1  0.78726512  0.86048902  0.29062851  1  0  0.131914  0  0.947552  0  0  0.15032  0  1.012551  0  0  0.151461  0  1.013104  0  0  0.089981  0.149713  0  1.012005  0
H  H13  1  0.21274737  0.13950396  0.70937198  1  0  0.131859  0  0.94755  0  0  0.150272  0  1.012529  0  0  0.151407  0  1.01309  0  0  0.089941  0.149667  0  1.011975  0
H  H14  1  0.80305927  0.91085154  0.38982258  1  0  0.120438  0  0.98445  0  0  0.131798  0  1.060076  0  0  0.13391  0  1.059407  0  0  0.078413  0.130302  0  1.060345  0
H  H15  1  0.19694412  0.08914148  0.61017604  1  0  0.120459  0  0.984457  0  0  0.131807  0  1.060089  0  0  0.133918  0  1.059426  0  0  0.07843  0.130314  0  1.060359  0
H  H16  1  0.93046452  0.98179911  0.06851846  1  0  0.124486  0  0.964919  0  0  0.140932  0  1.032937  0  0  0.142547  0  1.032559  0  0  0.08611  0.139977  0  1.032632  0
H  H17  1  0.06954398  0.01819877  0.93147557  1  0  0.124545  0  0.964959  0  0  0.140986  0  1.032966  0  0  0.142607  0  1.032582  0  0  0.086094  0.140023  0  1.032669  0
H  H18  1  0.87065429  0.87278951  0.14346856  1  0  0.126349  0  0.982112  0  0  0.138296  0  1.058475  0  0  0.140119  0  1.058457  0  0  0.084337  0.136948  0  1.0586  0
H  H19  1  0.12935527  0.12720738  0.85652841  1  0  0.126338  0  0.982061  0  0  0.138294  0  1.058433  0  0  0.140114  0  1.058417  0  0  0.084301  0.136942  0  1.05855  0
H  H20  1  0.82489469  0.03380666  0.15350052  1  0  0.139977  0  0.955279  0  0  0.155258  0  1.01862  0  0  0.158646  0  1.016361  0  0  0.098578  0.15277  0  1.020399  0
H  H21  1  0.17511305  0.96618833  0.84649169  1  0  0.140003  0  0.955187  0  0  0.155274  0  1.01855  0  0  0.158664  0  1.016288  0  0  0.098528  0.152779  0  1.020329  0
H  H22  1  0.44727536  0.85406050  0.35725934  1  0  0.129952  0  0.973608  0  0  0.142381  0  1.047932  0  0  0.144076  0  1.04807  0  0  0.084556  0.141144  0  1.048105  0
H  H23  1  0.55273132  0.14593547  0.64273229  1  0  0.130002  0  0.973498  0  0  0.142412  0  1.047816  0  0  0.144106  0  1.047961  0  0  0.084569  0.141175  0  1.04799  0
H  H24  1  0.50819154  0.98785534  0.42160398  1  0  0.126506  0  0.963023  0  0  0.140498  0  1.036255  0  0  0.142071  0  1.035912  0  0  0.088281  0.139826  0  1.035198  0
H  H25  1  0.49181366  0.01213479  0.57838992  1  0  0.126437  0  0.963177  0  0  0.140433  0  1.036396  0  0  0.142008  0  1.036054  0  0  0.088282  0.139754  0  1.035345  0
H  H26  1  0.36548843  0.00058063  0.33793595  1  0  0.133227  0  0.9462  0  0  0.151653  0  1.00593  0  0  0.154538  0  1.004154  0  0  0.097204  0.14967  0  1.007044  0
H  H27  1  0.63451154  0.99941436  0.66205855  1  0  0.133317  0  0.94613  0  0  0.151741  0  1.005863  0  0  0.15463  0  1.004082  0  0  0.097231  0.14976  0  1.006975  0
C  C28  1  0.32916288  0.59505303  0.92946100  1  0  0.320835  0  3.944052  0  0  0.300085  0  4.220791  0  0  0.316235  0  4.234479  0  0  0.085538  0.290307  0  4.210313  0
C  C29  1  0.67084677  0.40493419  0.07053232  1  0  0.320592  0  3.944286  0  0  0.299791  0  4.221129  0  0  0.315956  0  4.234793  0  0  0.085417  0.290017  0  4.210621  0
C  C30  1  0.22979170  0.59430646  0.56979614  1  0  0.322455  0  3.939646  0  0  0.302542  0  4.216547  0  0  0.318807  0  4.22987  0  0  0.086414  0.291465  0  4.207757  0
C  C31  1  0.77020772  0.40569623  0.43020609  1  0  0.322507  0  3.939934  0  0  0.302597  0  4.216859  0  0  0.318853  0  4.230195  0  0  0.086464  0.291542  0  4.207967  0
C  C32  1  0.21186002  0.47135346  0.94260542  1  0  -0.052905  0  3.673433  0  0  -0.050628  0  3.9536  0  0  -0.050642  0  3.974043  0  0  -0.040475  -0.051598  0  3.940636  0
C  C33  1  0.78814738  0.52862984  0.05739489  1  0  -0.052665  0  3.67313  0  0  -0.050335  0  3.953242  0  0  -0.050367  0  3.973687  0  0  -0.040387  -0.051257  0  3.940173  0
C  C34  1  0.28087648  0.46794783  0.55802354  1  0  -0.047498  0  3.657556  0  0  -0.045278  0  3.937086  0  0  -0.045108  0  3.95729  0  0  -0.038313  -0.046368  0  3.925105  0
C  C35  1  0.71912761  0.53205293  0.44197577  1  0  -0.047599  0  3.657132  0  0  -0.045344  0  3.936646  0  0  -0.045166  0  3.956842  0  0  -0.038338  -0.046417  0  3.924597  0
C  C36  1  0.19435860  0.41546747  0.01497575  1  0  -0.04954  0  3.658226  0  0  -0.048581  0  3.939731  0  0  -0.04814  0  3.959425  0  0  -0.039011  -0.0487  0  3.926929  0
C  C37  1  0.80563588  0.58453618  0.98502822  1  0  -0.049608  0  3.658076  0  0  -0.048748  0  3.939752  0  0  -0.048263  0  3.959402  0  0  -0.039047  -0.048879  0  3.926949  0
C  C38  1  0.26258049  0.40359051  0.48665638  1  0  -0.045784  0  3.651181  0  0  -0.043528  0  3.931563  0  0  -0.04346  0  3.95176  0  0  -0.036872  -0.043519  0  3.917807  0
C  C39  1  0.73739554  0.59641705  0.51334980  1  0  -0.045772  0  3.650933  0  0  -0.043495  0  3.931317  0  0  -0.04345  0  3.95152  0  0  -0.036863  -0.04349  0  3.917523  0
C  C40  1  0.29319943  0.47357585  0.08544608  1  0  0.323407  0  3.936265  0  0  0.303285  0  4.213184  0  0  0.319515  0  4.226556  0  0  0.089795  0.292265  0  4.204697  0
C  C41  1  0.70679461  0.52642103  0.91455780  1  0  0.32345  0  3.936353  0  0  0.303341  0  4.213272  0  0  0.319493  0  4.226814  0  0  0.089818  0.292327  0  4.204734  0
C  C42  1  0.19138929  0.45604661  0.41602689  1  0  0.325495  0  3.936758  0  0  0.304951  0  4.213094  0  0  0.321238  0  4.226683  0  0  0.090949  0.293889  0  4.203961  0
C  C43  1  0.80859150  0.54397453  0.58397657  1  0  0.325392  0  3.936649  0  0  0.30481  0  4.213127  0  0  0.321148  0  4.226607  0  0  0.090706  0.293763  0  4.203907  0
C  C44  1  0.39823801  0.60204578  0.07349469  1  0  -0.054981  0  3.65657  0  0  -0.054406  0  3.940649  0  0  -0.056142  0  3.964291  0  0  -0.040606  -0.054382  0  3.926408  0
C  C45  1  0.60176308  0.39794336  0.92650328  1  0  -0.05502  0  3.656848  0  0  -0.054461  0  3.940909  0  0  -0.056184  0  3.964558  0  0  -0.040646  -0.054446  0  3.92669  0
C  C46  1  0.15476752  0.58639761  0.42648640  1  0  -0.060094  0  3.671227  0  0  -0.059126  0  3.955464  0  0  -0.061285  0  3.979663  0  0  -0.042158  -0.058171  0  3.939771  0
C  C47  1  0.84522716  0.41362746  0.57350430  1  0  -0.060401  0  3.671694  0  0  -0.059397  0  3.955773  0  0  -0.061574  0  3.979973  0  0  -0.042185  -0.058425  0  3.940019  0
C  C48  1  0.41426655  0.65902765  0.00083078  1  0  -0.062814  0  3.677091  0  0  -0.063015  0  3.962967  0  0  -0.064859  0  3.986669  0  0  -0.044197  -0.062442  0  3.948646  0
C  C49  1  0.58575422  0.34096246  0.99916328  1  0  -0.062753  0  3.677445  0  0  -0.062994  0  3.963421  0  0  -0.06484  0  3.98711  0  0  -0.044228  -0.062427  0  3.94908  0
C  C50  1  0.17270373  0.65117074  0.49823655  1  0  -0.060873  0  3.678177  0  0  -0.062291  0  3.965242  0  0  -0.06409  0  3.989026  0  0  -0.04326  -0.060864  0  3.948878  0
C  C51  1  0.82730122  0.34884841  0.50176595  1  0  -0.06074  0  3.678864  0  0  -0.062042  0  3.96583  0  0  -0.063833  0  3.98961  0  0  -0.043129  -0.060617  0  3.949423  0
C  C52  1  0.09991590  0.01861376  0.17114657  1  0  0.619556  0  3.617088  0  0  0.617621  0  3.877052  0  0  0.638059  0  3.880422  0  0  0.17132  0.603412  0  3.874741  0
C  C53  1  0.90008283  0.98137637  0.82884961  1  0  0.619794  0  3.617073  0  0  0.617853  0  3.877003  0  0  0.638298  0  3.880376  0  0  0.171467  0.603651  0  3.874688  0
C  C54  1  0.64178192  0.00923580  0.31367394  1  0  0.614881  0  3.619099  0  0  0.613221  0  3.880245  0  0  0.633535  0  3.883672  0  0  0.171284  0.59917  0  3.877853  0
C  C55  1  0.35822276  0.99075722  0.68632293  1  0  0.614529  0  3.619329  0  0  0.612961  0  3.880332  0  0  0.633275  0  3.883767  0  0  0.171201  0.598909  0  3.877938  0
C  C56  1  0.23788395  0.94012989  0.15261761  1  0  -0.459272  0  3.68292  0  0  -0.533579  0  3.912427  0  0  -0.539953  0  3.918406  0  0  -0.256198  -0.528756  0  3.908123  0
C  C57  1  0.76212142  0.05987088  0.84738054  1  0  -0.459297  0  3.682843  0  0  -0.53364  0  3.912383  0  0  -0.540013  0  3.918367  0  0  -0.256267  -0.52882  0  3.90809  0
C  C58  1  0.79952212  0.94673685  0.32963126  1  0  -0.451429  0  3.667182  0  0  -0.525875  0  3.893173  0  0  -0.532067  0  3.89923  0  0  -0.25419  -0.52142  0  3.889026  0
C  C59  1  0.20048436  0.05325810  0.67036742  1  0  -0.451323  0  3.667188  0  0  -0.525771  0  3.89317  0  0  -0.53198  0  3.899202  0  0  -0.254182  -0.521319  0  3.88902  0
C  C60  1  0.91995710  0.97607851  0.13288195  1  0  -0.459284  0  3.676611  0  0  -0.533127  0  3.906294  0  0  -0.539452  0  3.911587  0  0  -0.256285  -0.528223  0  3.902468  0
C  C61  1  0.08004805  0.02391647  0.86711260  1  0  -0.459428  0  3.676648  0  0  -0.533272  0  3.906318  0  0  -0.539608  0  3.911615  0  0  -0.256243  -0.528352  0  3.902482  0
C  C62  1  0.47928684  0.96051045  0.35913289  1  0  -0.457181  0  3.688115  0  0  -0.53296  0  3.91862  0  0  -0.539015  0  3.924466  0  0  -0.253796  -0.528367  0  3.914237  0
C  C63  1  0.52071596  0.03948552  0.64085988  1  0  -0.457172  0  3.687986  0  0  -0.532978  0  3.918465  0  0  -0.539027  0  3.924285  0  0  -0.253822  -0.528378  0  3.914079  0
Br  Br64  1  0.07364593  0.40009904  0.85353587  1  0  -0.040724  0  1.554276  0  0  -0.035438  0  1.872806  0  0  -0.036985  0  1.864101  0  0  0.06503  -0.033819  0  1.879285  0
Br  Br65  1  0.92634951  0.59988814  0.14646849  1  0  -0.040815  0  1.554249  0  0  -0.035536  0  1.872766  0  0  -0.037083  0  1.864069  0  0  0.065  -0.033933  0  1.879243  0
Br  Br66  1  0.38636133  0.40550629  0.64761262  1  0  -0.035474  0  1.529428  0  0  -0.03292  0  1.845871  0  0  -0.034358  0  1.8374  0  0  0.072091  -0.032332  0  1.852618  0
Br  Br67  1  0.61362376  0.59450128  0.35238953  1  0  -0.03554  0  1.529367  0  0  -0.032962  0  1.845823  0  0  -0.034412  0  1.837368  0  0  0.072055  -0.032373  0  1.852556  0
Br  Br68  1  0.02986192  0.26180067  0.03162280  1  0  -0.01378  0  1.488949  0  0  -0.001834  0  1.788798  0  0  -0.005274  0  1.783256  0  0  0.086468  0.000926  0  1.79234  0
Br  Br69  1  0.97014749  0.73819036  0.96838057  1  0  -0.013777  0  1.489126  0  0  -0.001824  0  1.789044  0  0  -0.005257  0  1.783468  0  0  0.086474  0.00093  0  1.792594  0
Br  Br70  1  0.33947814  0.24420870  0.47123287  1  0  -0.02464  0  1.432769  0  0  -0.014429  0  1.716013  0  0  -0.016147  0  1.708662  0  0  0.075972  -0.011581  0  1.718429  0
Br  Br71  1  0.66050960  0.75579880  0.52877755  1  0  -0.024587  0  1.432985  0  0  -0.014383  0  1.716245  0  0  -0.016103  0  1.708905  0  0  0.07603  -0.011534  0  1.718656  0
Br  Br72  1  0.49412394  0.69160989  0.16684000  1  0  -0.006264  0  1.46547  0  0  0.005919  0  1.766052  0  0  0.003517  0  1.758339  0  0  0.069548  0.007622  0  1.772  0
Br  Br73  1  0.50588073  0.30838793  0.83316459  1  0  -0.006219  0  1.46564  0  0  0.005972  0  1.766246  0  0  0.003582  0  1.758507  0  0  0.069595  0.007673  0  1.772185  0
Br  Br74  1  0.10191608  0.66789330  0.33263312  1  0  -0.020898  0  1.477026  0  0  -0.011409  0  1.776377  0  0  -0.013147  0  1.768364  0  0  0.064249  -0.010756  0  1.782622  0
Br  Br75  1  0.89805076  0.33214916  0.66737458  1  0  -0.021038  0  1.476886  0  0  -0.011521  0  1.776159  0  0  -0.013264  0  1.76814  0  0  0.064118  -0.010871  0  1.782385  0
Br  Br76  1  0.52799398  0.83276078  0.98769618  1  0  -0.013571  0  1.424704  0  0  -0.000859  0  1.706329  0  0  -0.002326  0  1.698971  0  0  0.066667  0.000246  0  1.71373  0
Br  Br77  1  0.47201315  0.16724197  0.01229554  1  0  -0.013571  0  1.424802  0  0  -0.000846  0  1.706455  0  0  -0.002309  0  1.699097  0  0  0.0667  0.00025  0  1.713873  0
Br  Br78  1  0.14426082  0.82568196  0.50874415  1  0  -0.008247  0  1.411724  0  0  0.005761  0  1.689617  0  0  0.003696  0  1.682914  0  0  0.067629  0.007729  0  1.692491  0
Br  Br79  1  0.85570783  0.17432641  0.49128551  1  0  -0.008261  0  1.411651  0  0  0.005686  0  1.689538  0  0  0.003634  0  1.682804  0  0  0.067567  0.007646  0  1.692404  0
O  O80  1  0.34414189  0.64612100  0.86264682  1  0  -0.610337  0  2.049512  0  0  -0.570706  0  2.29596  0  0  -0.590069  0  2.293098  0  0  -0.426775  -0.556724  0  2.296968  0
O  O81  1  0.65585389  0.35387787  0.13734886  1  0  -0.61013  0  2.049531  0  0  -0.570499  0  2.295973  0  0  -0.589859  0  2.293105  0  0  -0.426647  -0.556524  0  2.29698  0
O  O82  1  0.24569229  0.65226682  0.63585579  1  0  -0.603431  0  2.052559  0  0  -0.565612  0  2.300702  0  0  -0.585327  0  2.299427  0  0  -0.417116  -0.552214  0  2.301769  0
O  O83  1  0.75427714  0.34772526  0.36414777  1  0  -0.603615  0  2.05264  0  0  -0.565731  0  2.300764  0  0  -0.58546  0  2.299501  0  0  -0.417245  -0.552324  0  2.3018  0
O  O84  1  0.27882280  0.42051449  0.15146739  1  0  -0.585429  0  2.036377  0  0  -0.551574  0  2.285802  0  0  -0.570358  0  2.28358  0  0  -0.401109  -0.538748  0  2.287344  0
O  O85  1  0.72119221  0.57948813  0.84853972  1  0  -0.585391  0  2.03658  0  0  -0.551557  0  2.285997  0  0  -0.570321  0  2.283814  0  0  -0.401092  -0.538716  0  2.287516  0
O  O86  1  0.17448766  0.39622176  0.35060014  1  0  -0.601483  0  2.047892  0  0  -0.56269  0  2.294396  0  0  -0.581813  0  2.291592  0  0  -0.426251  -0.549804  0  2.296408  0
O  O87  1  0.82548750  0.60379261  0.64940200  1  0  -0.601362  0  2.047987  0  0  -0.562458  0  2.294456  0  0  -0.581607  0  2.29163  0  0  -0.426038  -0.549553  0  2.296433  0
O  O88  1  0.13252454  0.11269343  0.21747570  1  0  -0.574908  0  1.925814  0  0  -0.531966  0  2.142349  0  0  -0.551133  0  2.136475  0  0  -0.36071  -0.518894  0  2.146665  0
O  O89  1  0.86748208  0.88731218  0.78252193  1  0  -0.574992  0  1.926004  0  0  -0.532035  0  2.142536  0  0  -0.551207  0  2.136667  0  0  -0.360773  -0.518973  0  2.14686  0
O  O90  1  0.64521538  0.09535575  0.26460380  1  0  -0.552274  0  1.913107  0  0  -0.507534  0  2.123605  0  0  -0.526716  0  2.118695  0  0  -0.332987  -0.494199  0  2.127067  0
O  O91  1  0.35479804  0.90464596  0.73539562  1  0  -0.552126  0  1.913209  0  0  -0.507382  0  2.123589  0  0  -0.526567  0  2.118684  0  0  -0.332908  -0.494048  0  2.12705  0
