# generated using pymatgen
data_MnCrH22C31N8(ClO)2
_symmetry_space_group_name_H-M   'P 1'
_cell_length_a   10.30072644
_cell_length_b   11.56709785
_cell_length_c   14.75009336
_cell_angle_alpha   68.07071690
_cell_angle_beta   84.90096543
_cell_angle_gamma   87.35545981
_symmetry_Int_Tables_number   1
_chemical_formula_structural   MnCrH22C31N8(ClO)2
_chemical_formula_sum   'Mn2 Cr2 H44 C62 N16 Cl4 O4'
_cell_volume   1623.69454838
_cell_formula_units_Z   2
loop_
 _symmetry_equiv_pos_site_id
 _symmetry_equiv_pos_as_xyz
  1  'x, y, z'
loop_
 _atom_site_type_symbol
 _atom_site_label
 _atom_site_symmetry_multiplicity
 _atom_site_fract_x
 _atom_site_fract_y
 _atom_site_fract_z
 _atom_site_occupancy
 _atom_site_pbe_bader_charge
 _atom_site_pbe_bader_spin_density
 _atom_site_pbe_cm5_charge
 _atom_site_pbe_ddec_charge
 _atom_site_pbe_ddec_spin_density
 _atom_site_pbe_ddec_sum_bond_order
 _atom_site_pbe_magmom
Mn  Mn0  1  0.61527746  0.00566455  0.74440278  1  1.661955  -3.578243  0.829037  0.97177  -3.799819  3.067217  -3.559
Mn  Mn1  1  0.38471866  0.99433593  0.25559212  1  1.662207  3.578267  0.828937  0.971621  3.799826  3.067423  3.559
Cr  Cr2  1  0.11674750  0.00487382  0.73903422  1  1.542669  -2.58626  0.847873  0.826107  -2.762757  3.654538  -2.605
Cr  Cr3  1  0.88325253  0.99512480  0.26097047  1  1.541977  2.586393  0.847898  0.826085  2.762873  3.654399  2.605
H  H4  1  0.54422043  0.90850516  0.06537464  1  0.137728  0.000275  0.109872  0.137419  -2.7e-05  1.024914  0.0
H  H5  1  0.45577864  0.09149155  0.93461915  1  0.137616  -0.000275  0.109865  0.137384  2.7e-05  1.024913  0.0
H  H6  1  0.59748629  0.70656795  0.19409827  1  0.102964  0.000254  0.105365  0.119805  0.000149  1.005235  0.0
H  H7  1  0.40251374  0.29343064  0.80590100  1  0.102979  -0.000254  0.105333  0.119715  -0.000149  1.005353  0.0
H  H8  1  0.57025229  0.64446910  0.81923798  1  0.091153  0.002556  0.111856  0.073513  0.001815  1.003705  0.002
H  H9  1  0.42976528  0.35553025  0.18075388  1  0.091141  -0.00256  0.111841  0.073403  -0.001818  1.003503  -0.002
H  H10  1  0.72609997  0.38826662  0.41378622  1  0.110943  -5.3e-05  0.105416  0.121195  5.8e-05  1.022812  0.0
H  H11  1  0.27387958  0.61173398  0.58620560  1  0.110801  5.3e-05  0.105362  0.121138  -5.8e-05  1.02271  0.0
H  H12  1  0.61483136  0.38684813  0.74973160  1  0.078857  -0.000197  0.097534  0.108551  -5.6e-05  1.028841  0.0
H  H13  1  0.38516475  0.61315513  0.25026043  1  0.078648  0.000197  0.09755  0.108555  5.6e-05  1.02874  0.0
H  H14  1  0.28906282  0.64140702  0.03764780  1  0.072338  1.8e-05  0.105375  0.105835  8.8e-05  1.009586  0.0
H  H15  1  0.71094109  0.35859527  0.96235149  1  0.072763  -1.8e-05  0.105371  0.105815  -8.8e-05  1.009596  0.0
H  H16  1  0.12965110  0.16640804  0.01513721  1  0.130568  0.000463  0.112285  0.127023  0.000263  1.017015  0.0
H  H17  1  0.87034701  0.83358503  0.98487330  1  0.130693  -0.000462  0.112325  0.127091  -0.000263  1.016773  0.0
H  H18  1  0.20569133  0.98757616  0.07795432  1  0.139485  0.000404  0.115407  0.127363  0.000179  1.039579  0.0
H  H19  1  0.79431454  0.01242427  0.92204744  1  0.139593  -0.000404  0.115426  0.127409  -0.000179  1.039518  0.0
H  H20  1  0.60774654  0.91330045  0.50205802  1  0.072329  8e-05  0.095187  0.10321  -6.4e-05  0.99218  0.0
H  H21  1  0.39224859  0.08670192  0.49794112  1  0.072128  -8e-05  0.095222  0.103255  6.4e-05  0.992168  0.0
H  H22  1  0.70582622  0.78402210  0.56283565  1  0.043646  8.5e-05  0.095731  0.100015  0.000119  1.000315  0.0
H  H23  1  0.29417184  0.21598023  0.43716196  1  0.043617  -8.6e-05  0.095726  0.1  -0.00012  1.000333  0.0
H  H24  1  0.82134434  0.89131323  0.63964305  1  0.074677  1.5e-05  0.114254  0.103016  0.000423  0.971663  0.0
H  H25  1  0.17864884  0.10869104  0.36035972  1  0.074648  -1.3e-05  0.114219  0.102964  -0.000422  0.971661  0.0
H  H26  1  0.82064454  0.98478457  0.51409080  1  0.09582  0.001441  0.112988  0.104821  0.000642  0.988695  0.001
H  H27  1  0.17935060  0.01521688  0.48590996  1  0.095782  -0.001442  0.113015  0.104808  -0.000642  0.988602  -0.001
H  H28  1  0.63824871  0.53414184  0.97974287  1  0.055377  -1e-05  0.09685  0.104089  0.000102  1.032885  0.0
H  H29  1  0.36176694  0.46585197  0.02025888  1  0.055433  1e-05  0.09683  0.104087  -0.000102  1.03276  0.0
H  H30  1  0.21537950  0.74167403  0.86793881  1  0.141597  0.000587  0.114344  0.088573  0.000452  1.037716  0.0
H  H31  1  0.78461663  0.25832648  0.13206353  1  0.141524  -0.000587  0.114323  0.088555  -0.000452  1.037702  0.0
H  H32  1  0.28478457  0.77186370  0.14366517  1  0.13015  0.000401  0.111292  0.111995  4e-06  1.039759  0.0
H  H33  1  0.71522422  0.22813763  0.85633546  1  0.129898  -0.0004  0.111268  0.111979  -4e-06  1.039787  0.0
H  H34  1  0.51615653  0.72727620  0.67107191  1  0.033816  0.001317  0.099037  0.071835  0.001016  1.005165  0.001
H  H35  1  0.48384155  0.27272428  0.32892693  1  0.033754  -0.001316  0.099063  0.071855  -0.001016  1.005135  -0.001
H  H36  1  0.45825347  0.88227888  0.63488347  1  0.107141  -2.2e-05  0.112684  0.098624  0.000246  0.990677  0.0
H  H37  1  0.54174265  0.11772163  0.36511751  1  0.107182  2.3e-05  0.112664  0.098618  -0.000245  0.99067  0.0
H  H38  1  0.63012073  0.58701923  0.60686570  1  0.091761  0.000193  0.101566  0.107823  0.000235  1.018345  0.0
H  H39  1  0.36986758  0.41298408  0.39312341  1  0.092125  -0.000194  0.101555  0.107865  -0.000235  1.01837  0.0
H  H40  1  0.02285791  0.28104419  0.67326317  1  0.1515  0.000613  0.12632  0.107034  0.000491  0.997881  0.001
H  H41  1  0.97715081  0.71897023  0.32674376  1  0.151759  -0.000613  0.12632  0.106993  -0.000491  0.997927  -0.001
H  H42  1  0.77175401  0.17665079  0.47617669  1  0.149994  0.003573  0.125143  0.103083  0.002674  1.028719  0.003
H  H43  1  0.22822945  0.82334699  0.52381843  1  0.149596  -0.003579  0.125141  0.103068  -0.002678  1.028542  -0.003
H  H44  1  0.05364073  0.38310488  0.92401288  1  0.103232  -1.2e-05  0.11282  0.109371  -1.4e-05  0.971355  0.0
H  H45  1  0.94637781  0.61689549  0.07600031  1  0.103248  1.3e-05  0.11285  0.109459  1.4e-05  0.971314  0.0
H  H46  1  0.00046498  0.44353865  0.74830771  1  0.128597  -6.1e-05  0.122729  0.133501  3e-05  0.961636  0.0
H  H47  1  0.99956518  0.55647561  0.25170065  1  0.128765  6.1e-05  0.122737  0.133489  -3.1e-05  0.961634  0.0
C  C48  1  0.57197015  0.84120414  0.94622066  1  0.651752  -0.004932  0.101701  0.304749  -0.005338  4.081801  -0.004
C  C49  1  0.42803479  0.15878694  0.05377646  1  0.651176  0.004923  0.101697  0.304668  0.005332  4.081685  0.004
C  C50  1  0.56838686  0.82743997  0.04597109  1  -0.065111  -0.005762  -0.100377  -0.190554  -0.00437  3.932147  -0.003
C  C51  1  0.43161512  0.17255767  0.95402563  1  -0.06454  0.005764  -0.100398  -0.190625  0.00437  3.932199  0.003
C  C52  1  0.06083547  0.11528331  0.60762407  1  0.641761  0.038336  -0.04922  -0.202319  0.039838  3.788263  0.063
C  C53  1  0.93916755  0.88470316  0.39238131  1  0.642679  -0.038327  -0.049197  -0.202369  -0.039803  3.788918  -0.063
C  C54  1  0.68913346  0.27434524  0.56717361  1  0.068607  -0.010057  -0.02249  -0.055527  -0.007674  4.016225  -0.005
C  C55  1  0.31084902  0.72565440  0.43281831  1  0.068357  0.010062  -0.022436  -0.055508  0.007677  4.016249  0.005
C  C56  1  0.15921501  0.85776904  0.70028863  1  0.647177  0.032565  -0.040773  -0.177297  0.036678  3.761795  0.059
C  C57  1  0.84077819  0.14223245  0.29971835  1  0.647742  -0.032546  -0.04083  -0.177442  -0.03665  3.762374  -0.059
C  C58  1  0.59608262  0.71392603  0.11830012  1  0.00657  -0.004446  -0.08875  -0.111466  -0.003795  3.998601  -0.002
C  C59  1  0.40392131  0.28607065  0.88169608  1  0.006382  0.004437  -0.088726  -0.111292  0.003788  3.998718  0.002
C  C60  1  0.65664544  0.27188072  0.66388000  1  0.598865  -0.00223  0.09866  0.301989  -0.003135  4.079758  -0.003
C  C61  1  0.34335067  0.72812160  0.33610892  1  0.598967  0.002216  0.098585  0.301978  0.003122  4.079864  0.003
C  C62  1  0.58367209  0.73488099  0.82548983  1  0.607837  -0.024323  0.088584  0.117162  -0.021341  3.911477  -0.017
C  C63  1  0.41633680  0.26510077  0.17451726  1  0.608681  0.02429  0.088711  0.117359  0.021317  3.911729  0.017
C  C64  1  0.59585948  0.73229706  0.92269182  1  0.010515  -0.009232  -0.030136  -0.067561  -0.007161  4.047347  -0.005
C  C65  1  0.40415226  0.26770049  0.07730432  1  0.01034  0.009235  -0.030181  -0.067547  0.007164  4.046837  0.005
C  C66  1  0.16610218  0.98096771  0.93804844  1  0.373305  -0.015639  0.123856  0.16947  -0.012533  3.957106  -0.011
C  C67  1  0.83389783  0.01903372  0.06195746  1  0.373355  0.01564  0.123881  0.169506  0.012534  3.956954  0.011
C  C68  1  0.69928787  0.38899378  0.48680057  1  0.003729  -0.004617  -0.081956  -0.156424  -0.003968  3.945503  -0.002
C  C69  1  0.30069948  0.61100580  0.51318699  1  0.00391  0.004606  -0.08187  -0.156343  0.00396  3.945821  0.002
C  C70  1  0.63906059  0.38722744  0.67620511  1  -0.00934  -0.008571  -0.111171  -0.214325  -0.006402  4.010301  -0.004
C  C71  1  0.36093159  0.61277957  0.32378403  1  -0.009044  0.008574  -0.111223  -0.214344  0.006406  4.010254  0.004
C  C72  1  0.11800104  0.10967894  0.89201804  1  0.456767  -0.016449  0.121516  0.167765  -0.013104  3.960525  -0.012
C  C73  1  0.88199606  0.89032065  0.10798858  1  0.456697  0.016455  0.12149  0.167765  0.013109  3.960242  0.012
C  C74  1  0.25406820  0.73770122  0.01157811  1  -0.026616  0.005536  -0.078917  -0.122335  0.004842  3.97882  0.004
C  C75  1  0.74593376  0.26230110  0.98842130  1  -0.027098  -0.005535  -0.078909  -0.122312  -0.004841  3.978835  -0.004
C  C76  1  0.10510398  0.19443747  0.93953553  1  0.020334  0.005046  -0.073008  -0.140646  0.004294  3.917162  0.004
C  C77  1  0.89489801  0.80555930  0.06047568  1  0.019868  -0.005048  -0.07305  -0.140758  -0.004296  3.91665  -0.004
C  C78  1  0.92947214  0.94981875  0.78058011  1  0.703716  -0.019372  -0.008055  -0.11637  -0.005777  3.644512  0.021
C  C79  1  0.07052499  0.05017619  0.21942856  1  0.703855  0.019401  -0.008032  -0.116387  0.005781  3.644291  -0.021
C  C80  1  0.20723884  0.93145849  0.03292235  1  0.050113  0.004725  -0.068347  -0.12668  0.003979  3.872303  0.004
C  C81  1  0.79276312  0.06854383  0.96707977  1  0.050465  -0.004725  -0.068315  -0.126637  -0.003979  3.872162  -0.004
C  C82  1  0.65381634  0.86509241  0.57094315  1  -0.032097  0.000759  -0.156879  -0.182198  0.000861  3.877424  0.001
C  C83  1  0.34617881  0.13490809  0.42905586  1  -0.031692  -0.000758  -0.156893  -0.182239  -0.000859  3.877387  -0.001
C  C84  1  0.75809637  0.94726258  0.58238590  1  0.292127  -0.000318  -0.060159  -0.036863  0.000382  3.895803  0.0
C  C85  1  0.24189875  0.05274259  0.41761309  1  0.291923  0.000316  -0.06015  -0.036659  -0.000384  3.895381  0.0
C  C86  1  0.62056055  0.61682171  0.99804053  1  0.04039  -0.00306  -0.100772  -0.189042  -0.002652  4.021708  -0.001
C  C87  1  0.37945022  0.38317305  0.00195582  1  0.040624  0.003052  -0.100734  -0.189027  0.002646  4.021726  0.001
C  C88  1  0.21324643  0.79213124  0.91738497  1  0.43881  -0.018835  0.053539  0.103951  -0.015313  3.90589  -0.013
C  C89  1  0.78674969  0.20786928  0.08261805  1  0.438831  0.018836  0.053514  0.103916  0.015314  3.905925  0.013
C  C90  1  0.30733258  0.05115679  0.70224326  1  0.683209  -0.018492  -0.003019  -0.100907  -0.005742  3.634999  0.018
C  C91  1  0.69266258  0.94884187  0.29775901  1  0.683596  0.018473  -0.002942  -0.100681  0.005743  3.634656  -0.018
C  C92  1  0.25155192  0.80858960  0.07013423  1  0.000557  -0.020403  -0.05851  -0.00958  -0.016569  3.930045  -0.012
C  C93  1  0.74845297  0.19141083  0.92986759  1  0.000501  0.0204  -0.058496  -0.009592  0.016567  3.930221  0.012
C  C94  1  0.62432007  0.60842438  0.09398741  1  -0.036147  -0.009578  -0.014323  0.092088  -0.007596  4.121821  -0.006
C  C95  1  0.37568679  0.39157136  0.90601228  1  -0.036137  0.009581  -0.01433  0.092006  0.007599  4.122006  0.006
C  C96  1  0.67584690  0.49984614  0.50140559  1  0.022318  -0.013076  -0.002291  0.11932  -0.010398  4.087296  -0.008
C  C97  1  0.32414238  0.50015623  0.49858307  1  0.02285  0.013084  -0.002329  0.119358  0.010405  4.087499  0.008
C  C98  1  0.54589361  0.82346377  0.65546561  1  0.254003  -0.001155  -0.058391  -0.030578  -0.000526  3.878288  -0.001
C  C99  1  0.45410446  0.17653578  0.34453283  1  0.253954  0.001154  -0.058314  -0.030465  0.000526  3.878096  0.001
C  C100  1  0.64713812  0.49900513  0.59645930  1  -0.017215  -0.003507  -0.088986  -0.11107  -0.002999  4.01821  -0.001
C  C101  1  0.35285409  0.50099814  0.40352755  1  -0.018097  0.003493  -0.088991  -0.111239  0.002986  4.018329  0.001
C  C102  1  0.04506800  0.26017315  0.74863824  1  0.483228  -0.020437  0.059358  0.107092  -0.016824  3.908559  -0.015
C  C103  1  0.95494270  0.73983473  0.25136915  1  0.482705  0.020441  0.059327  0.107113  0.016828  3.908356  0.015
C  C104  1  0.72300130  0.16296946  0.54862863  1  0.594095  -0.028946  0.100598  0.136323  -0.026168  3.868386  -0.02
C  C105  1  0.27698793  0.83704410  0.45135808  1  0.59493  0.028907  0.10057  0.136353  0.026133  3.868732  0.02
C  C106  1  0.06217745  0.31547677  0.88844237  1  -0.041749  -0.021021  -0.062886  -0.023636  -0.016974  3.977563  -0.013
C  C107  1  0.93783525  0.68452180  0.11157240  1  -0.041217  0.02103  -0.062877  -0.023622  0.016982  3.977305  0.013
C  C108  1  0.03217075  0.34925179  0.79145793  1  -0.068256  0.006007  -0.071095  -0.115877  0.005147  3.951009  0.005
C  C109  1  0.96784775  0.65075605  0.20855577  1  -0.068173  -0.006009  -0.071205  -0.116015  -0.005149  3.950829  -0.005
N  N110  1  0.70381375  0.04964359  0.61023252  1  -1.224362  0.010344  -0.359674  -0.239405  0.016649  3.509169  0.038
N  N111  1  0.29617266  0.95034861  0.38977152  1  -1.224606  -0.01033  -0.359547  -0.239437  -0.016645  3.509696  -0.038
N  N112  1  0.58064579  0.83397336  0.74630916  1  -1.202325  0.011479  -0.346293  -0.221408  0.016731  3.496566  0.037
N  N113  1  0.41935615  0.16603359  0.25368346  1  -1.203028  -0.011447  -0.346425  -0.221546  -0.016712  3.497455  -0.037
N  N114  1  0.17008397  0.91114037  0.88127089  1  -1.217657  -0.002551  -0.344482  -0.262262  0.007995  3.580514  0.03
N  N115  1  0.82991313  0.08886015  0.11873477  1  -1.217772  0.002547  -0.344464  -0.262245  -0.007996  3.580598  -0.03
N  N116  1  0.08745585  0.14320367  0.79757353  1  -1.235593  -0.001413  -0.343463  -0.26586  0.008883  3.578538  0.032
N  N117  1  0.91254318  0.85679963  0.20243255  1  -1.235725  0.001404  -0.343329  -0.265726  -0.008891  3.578373  -0.032
N  N118  1  0.42055057  0.06501789  0.69102189  1  -1.330928  -0.139139  -0.349564  -0.3268  -0.108321  3.300524  -0.087
N  N119  1  0.57944359  0.93498541  0.30897636  1  -1.331131  0.139134  -0.349646  -0.327007  0.10831  3.300376  0.087
N  N120  1  0.81860665  0.92617651  0.80269170  1  -1.375601  -0.124596  -0.34598  -0.343359  -0.097323  3.264871  -0.079
N  N121  1  0.18139146  0.07381656  0.19731949  1  -1.3758  0.124617  -0.345982  -0.343279  0.097338  3.264642  0.079
N  N122  1  0.02563185  0.18590528  0.53290330  1  -1.270809  -0.135064  -0.346806  -0.280578  -0.103833  2.930897  -0.096
N  N123  1  0.97436914  0.81409517  0.46709401  1  -1.271346  0.13496  -0.346854  -0.280551  0.103751  2.931639  0.095
N  N124  1  0.19271321  0.76843466  0.68390390  1  -1.284622  -0.117568  -0.353167  -0.303196  -0.090917  3.036019  -0.084
N  N125  1  0.80728194  0.23156397  0.31609498  1  -1.284956  0.117496  -0.353143  -0.3031  0.090861  3.036639  0.084
Cl  Cl126  1  0.66910362  0.46901908  0.18411307  1  -0.218615  -0.001411  0.007667  -0.080393  -0.000886  1.644472  -0.001
Cl  Cl127  1  0.33089933  0.53097858  0.81588968  1  -0.218565  0.001411  0.007644  -0.080389  0.000886  1.644419  0.001
Cl  Cl128  1  0.68064925  0.64148402  0.40381094  1  -0.221295  -0.002309  0.00948  -0.067697  -0.002275  1.633346  -0.001
Cl  Cl129  1  0.31935271  0.35851826  0.59617966  1  -0.22149  0.002312  0.009484  -0.06768  0.002277  1.63323  0.001
O  O130  1  0.54987304  0.95178911  0.87954932  1  -1.105058  -0.063514  -0.310156  -0.456254  -0.046202  2.382668  -0.033
O  O131  1  0.45012604  0.04820390  0.12044963  1  -1.105086  0.063525  -0.310117  -0.456158  0.046205  2.382732  0.033
O  O132  1  0.64578081  0.16735405  0.74194656  1  -1.114686  -0.065744  -0.315824  -0.457012  -0.048161  2.380845  -0.035
O  O133  1  0.35422017  0.83264824  0.25804681  1  -1.114764  0.065765  -0.315814  -0.457015  0.048168  2.380935  0.035
