# generated using pymatgen
data_HoH7C11N3O7
_symmetry_space_group_name_H-M   'P 1'
_cell_length_a   8.19479418
_cell_length_b   11.51803167
_cell_length_c   14.65371663
_cell_angle_alpha   89.99999053
_cell_angle_beta   89.99989130
_cell_angle_gamma   91.84711523
_symmetry_Int_Tables_number   1
_chemical_formula_structural   HoH7C11N3O7
_chemical_formula_sum   'Ho4 H28 C44 N12 O28'
_cell_volume   1382.41483739
_cell_formula_units_Z   4
loop_
 _symmetry_equiv_pos_site_id
 _symmetry_equiv_pos_as_xyz
  1  'x, y, z'
loop_
 _atom_site_type_symbol
 _atom_site_label
 _atom_site_symmetry_multiplicity
 _atom_site_fract_x
 _atom_site_fract_y
 _atom_site_fract_z
 _atom_site_occupancy
 _atom_site_pbe_bader_charge
 _atom_site_pbe_bader_spin_density
 _atom_site_pbe_cm5_charge
 _atom_site_pbe_ddec_charge
 _atom_site_pbe_ddec_spin_density
 _atom_site_pbe_ddec_sum_bond_order
 _atom_site_pbe_magmom
Ho  Ho0  1  0.77408402  0.42669838  0.86837858  1  2.181403  0  1.518328  2.055036  0  2.185273  0
Ho  Ho1  1  0.22591186  0.07330193  0.36837878  1  2.181457  0  1.518354  2.055073  0  2.185145  0
Ho  Ho2  1  0.22590935  0.57330286  0.13162515  1  2.181436  0  1.518312  2.055025  0  2.185355  0
Ho  Ho3  1  0.77408753  0.92669675  0.63162496  1  2.181473  0  1.518301  2.054973  0  2.185446  0
H  H4  1  0.25210161  0.48411995  0.82176064  1  0.096032  0  0.12172  0.134857  0  0.992368  0
H  H5  1  0.74789821  0.01588388  0.32176234  1  0.095962  0  0.121701  0.13485  0  0.992238  0
H  H6  1  0.74788713  0.51588908  0.17823627  1  0.095887  0  0.121694  0.134755  0  0.992382  0
H  H7  1  0.25210845  0.98411311  0.67823593  1  0.095889  0  0.121675  0.134778  0  0.992382  0
H  H8  1  0.41507049  0.67169841  0.83342789  1  0.098333  0  0.125473  0.10272  0  0.972586  0
H  H9  1  0.58493066  0.82830378  0.33343177  1  0.098284  0  0.125468  0.102704  0  0.972573  0
H  H10  1  0.58492662  0.32830547  0.16656560  1  0.098267  0  0.125426  0.102644  0  0.972595  0
H  H11  1  0.41507239  0.17169492  0.66656787  1  0.098263  0  0.125438  0.102676  0  0.97258  0
H  H12  1  0.25101314  0.78154546  0.58105377  1  0.127038  0  0.123458  0.103228  0  1.000787  0
H  H13  1  0.74899365  0.71845336  0.08105886  1  0.127097  0  0.123492  0.103257  0  1.000817  0
H  H14  1  0.74899965  0.21845245  0.41893427  1  0.127154  0  0.123521  0.103276  0  1.000787  0
H  H15  1  0.25100934  0.28154361  0.91893942  1  0.127134  0  0.12351  0.103311  0  1.000758  0
H  H16  1  0.08276811  0.59985679  0.55880491  1  0.10187  0  0.109015  0.116038  0  1.005576  0
H  H17  1  0.91723762  0.90014464  0.05880911  1  0.101923  0  0.109005  0.115972  0  1.005618  0
H  H18  1  0.91723628  0.40014540  0.44118586  1  0.102028  0  0.109066  0.116048  0  1.005541  0
H  H19  1  0.08277023  0.09985150  0.94119053  1  0.101983  0  0.109032  0.116071  0  1.005512  0
H  H20  1  0.16718108  0.34970484  0.55576197  1  0.5036  0  0.34903  0.317849  0  0.877446  0
H  H21  1  0.83281712  0.15029644  0.05576356  1  0.503618  0  0.349033  0.317837  0  0.877447  0
H  H22  1  0.83281587  0.65029382  0.44423631  1  0.503604  0  0.349029  0.317832  0  0.877458  0
H  H23  1  0.16718596  0.84970313  0.94423812  1  0.503571  0  0.349007  0.317803  0  0.87747  0
H  H24  1  0.53891516  0.46332706  0.72544636  1  0.638043  0  0.313764  0.404284  0  0.901011  0
H  H25  1  0.46107636  0.03667413  0.22544563  1  0.638072  0  0.313776  0.404329  0  0.900967  0
H  H26  1  0.46108545  0.53667163  0.27455191  1  0.638039  0  0.313759  0.404293  0  0.900965  0
H  H27  1  0.53891340  0.96332882  0.77455264  1  0.638027  0  0.313746  0.404272  0  0.900983  0
H  H28  1  0.46901865  0.34052436  0.77273884  1  0.63907  0  0.283893  0.343769  0  1.023887  0
H  H29  1  0.53097756  0.15947598  0.27273666  1  0.639094  0  0.283875  0.343721  0  1.023959  0
H  H30  1  0.53098077  0.65947518  0.22725875  1  0.639149  0  0.283876  0.343729  0  1.023954  0
H  H31  1  0.46901825  0.84052528  0.72725820  1  0.639137  0  0.283892  0.343751  0  1.023919  0
C  C32  1  0.24923272  0.54807193  0.76733759  1  0.028737  0  -0.073385  -0.154263  0  3.953104  0
C  C33  1  0.75076741  0.95192940  0.26734059  1  0.028687  0  -0.07338  -0.154236  0  3.952933  0
C  C34  1  0.75076325  0.45193454  0.23265796  1  0.028816  0  -0.073417  -0.154191  0  3.952992  0
C  C35  1  0.24923670  0.04806410  0.73265904  1  0.028672  0  -0.073365  -0.154174  0  3.952906  0
C  C36  1  0.33807146  0.65260629  0.77409213  1  0.480786  0  0.051617  0.085791  0  3.94176  0
C  C37  1  0.66192989  0.84739592  0.27409593  1  0.480718  0  0.051588  0.085769  0  3.941788  0
C  C38  1  0.66192801  0.34739500  0.22590273  1  0.480655  0  0.051607  0.085833  0  3.941714  0
C  C39  1  0.33807435  0.15260193  0.72590439  1  0.480668  0  0.051633  0.085787  0  3.941672  0
C  C40  1  0.24748318  0.71411551  0.63333881  1  0.534726  0  0.062137  0.111585  0  3.914609  0
C  C41  1  0.75251858  0.78588413  0.13334388  1  0.534751  0  0.062112  0.111497  0  3.914728  0
C  C42  1  0.75252109  0.28588320  0.36665059  1  0.534538  0  0.061945  0.111395  0  3.914849  0
C  C43  1  0.24748570  0.21411458  0.86665576  1  0.534702  0  0.062123  0.111498  0  3.914725  0
C  C44  1  0.15557841  0.61143013  0.62051072  1  -0.033026  0  -0.077022  -0.158765  0  3.932098  0
C  C45  1  0.84442583  0.88856953  0.12051500  1  -0.03337  0  -0.07701  -0.158679  0  3.93196  0
C  C46  1  0.84442107  0.38857116  0.37948141  1  -0.033298  0  -0.077023  -0.15869  0  3.931927  0
C  C47  1  0.15558202  0.11142660  0.87948327  1  -0.033313  0  -0.077036  -0.158824  0  3.931995  0
C  C48  1  0.15478177  0.52661543  0.68902645  1  -0.032514  0  0.016378  0.049635  0  4.005285  0
C  C49  1  0.84522105  0.97338507  0.18902935  1  -0.032108  0  0.01637  0.049624  0  4.005193  0
C  C50  1  0.84521904  0.47338934  0.31096773  1  -0.032223  0  0.016379  0.049584  0  4.005278  0
C  C51  1  0.15478553  0.02660931  0.81097097  1  -0.032115  0  0.016373  0.049653  0  4.005218  0
C  C52  1  0.06483485  0.41496350  0.68007314  1  0.987408  0  0.238642  0.326765  0  3.977296  0
C  C53  1  0.93516650  0.08503516  0.18007532  1  0.987397  0  0.238607  0.326655  0  3.97737  0
C  C54  1  0.93516454  0.58503518  0.31992581  1  0.987353  0  0.238637  0.326736  0  3.977239  0
C  C55  1  0.06484018  0.91496270  0.81992636  1  0.98738  0  0.238591  0.326723  0  3.977334  0
C  C56  1  0.00356154  0.23773689  0.62603979  1  0.385313  0  0.097648  0.012913  0  3.890382  0
C  C57  1  0.99643889  0.26226525  0.12604257  1  0.385191  0  0.097611  0.012864  0  3.890299  0
C  C58  1  0.99644273  0.76226182  0.37396325  1  0.385276  0  0.097587  0.012718  0  3.890571  0
C  C59  1  0.00355812  0.73773515  0.87396389  1  0.385275  0  0.09761  0.012738  0  3.890461  0
C  C60  1  0.92371045  0.25477311  0.70848938  1  0.414573  0  0.095714  0.018337  0  3.967213  0
C  C61  1  0.07629203  0.24522555  0.20849108  1  0.414637  0  0.095712  0.018347  0  3.96713  0
C  C62  1  0.07629388  0.74522734  0.29151503  1  0.41456  0  0.095745  0.018384  0  3.967291  0
C  C63  1  0.92370858  0.75477314  0.79151334  1  0.414608  0  0.095746  0.018423  0  3.967331  0
C  C64  1  0.80889859  0.18027760  0.76398595  1  1.649677  0  0.223789  0.623663  0  4.215964  0
C  C65  1  0.19110012  0.31972363  0.26398683  1  1.649718  0  0.2238  0.623617  0  4.215977  0
C  C66  1  0.19110699  0.81972373  0.23601847  1  1.649665  0  0.223713  0.623636  0  4.215885  0
C  C67  1  0.80889442  0.68027588  0.73601690  1  1.649725  0  0.223722  0.623556  0  4.215956  0
C  C68  1  0.03914753  0.13710676  0.56708000  1  1.660715  0  0.236916  0.635628  0  4.224957  0
C  C69  1  0.96084694  0.36289362  0.06708484  1  1.660929  0  0.236975  0.635767  0  4.224825  0
C  C70  1  0.96086037  0.86289110  0.43292374  1  1.661089  0  0.237048  0.636018  0  4.225073  0
C  C71  1  0.03913780  0.63710496  0.93292435  1  1.66126  0  0.236988  0.635874  0  4.22483  0
C  C72  1  0.46443216  0.43684079  0.00020036  1  1.595181  0  0.200968  0.476916  0  4.284722  0
C  C73  1  0.53556024  0.06316394  0.50020251  1  1.594767  0  0.200999  0.476866  0  4.284788  0
C  C74  1  0.53554792  0.56316470  0.99979041  1  1.572085  0  0.200992  0.476796  0  4.284792  0
C  C75  1  0.46444172  0.93683910  0.49979167  1  1.57207  0  0.200969  0.476857  0  4.284746  0
N  N76  1  0.96364896  0.36468312  0.74089888  1  -1.177427  0  -0.384922  -0.462699  0  3.406726  0
N  N77  1  0.03635593  0.13531816  0.24090063  1  -1.177539  0  -0.384927  -0.462647  0  3.406677  0
N  N78  1  0.03635542  0.63531907  0.25910212  1  -1.177391  0  -0.384967  -0.46271  0  3.406669  0
N  N79  1  0.96364834  0.86468055  0.75910242  1  -1.177355  0  -0.384914  -0.462681  0  3.406851  0
N  N80  1  0.08758031  0.34103886  0.60905361  1  -1.237596  0  -0.36097  -0.271195  0  3.621392  0
N  N81  1  0.91242012  0.15896155  0.10905580  1  -1.23747  0  -0.360924  -0.271099  0  3.621252  0
N  N82  1  0.91242146  0.65895810  0.39094603  1  -1.237566  0  -0.360949  -0.271093  0  3.62131  0
N  N83  1  0.08758052  0.84103800  0.89094725  1  -1.237565  0  -0.360919  -0.271077  0  3.621309  0
N  N84  1  0.33640393  0.73469067  0.70895439  1  -1.231579  0  -0.296535  -0.216608  0  3.396288  0
N  N85  1  0.66359881  0.76530982  0.20895819  1  -1.23155  0  -0.296499  -0.216511  0  3.39643  0
N  N86  1  0.66360167  0.26531152  0.29103570  1  -1.231279  0  -0.296355  -0.216445  0  3.396565  0
N  N87  1  0.33640299  0.23468801  0.79104213  1  -1.231417  0  -0.29653  -0.216549  0  3.396487  0
O  O88  1  0.76073343  0.22586629  0.83784710  1  -1.171351  0  -0.390885  -0.625089  0  2.234604  0
O  O89  1  0.23926874  0.27413668  0.33784862  1  -1.171422  0  -0.390874  -0.625081  0  2.234561  0
O  O90  1  0.23927464  0.77413679  0.16215595  1  -1.171249  0  -0.39092  -0.625137  0  2.234406  0
O  O91  1  0.76072466  0.72586543  0.66215648  1  -1.171317  0  -0.390874  -0.625052  0  2.234485  0
O  O92  1  0.76613498  0.07927071  0.73723508  1  -1.206404  0  -0.392436  -0.656713  0  2.335318  0
O  O93  1  0.23386385  0.42073140  0.23723591  1  -1.206433  0  -0.392445  -0.656696  0  2.335453  0
O  O94  1  0.23386807  0.92072800  0.26277069  1  -1.206511  0  -0.392349  -0.656656  0  2.335451  0
O  O95  1  0.76613684  0.57926989  0.76276850  1  -1.206485  0  -0.392402  -0.656655  0  2.335445  0
O  O96  1  0.99964659  0.03590013  0.59375601  1  -1.189492  0  -0.399467  -0.664912  0  2.411851  0
O  O97  1  0.00034896  0.46409852  0.09376048  1  -1.189986  0  -0.399528  -0.665005  0  2.411762  0
O  O98  1  0.00035258  0.96409160  0.40625387  1  -1.190013  0  -0.399521  -0.665032  0  2.412191  0
O  O99  1  0.99964443  0.53590359  0.90624871  1  -1.190099  0  -0.399498  -0.664977  0  2.411998  0
O  O100  1  0.12157929  0.16322016  0.49609250  1  -1.183976  0  -0.392223  -0.651219  0  2.300655  0
O  O101  1  0.87841251  0.33678096  0.99609630  1  -1.183699  0  -0.392195  -0.65126  0  2.300588  0
O  O102  1  0.87842837  0.83676989  0.50391601  1  -1.184054  0  -0.39223  -0.6514  0  2.300496  0
O  O103  1  0.12156754  0.66322366  0.00391562  1  -1.184132  0  -0.392237  -0.651315  0  2.300445  0
O  O104  1  0.54012024  0.36309895  0.95420335  1  -1.172428  0  -0.367642  -0.5853  0  2.303603  0
O  O105  1  0.45987423  0.13690480  0.45420466  1  -1.172262  0  -0.36762  -0.585239  0  2.303835  0
O  O106  1  0.45985867  0.63690826  0.04579288  1  -1.172405  0  -0.3678  -0.58541  0  2.303741  0
O  O107  1  0.54013492  0.86309395  0.54579566  1  -1.172299  0  -0.367718  -0.585341  0  2.303598  0
O  O108  1  0.33542806  0.41861009  0.04679475  1  -1.187769  0  -0.379905  -0.616543  0  2.297532  0
O  O109  1  0.66456776  0.08139205  0.54679949  1  -1.187529  0  -0.37996  -0.616594  0  2.297384  0
O  O110  1  0.66455080  0.58139539  0.95320147  1  -1.188085  0  -0.379861  -0.616464  0  2.297559  0
O  O111  1  0.33544151  0.91861017  0.45320424  1  -1.188154  0  -0.379903  -0.61654  0  2.297685  0
O  O112  1  0.56808734  0.39494046  0.75985946  1  -1.287245  0  -0.653033  -0.855618  0  2.183766  0
O  O113  1  0.43190780  0.10506335  0.25985739  1  -1.287274  0  -0.653033  -0.855647  0  2.183753  0
O  O114  1  0.43191449  0.60505824  0.24013813  1  -1.287242  0  -0.653022  -0.855594  0  2.183758  0
O  O115  1  0.56808570  0.89494223  0.74013952  1  -1.287226  0  -0.653033  -0.855585  0  2.183749  0
