# generated using pymatgen
data_CuH8C14(SN3)2
_symmetry_space_group_name_H-M   'P 1'
_cell_length_a   7.88246824
_cell_length_b   10.37616178
_cell_length_c   11.40803323
_cell_angle_alpha   112.27147690
_cell_angle_beta   95.83525843
_cell_angle_gamma   99.37051345
_symmetry_Int_Tables_number   1
_chemical_formula_structural   CuH8C14(SN3)2
_chemical_formula_sum   'Cu2 H16 C28 S4 N12'
_cell_volume   838.18155394
_cell_formula_units_Z   2
loop_
 _symmetry_equiv_pos_site_id
 _symmetry_equiv_pos_as_xyz
  1  'x, y, z'
loop_
 _atom_site_type_symbol
 _atom_site_label
 _atom_site_symmetry_multiplicity
 _atom_site_fract_x
 _atom_site_fract_y
 _atom_site_fract_z
 _atom_site_occupancy
 _atom_site_pbe_bader_charge
 _atom_site_pbe_bader_spin_density
 _atom_site_pbe_cm5_charge
 _atom_site_pbe_ddec_charge
 _atom_site_pbe_ddec_spin_density
 _atom_site_pbe_ddec_sum_bond_order
 _atom_site_pbe_magmom
Cu  Cu0  1  0.51357757  0.48749717  0.24741293  1  1.042218  0.570002  0.767048  0.724662  0.731659  2.52052  0.569
Cu  Cu1  1  0.48642199  0.51250318  0.75259141  1  1.04217  0.570012  0.767074  0.724603  0.731675  2.520639  0.569
H  H2  1  0.49475914  0.17130881  0.18723495  1  0.161485  0.00269  0.119729  0.105656  0.001333  1.003875  0.002
H  H3  1  0.50523629  0.82868087  0.81276805  1  0.16223  0.002689  0.119774  0.105722  0.001333  1.003875  0.002
H  H4  1  0.70472991  0.00725920  0.14771844  1  0.133656  0.001226  0.1065  0.125367  0.000639  1.033042  0.001
H  H5  1  0.29526467  0.99272727  0.85227814  1  0.13373  0.001225  0.10644  0.125288  0.000639  1.033196  0.001
H  H6  1  0.11538750  0.37256726  0.21597594  1  0.14678  0.001006  0.103723  0.117243  0.000462  1.067457  0.001
H  H7  1  0.88461078  0.62742348  0.78401974  1  0.146804  0.001006  0.103728  0.117239  0.000462  1.06749  0.001
H  H8  1  0.88772554  0.52080705  0.25086939  1  0.138432  0.002536  0.110302  0.083029  0.001154  1.046453  0.002
H  H9  1  0.11227544  0.47918903  0.74913095  1  0.138325  0.002536  0.110321  0.083065  0.001154  1.046443  0.002
H  H10  1  0.30463304  0.59430450  0.07936809  1  0.149951  0.002425  0.118871  0.098548  0.001067  1.017566  0.002
H  H11  1  0.69536242  0.40569478  0.92063121  1  0.149874  0.002425  0.11885  0.098516  0.001067  1.017518  0.002
H  H12  1  0.08988926  0.75329067  0.10517341  1  0.142349  0.001338  0.110136  0.124409  0.000757  1.025529  0.001
H  H13  1  0.91010890  0.24670434  0.89481848  1  0.142477  0.001338  0.110082  0.124353  0.000757  1.025521  0.001
H  H14  1  0.15344822  0.82478607  0.50770726  1  0.181722  0.001107  0.112388  0.133322  0.000584  1.036424  0.001
H  H15  1  0.84656191  0.17523456  0.49228640  1  0.181912  0.001106  0.11234  0.133285  0.000584  1.036425  0.001
H  H16  1  0.36049653  0.65811808  0.46400330  1  0.127282  0.002614  0.120604  0.100989  0.001187  1.004644  0.002
H  H17  1  0.63951571  0.34190575  0.53600214  1  0.127142  0.002613  0.120593  0.101061  0.001187  1.004723  0.002
C  C18  1  0.33465843  0.35433263  0.41570065  1  0.510614  0.000604  0.147307  0.285757  -0.000183  4.336101  0.006
C  C19  1  0.66533505  0.64566879  0.58430274  1  0.510563  0.000604  0.147214  0.285604  -0.000182  4.336143  0.006
C  C20  1  0.66479171  0.64646990  0.09067562  1  0.511708  0.002399  0.148647  0.280251  0.001857  4.331449  0.008
C  C21  1  0.33521762  0.35352405  0.90932546  1  0.51086  0.002403  0.148659  0.280178  0.001857  4.331381  0.008
C  C22  1  0.63334729  0.21106968  0.19221810  1  0.485154  -0.000857  0.056967  0.105101  -0.001013  3.882564  0.0
C  C23  1  0.36665155  0.78892320  0.80778449  1  0.484281  -0.000856  0.056858  0.104939  -0.001012  3.882536  0.0
C  C24  1  0.74982264  0.12051918  0.17089291  1  0.029294  0.007738  -0.059293  -0.122897  0.0051  3.865094  0.006
C  C25  1  0.25017408  0.87947050  0.82910317  1  0.0297  0.007737  -0.05916  -0.122735  0.0051  3.8652  0.006
C  C26  1  0.92638410  0.17874523  0.17920447  1  0.081601  -0.004016  0.030033  0.101651  -0.004456  4.037272  -0.003
C  C27  1  0.07360880  0.82124444  0.82078783  1  0.081425  -0.004017  0.029959  0.101493  -0.004457  4.037334  -0.003
C  C28  1  0.97934341  0.32485931  0.20843741  1  -0.033661  0.007096  -0.071206  -0.141298  0.00471  3.894942  0.006
C  C29  1  0.02065784  0.67512823  0.79156001  1  -0.033802  0.007095  -0.071216  -0.14123  0.00471  3.895201  0.006
C  C30  1  0.85432223  0.40700038  0.22827179  1  0.482372  -0.001583  0.045849  0.096606  -0.001937  3.932736  -0.001
C  C31  1  0.14568455  0.59299357  0.77173086  1  0.482465  -0.001584  0.045844  0.096536  -0.001937  3.933014  -0.001
C  C32  1  0.05439234  0.09323484  0.15743215  1  0.877014  0.000613  0.199956  0.263395  0.000406  3.96317  0.001
C  C33  1  0.94560595  0.90675590  0.84256178  1  0.877248  0.000613  0.199867  0.263341  0.000406  3.963187  0.001
C  C34  1  0.26612399  0.64627884  0.17198022  1  0.467814  -0.001228  0.056223  0.103835  -0.001524  3.8972  -0.001
C  C35  1  0.73387517  0.35372471  0.82801730  1  0.468404  -0.00123  0.056206  0.103896  -0.001524  3.897199  -0.001
C  C36  1  0.14770047  0.73455697  0.18640688  1  -0.02088  0.007095  -0.0622  -0.133557  0.004693  3.874544  0.005
C  C37  1  0.85229799  0.26544871  0.81358869  1  -0.02156  0.007096  -0.062096  -0.133476  0.004693  3.874402  0.005
C  C38  1  0.10502681  0.79953081  0.30867808  1  0.056277  -0.003837  0.0324  0.106994  -0.004255  4.026263  -0.003
C  C39  1  0.89497069  0.20047594  0.69130991  1  0.055834  -0.003838  0.032361  0.106883  -0.004255  4.026071  -0.003
C  C40  1  0.18256347  0.77382196  0.41168596  1  -0.002417  0.006827  -0.062282  -0.136078  0.004544  3.871345  0.005
C  C41  1  0.81744098  0.22619653  0.58830919  1  -0.003525  0.00683  -0.062229  -0.135963  0.004543  3.871314  0.005
C  C42  1  0.29820336  0.68299842  0.38797628  1  0.494825  -0.00152  0.05741  0.105981  -0.001887  3.903668  -0.001
C  C43  1  0.70180618  0.31702007  0.61202450  1  0.496285  -0.001524  0.057492  0.105996  -0.001888  3.903669  -0.001
C  C44  1  0.98222135  0.88942071  0.32864045  1  0.886591  0.000595  0.201893  0.263141  0.00038  3.950457  0.001
C  C45  1  0.01776875  0.11057750  0.67134758  1  0.886764  0.000595  0.201877  0.263178  0.00038  3.950711  0.001
S  S46  1  0.25496275  0.29778655  0.51630675  1  0.14002  0.015225  -0.154029  -0.323855  0.007779  2.390787  0.012
S  S47  1  0.74503369  0.70221167  0.48369576  1  0.140083  0.015228  -0.153996  -0.323791  0.00778  2.390888  0.012
S  S48  1  0.70677168  0.73100036  0.00039746  1  0.12989  0.027837  -0.13153  -0.318583  0.015564  2.448944  0.018
S  S49  1  0.29323128  0.26899359  0.99960053  1  0.130636  0.027831  -0.131546  -0.318593  0.015562  2.449008  0.018
N  N50  1  0.39131540  0.39125501  0.33806352  1  -1.316699  0.073227  -0.444936  -0.529879  0.048817  3.446194  0.06
N  N51  1  0.60867795  0.60875068  0.66194221  1  -1.316608  0.073236  -0.444863  -0.529818  0.04882  3.446232  0.06
N  N52  1  0.64023976  0.58257892  0.15677516  1  -1.298441  0.070576  -0.438138  -0.513282  0.046232  3.409768  0.057
N  N53  1  0.35976646  0.41741289  0.84322321  1  -1.298441  0.070578  -0.438162  -0.513185  0.046234  3.409596  0.057
N  N54  1  0.68518944  0.35113684  0.21993171  1  -1.216379  0.108451  -0.325519  -0.207216  0.071576  3.592856  0.094
N  N55  1  0.31481578  0.64885604  0.78006958  1  -1.216457  0.10845  -0.325485  -0.207062  0.071574  3.592797  0.094
N  N56  1  0.16383878  0.02822031  0.13907617  1  -1.155265  -0.001626  -0.292736  -0.352964  -0.001759  2.764659  -0.001
N  N57  1  0.83615950  0.97177043  0.86092038  1  -1.155427  -0.001626  -0.292633  -0.352859  -0.001759  2.764533  -0.001
N  N58  1  0.33892371  0.62062229  0.27065067  1  -1.194613  0.103097  -0.324206  -0.207293  0.068272  3.587874  0.09
N  N59  1  0.66107930  0.37939087  0.72935131  1  -1.194518  0.103098  -0.324247  -0.207376  0.068273  3.587872  0.09
N  N60  1  0.87957623  0.96078805  0.34520573  1  -1.138697  -0.00166  -0.279917  -0.339058  -0.001767  2.800447  -0.001
N  N61  1  0.12040634  0.03920589  0.65478994  1  -1.138868  -0.001661  -0.279902  -0.33907  -0.001767  2.800647  -0.001
