# generated using pymatgen
data_SrCuH16C14N2O13
_symmetry_space_group_name_H-M   'P 1'
_cell_length_a   6.86902465
_cell_length_b   8.19605229
_cell_length_c   17.30326645
_cell_angle_alpha   93.31118333
_cell_angle_beta   98.28582186
_cell_angle_gamma   112.35688272
_symmetry_Int_Tables_number   1
_chemical_formula_structural   SrCuH16C14N2O13
_chemical_formula_sum   'Sr2 Cu2 H32 C28 N4 O26'
_cell_volume   884.75487601
_cell_formula_units_Z   2
loop_
 _symmetry_equiv_pos_site_id
 _symmetry_equiv_pos_as_xyz
  1  'x, y, z'
loop_
 _atom_site_type_symbol
 _atom_site_label
 _atom_site_symmetry_multiplicity
 _atom_site_fract_x
 _atom_site_fract_y
 _atom_site_fract_z
 _atom_site_occupancy
 _atom_site_hle17_ddec_charge
 _atom_site_hle17_ddec_spin_density
 _atom_site_hle17_ddec_sum_bond_order
 _atom_site_hle17_magmom
 _atom_site_hse06_10hf_ddec_charge
 _atom_site_hse06_10hf_ddec_spin_density
 _atom_site_hse06_10hf_ddec_sum_bond_order
 _atom_site_hse06_10hf_magmom
 _atom_site_hse06_ddec_charge
 _atom_site_hse06_ddec_spin_density
 _atom_site_hse06_ddec_sum_bond_order
 _atom_site_hse06_magmom
 _atom_site_pbe_cm5_charge
 _atom_site_pbe_ddec_charge
 _atom_site_pbe_ddec_spin_density
 _atom_site_pbe_ddec_sum_bond_order
 _atom_site_pbe_magmom
Sr  Sr0  1  0.64146394  0.30764313  0.46247482  1  1.655825  1e-06  0.958042  0.0  1.521909  -1.4e-05  1.304962  0.0  1.55859  1e-06  1.260781  0.0  0.891007  1.494714  -1.1e-05  1.336618  0.0
Sr  Sr1  1  0.35853742  0.69235352  0.53752469  1  1.655825  2e-06  0.958009  0.0  1.521878  1e-05  1.304981  0.0  1.558558  1.3e-05  1.2608  0.0  0.891002  1.494678  1e-05  1.336636  0.0
Cu  Cu2  1  0.74520836  0.68304202  0.99053745  1  0.86109  0.74409  1.836578  0.523  0.832075  0.819514  2.235224  0.636  0.918221  0.892727  2.169451  0.721  0.747774  0.778879  0.764825  2.281832  0.579
Cu  Cu3  1  0.25479359  0.31695595  0.00946329  1  0.861132  -0.744089  1.836523  -0.523  0.832028  -0.819511  2.235255  -0.636  0.918259  -0.892733  2.169437  -0.721  0.747788  0.778858  -0.764825  2.281888  -0.579
H  H4  1  0.24088176  0.07740910  0.54376332  1  0.408321  1e-06  0.902341  0.0  0.377067  1e-06  0.968057  0.0  0.387121  1e-06  0.9533  0.0  0.297649  0.369947  2e-06  0.97852  0.0
H  H5  1  0.75911605  0.92259554  0.45623505  1  0.408239  -1e-06  0.902435  0.0  0.377057  -1e-06  0.968048  0.0  0.387111  -1e-06  0.95329  0.0  0.297639  0.369938  -2e-06  0.97851  0.0
H  H6  1  0.17755896  0.99491236  0.45693065  1  0.403767  -4e-06  0.911106  0.0  0.373147  -3e-06  0.976421  0.0  0.383479  -2e-06  0.961149  0.0  0.297741  0.365808  -3e-06  0.987285  0.0
H  H7  1  0.82243508  0.00509362  0.54306695  1  0.403758  4e-06  0.91111  0.0  0.373101  3e-06  0.976473  0.0  0.383432  2e-06  0.961203  0.0  0.297708  0.365762  3e-06  0.987337  0.0
H  H8  1  0.42608537  0.04775728  0.29021897  1  0.416625  -0.000256  0.887847  0.0  0.386403  -0.000224  0.952685  0.0  0.396627  -0.000119  0.937563  0.0  0.289154  0.379162  -0.000351  0.963354  0.0
H  H9  1  0.57391572  0.95224201  0.70978233  1  0.416599  0.000256  0.887884  0.0  0.386359  0.000224  0.952752  0.0  0.396585  0.000119  0.937625  0.0  0.28914  0.379112  0.000351  0.963425  0.0
H  H10  1  0.38996300  0.92219459  0.35836435  1  0.432512  3e-06  0.868247  0.0  0.402831  -5e-06  0.930012  0.0  0.413222  -3e-06  0.914976  0.0  0.296117  0.39551  -7e-06  0.940597  0.0
H  H11  1  0.61003391  0.07780205  0.64163605  1  0.432314  -3e-06  0.868513  0.0  0.402633  5e-06  0.930247  0.0  0.41303  3e-06  0.915206  0.0  0.296063  0.395323  7e-06  0.940812  0.0
H  H12  1  0.89415411  0.31421488  0.33478051  1  0.411521  7e-06  0.901051  0.0  0.381907  1.2e-05  0.963911  0.0  0.392037  9e-06  0.949196  0.0  0.292607  0.374754  1.4e-05  0.974306  0.0
H  H13  1  0.10583967  0.68578443  0.66521862  1  0.41149  -7e-06  0.901094  0.0  0.381912  -1.2e-05  0.963906  0.0  0.392042  -9e-06  0.949192  0.0  0.292603  0.374756  -1.4e-05  0.974304  0.0
H  H14  1  0.78466904  0.40478350  0.27739969  1  0.413517  0.000168  0.889191  0.0  0.383906  0.000163  0.953802  0.0  0.393604  7.9e-05  0.939595  0.0  0.289214  0.377032  0.000269  0.96383  0.0
H  H15  1  0.21532452  0.59521846  0.72260008  1  0.413556  -0.000168  0.889142  0.0  0.383949  -0.000163  0.953743  0.0  0.393647  -7.9e-05  0.939535  0.0  0.289238  0.377077  -0.000269  0.963769  0.0
H  H16  1  0.93150209  0.72467393  0.54404122  1  0.419641  -1e-06  0.885801  0.0  0.384904  0.0  0.956455  0.0  0.396745  0.0  0.938981  0.0  0.30401  0.376446  -0.0  0.968939  0.0
H  H17  1  0.06850031  0.27532804  0.45595851  1  0.419627  1e-06  0.88582  0.0  0.384871  0.0  0.956508  0.0  0.396718  0.0  0.939024  0.0  0.304009  0.376411  0.0  0.968993  0.0
H  H18  1  0.92738841  0.71455105  0.45219434  1  0.439492  1e-06  0.853678  0.0  0.409524  0.0  0.915621  0.0  0.419599  0.0  0.900667  0.0  0.315769  0.402395  0.0  0.926197  0.0
H  H19  1  0.07260896  0.28544960  0.54780447  1  0.439401  -0.0  0.853821  0.0  0.40943  -0.0  0.915768  0.0  0.419503  -0.0  0.900821  0.0  0.315723  0.4023  -0.0  0.926345  0.0
H  H20  1  0.69700481  0.23791070  0.76175002  1  0.116171  0.000381  0.970589  0.0  0.124602  0.000343  1.035026  0.0  0.128288  0.000244  1.032952  0.0  0.114799  0.121825  0.000416  1.036758  0.0
H  H21  1  0.30299423  0.76208728  0.23824939  1  0.116163  -0.000383  0.970615  0.0  0.124601  -0.000343  1.035042  0.0  0.128286  -0.000244  1.032969  0.0  0.114799  0.121824  -0.000416  1.03677  0.0
H  H22  1  0.63516857  0.72350629  0.70526562  1  0.120218  0.00084  0.975648  0.001  0.126472  0.000653  1.044326  0.001  0.130686  0.000428  1.040909  0.001  0.125233  0.123303  0.000847  1.047066  0.001
H  H23  1  0.36483492  0.27649171  0.29473290  1  0.120285  -0.000841  0.975687  -0.001  0.126513  -0.000653  1.044403  -0.001  0.130746  -0.000428  1.040966  -0.001  0.12526  0.123348  -0.000847  1.047142  -0.001
H  H24  1  0.74143643  0.34290321  0.90251276  1  0.096002  0.000995  0.969953  0.002  0.102271  0.000824  1.034299  0.002  0.105099  0.000607  1.031339  0.001  0.119572  0.099864  0.000978  1.036795  0.002
H  H25  1  0.25856850  0.65709477  0.09748700  1  0.096093  -0.000995  0.96992  -0.002  0.102354  -0.000824  1.034267  -0.002  0.105179  -0.000607  1.031309  -0.001  0.119599  0.09994  -0.000978  1.036762  -0.002
H  H26  1  0.18228853  0.70753161  0.98359660  1  0.42389  -0.000185  0.873349  0.0  0.402075  -0.000281  0.923638  0.0  0.414162  -0.000176  0.905881  0.0  0.290229  0.393795  -0.00037  0.935806  0.0
H  H27  1  0.81771255  0.29246767  0.01640528  1  0.423876  0.000186  0.873373  0.0  0.402056  0.000281  0.923667  0.0  0.414143  0.000176  0.905912  0.0  0.290219  0.393776  0.00037  0.935835  0.0
H  H28  1  0.20194434  0.89465033  0.02955035  1  0.416076  -0.000285  0.891356  0.0  0.390255  -0.000393  0.949043  0.0  0.402763  -0.000266  0.930671  0.0  0.284931  0.381683  -0.000493  0.961628  0.0
H  H29  1  0.79805677  0.10534896  0.97045038  1  0.416126  0.000286  0.891284  0.0  0.39031  0.000393  0.948963  0.0  0.402817  0.000265  0.930592  0.0  0.284961  0.381737  0.000493  0.961548  0.0
H  H30  1  0.71785246  0.01628997  0.07353831  1  0.090114  0.000958  0.954743  0.002  0.099092  0.000813  1.015237  0.001  0.102259  0.0006  1.011294  0.001  0.123988  0.096451  0.000964  1.018478  0.002
H  H31  1  0.28214157  0.98370670  0.92645960  1  0.090187  -0.000961  0.954636  -0.002  0.099117  -0.000813  1.015186  -0.001  0.102284  -0.0006  1.011243  -0.001  0.123972  0.096474  -0.000964  1.018428  -0.002
H  H32  1  0.81959502  0.15223112  0.21233531  1  0.127625  0.000399  0.96584  0.0  0.133304  0.000358  1.031738  0.0  0.137818  0.000257  1.028502  0.0  0.11687  0.129868  0.000436  1.034411  0.001
H  H33  1  0.18039505  0.84776956  0.78766131  1  0.127582  -0.000402  0.965895  0.0  0.133265  -0.000358  1.031793  0.0  0.137773  -0.000257  1.028557  0.0  0.116892  0.129826  -0.000436  1.034467  -0.001
H  H34  1  0.90125986  0.67821186  0.27722058  1  0.133304  0.000803  0.94918  0.001  0.138909  0.000624  1.016406  0.001  0.143619  0.000409  1.012617  0.001  0.121857  0.13545  0.000808  1.019248  0.001
H  H35  1  0.09874573  0.32179677  0.72277837  1  0.133342  -0.000802  0.949184  -0.001  0.138974  -0.000624  1.016367  -0.001  0.143684  -0.000409  1.012578  -0.001  0.121869  0.135516  -0.000808  1.019208  -0.001
C  C36  1  0.63128099  0.41464100  0.63489940  1  0.665568  0.000311  3.909851  0.001  0.61494  4.1e-05  4.200674  0.0  0.648792  4.3e-05  4.191296  0.0  0.220512  0.592009  4.2e-05  4.206432  0.0
C  C37  1  0.36872681  0.58535695  0.36510285  1  0.665592  -0.000312  3.909971  -0.001  0.614943  -4.1e-05  4.200818  0.0  0.648797  -4.4e-05  4.191438  0.0  0.220542  0.59201  -4.2e-05  4.206581  0.0
C  C38  1  0.65705039  0.47123666  0.72146488  1  0.009529  -0.007196  3.671824  -0.007  0.028655  -0.002367  3.906312  -0.002  0.028325  -0.002634  3.92135  -0.003  0.017014  0.02849  -0.002187  3.896523  -0.002
C  C39  1  0.34295069  0.52876262  0.27853700  1  0.009424  0.007205  3.672058  0.007  0.0286  0.002367  3.906516  0.002  0.028269  0.002634  3.921558  0.003  0.017008  0.028437  0.002187  3.89673  0.002
C  C40  1  0.68881326  0.36474920  0.77789328  1  -0.093565  0.009571  3.660009  0.01  -0.122075  0.004045  3.912975  0.005  -0.125874  0.003732  3.930859  0.004  -0.066633  -0.119564  0.004275  3.901175  0.005
C  C41  1  0.31118995  0.63525143  0.22210761  1  -0.093447  -0.009578  3.659997  -0.01  -0.121975  -0.004044  3.912954  -0.005  -0.125773  -0.003732  3.930835  -0.004  -0.066617  -0.119464  -0.004275  3.901151  -0.005
C  C42  1  0.65387845  0.63472356  0.74718363  1  -0.088382  0.006041  3.657446  0.006  -0.121674  0.002392  3.901241  0.002  -0.123359  0.002441  3.917634  0.003  -0.055004  -0.120618  0.002426  3.890765  0.002
C  C43  1  0.34612056  0.36527441  0.25281693  1  -0.088466  -0.006048  3.657491  -0.006  -0.121725  -0.002392  3.901377  -0.002  -0.123424  -0.002441  3.917757  -0.003  -0.05504  -0.120674  -0.002427  3.890903  -0.002
C  C44  1  0.71235403  0.42196777  0.85722925  1  0.143027  -0.005706  3.643418  -0.006  0.11306  -0.000458  3.905873  -0.001  0.121126  -0.00156  3.923265  -0.003  0.049032  0.107801  0.000431  3.894722  0.0
C  C45  1  0.28764666  0.57802754  0.14277133  1  0.142787  0.005716  3.643418  0.006  0.112818  0.000458  3.905891  0.001  0.120885  0.00156  3.923289  0.003  0.04896  0.107573  -0.000431  3.894735  0.0
C  C46  1  0.67837737  0.68398783  0.82719858  1  0.076312  -0.004805  3.755664  -0.005  0.084141  -0.00057  3.999192  -0.001  0.086053  -0.00141  4.019386  -0.002  0.106106  0.082542  1.4e-05  3.986294  0.0
C  C47  1  0.32162542  0.31600880  0.17280217  1  0.076418  0.004812  3.75546  0.005  0.084062  0.000569  3.999217  0.001  0.085972  0.00141  4.019414  0.002  0.106058  0.082472  -1.4e-05  3.986317  0.0
C  C48  1  0.67352130  0.85548849  0.86021813  1  0.621382  -0.003451  3.895383  -0.005  0.570146  0.000349  4.200625  -0.001  0.605598  0.000337  4.195063  -0.001  0.213052  0.545843  0.0004  4.203645  -0.001
C  C49  1  0.32648298  0.14450816  0.13978213  1  0.621425  0.003451  3.895258  0.005  0.57026  -0.00035  4.200466  0.001  0.605717  -0.000336  4.194895  0.001  0.213115  0.545957  -0.0004  4.203485  0.001
C  C50  1  0.76119464  0.94596546  0.11984260  1  0.157387  -0.005415  3.63512  -0.006  0.126848  -0.00033  3.896358  -0.001  0.13628  -0.001373  3.910891  -0.002  0.059659  0.12048  0.000554  3.887462  0.0
C  C51  1  0.23880064  0.05403386  0.88015604  1  0.157201  0.005428  3.635104  0.006  0.126679  0.000329  3.896348  0.001  0.136112  0.001374  3.910883  0.002  0.059629  0.120316  -0.000554  3.887449  0.0
C  C52  1  0.80622994  0.69031842  0.15366681  1  0.083167  -0.004269  3.749993  -0.005  0.089897  -0.000378  3.993191  -0.001  0.090801  -0.001217  4.015441  -0.002  0.105746  0.088916  0.000234  3.978793  0.0
C  C53  1  0.19377099  0.30968355  0.84633282  1  0.083193  0.004274  3.749974  0.005  0.089943  0.000377  3.993112  0.001  0.090849  0.001217  4.015371  0.002  0.105792  0.088963  -0.000235  3.978715  0.0
C  C54  1  0.78167861  0.50718749  0.12289325  1  0.605377  -0.003072  3.92288  -0.005  0.554419  0.000523  4.230805  -0.001  0.589154  0.000457  4.226005  0.0  0.207785  0.530746  0.00062  4.233132  -0.001
C  C55  1  0.21832669  0.49281446  0.87710838  1  0.60552  0.003072  3.922742  0.005  0.554594  -0.000524  4.230603  0.001  0.589323  -0.000457  4.225818  0.0  0.20781  0.530923  -0.000619  4.232934  0.001
C  C56  1  0.81831930  0.02095173  0.19823441  1  -0.088245  0.00915  3.643616  0.01  -0.115191  0.003928  3.896507  0.005  -0.118192  0.003591  3.912265  0.004  -0.063144  -0.113343  0.004152  3.886597  0.005
C  C57  1  0.18167940  0.97905161  0.80176223  1  -0.088203  -0.009151  3.643603  -0.01  -0.115119  -0.003927  3.896463  -0.005  -0.118109  -0.003592  3.912214  -0.004  -0.063138  -0.11327  -0.004152  3.886551  -0.005
C  C58  1  0.86284447  0.75588934  0.23300615  1  -0.10172  0.005506  3.653327  0.005  -0.133911  0.00222  3.898375  0.002  -0.136175  0.002251  3.916  0.002  -0.061971  -0.132319  0.002251  3.886898  0.002
C  C59  1  0.13715394  0.24411662  0.76699344  1  -0.101814  -0.005508  3.653399  -0.005  -0.134033  -0.002218  3.898462  -0.002  -0.136297  -0.002251  3.91609  -0.002  -0.062011  -0.132439  -0.00225  3.886986  -0.002
C  C60  1  0.87285211  0.92592236  0.25577748  1  0.002336  -0.00653  3.689952  -0.006  0.019914  -0.002093  3.929753  -0.002  0.018815  -0.002358  3.946477  -0.002  0.011526  0.020126  -0.001877  3.918964  -0.002
C  C61  1  0.12714908  0.07408628  0.74422063  1  0.002467  0.006532  3.689895  0.006  0.020003  0.002092  3.929734  0.002  0.0189  0.002359  3.946459  0.002  0.011551  0.020212  0.001877  3.918951  0.002
C  C62  1  0.94005736  0.00156958  0.34130235  1  0.66323  0.000238  3.891392  0.001  0.602502  1.5e-05  4.194892  0.0  0.636227  2.2e-05  4.18451  0.0  0.22983  0.579663  1.2e-05  4.201534  0.0
C  C63  1  0.05994125  0.99843372  0.65869776  1  0.663279  -0.000238  3.891449  -0.001  0.602605  -1.6e-05  4.19487  0.0  0.636333  -2.1e-05  4.184488  0.0  0.229935  0.579767  -1.2e-05  4.20151  0.0
N  N64  1  0.70599573  0.57814841  0.88119545  1  -0.307125  0.07671  3.349036  0.094  -0.267836  0.051062  3.644446  0.066  -0.296688  0.042372  3.666815  0.058  -0.35094  -0.250723  0.055505  3.631627  0.07
N  N65  1  0.29400349  0.42184690  0.11880504  1  -0.307073  -0.076721  3.34903  -0.094  -0.267685  -0.051062  3.644412  -0.066  -0.296557  -0.042374  3.666801  -0.058  -0.350884  -0.250592  -0.055505  3.631606  -0.07
N  N66  1  0.76068703  0.78629200  0.09804239  1  -0.305252  0.075274  3.343407  0.092  -0.265371  0.050697  3.638667  0.066  -0.293812  0.042134  3.660561  0.057  -0.349231  -0.248574  0.055122  3.626331  0.069
N  N67  1  0.23931538  0.21370998  0.90195676  1  -0.305188  -0.075282  3.343461  -0.092  -0.265273  -0.050696  3.638673  -0.066  -0.293739  -0.042135  3.660591  -0.057  -0.349235  -0.248487  -0.055122  3.626343  -0.069
O  O68  1  0.44239674  0.50452433  0.41418898  1  -0.723127  0.000448  1.988258  0.001  -0.662593  0.000162  2.2346  0.0  -0.688653  0.000173  2.224044  0.0  -0.368684  -0.644211  0.000158  2.241366  0.0
O  O69  1  0.55761321  0.49547497  0.58581170  1  -0.723105  -0.000448  1.988091  -0.001  -0.662549  -0.000163  2.234379  0.0  -0.688629  -0.000174  2.223861  0.0  -0.368609  -0.644168  -0.000158  2.241141  0.0
O  O70  1  0.30393800  0.04850198  0.49965292  1  -0.878862  -1.9e-05  1.840844  0.0  -0.822141  -1.6e-05  2.021558  0.0  -0.842156  -1.1e-05  1.99223  0.0  -0.609112  -0.807837  -2.1e-05  2.042113  0.0
O  O71  1  0.69605750  0.95150400  0.50034534  1  -0.878794  1.8e-05  1.840938  0.0  -0.82206  1.6e-05  2.021562  0.0  -0.842083  1e-05  1.992255  0.0  -0.609059  -0.807756  2.1e-05  2.042116  0.0
O  O72  1  0.44992184  0.04802329  0.34783871  1  -0.897018  -0.000639  1.801322  -0.001  -0.8437  -0.000422  1.982099  -0.001  -0.863267  -0.000212  1.951113  0.0  -0.633221  -0.829514  -0.000684  2.003842  -0.001
O  O73  1  0.55007359  0.95197334  0.65216218  1  -0.896833  0.000639  1.801549  0.001  -0.843481  0.000422  1.9824  0.001  -0.863057  0.000212  1.951397  0.0  -0.633166  -0.829286  0.000684  2.004142  0.001
O  O74  1  0.81333506  0.39208603  0.33364169  1  -0.867127  0.000483  1.785465  0.001  -0.814756  0.000322  1.957586  0.0  -0.834046  0.00015  1.928933  0.0  -0.622931  -0.800761  0.000544  1.977653  0.001
O  O75  1  0.18665662  0.60791194  0.66635785  1  -0.86712  -0.000483  1.785468  -0.001  -0.814793  -0.000322  1.957546  0.0  -0.834069  -0.000149  1.928862  0.0  -0.622938  -0.800799  -0.000545  1.977615  -0.001
O  O76  1  0.94519617  0.65307479  0.49817837  1  -0.901465  -2e-06  1.82971  0.0  -0.841496  -1e-06  2.017726  0.0  -0.862641  -1e-06  1.986243  0.0  -0.615197  -0.82632  -3e-06  2.039794  0.0
O  O77  1  0.05480751  0.34692985  0.50182092  1  -0.901393  2e-06  1.829848  0.0  -0.841421  3e-06  2.017882  0.0  -0.862571  0.0  1.986387  0.0  -0.615168  -0.826245  3e-06  2.039952  0.0
O  O78  1  0.68831680  0.28991073  0.61509675  1  -0.670773  -0.000425  1.975862  -0.001  -0.606294  -0.000164  2.200107  0.0  -0.632089  -0.00018  2.190541  0.0  -0.341454  -0.588301  -0.00015  2.206314  0.0
O  O79  1  0.31169226  0.71008988  0.38490565  1  -0.670788  0.000426  1.975687  0.001  -0.606308  0.000164  2.199977  0.0  -0.632105  0.00018  2.190408  0.0  -0.341447  -0.588306  0.00015  2.206188  0.0
O  O80  1  0.69978821  0.87978870  0.93676793  1  -0.601495  0.088044  2.063353  0.116  -0.566644  0.059297  2.338961  0.085  -0.609297  0.045748  2.329275  0.069  -0.317022  -0.538522  0.067745  2.34602  0.094
O  O81  1  0.30021523  0.12020927  0.06323232  1  -0.601488  -0.088042  2.063356  -0.116  -0.566614  -0.059295  2.338921  -0.085  -0.609285  -0.045748  2.329245  -0.069  -0.317016  -0.538498  -0.067742  2.345987  -0.094
O  O82  1  0.64785844  0.96428242  0.81677404  1  -0.56382  0.017665  1.956463  0.022  -0.516898  0.008506  2.180081  0.012  -0.543635  0.004011  2.175067  0.006  -0.289429  -0.49691  0.013677  2.182386  0.018
O  O83  1  0.35213031  0.03570626  0.18322448  1  -0.563925  -0.017666  1.956383  -0.022  -0.516998  -0.008506  2.179945  -0.012  -0.543734  -0.004011  2.174925  -0.006  -0.289496  -0.497013  -0.013677  2.182256  -0.018
O  O84  1  0.26175201  0.52963892  0.95333126  1  -0.614113  -0.082039  2.081931  -0.107  -0.590872  -0.05519  2.380688  -0.078  -0.63256  -0.042289  2.368205  -0.063  -0.314867  -0.563059  -0.063698  2.389308  -0.087
O  O85  1  0.73824865  0.47035638  0.04667048  1  -0.614038  0.082038  2.082083  0.107  -0.590757  0.055189  2.380765  0.078  -0.632458  0.042287  2.368334  0.063  -0.314878  -0.56295  0.063698  2.389408  0.087
O  O86  1  0.10692110  0.76941754  0.01003728  1  -0.847104  -0.00282  1.910899  -0.002  -0.809168  -0.001492  2.096417  -0.001  -0.832035  -0.001134  2.058822  -0.001  -0.601993  -0.79278  -0.001875  2.12216  -0.002
O  O87  1  0.89308001  0.23058175  0.98996345  1  -0.847124  0.002817  1.910867  0.002  -0.809187  0.001491  2.096393  0.001  -0.832073  0.001135  2.058808  0.001  -0.601997  -0.792807  0.001875  2.122146  0.002
O  O88  1  0.79695835  0.39973644  0.16915710  1  -0.568106  0.016525  1.974942  0.021  -0.517235  0.008048  2.19544  0.011  -0.542711  0.003802  2.190232  0.005  -0.288948  -0.498083  0.01303  2.197687  0.017
O  O89  1  0.20304965  0.60026815  0.83084593  1  -0.568196  -0.016528  1.974999  -0.021  -0.517343  -0.008047  2.195507  -0.011  -0.542821  -0.003801  2.190299  -0.005  -0.288983  -0.498191  -0.013031  2.197753  -0.017
O  O90  1  0.00993297  0.16836285  0.35853275  1  -0.636318  -0.000498  2.046167  -0.001  -0.568454  -0.000202  2.271885  0.0  -0.594324  -0.000211  2.261935  0.0  -0.285123  -0.550428  -0.000196  2.278446  0.0
O  O91  1  0.99006605  0.83164443  0.64146750  1  -0.636381  0.000498  2.046318  0.001  -0.568597  0.000201  2.272064  0.0  -0.594458  0.00021  2.262098  0.0  -0.285235  -0.55057  0.000196  2.278624  0.0
O  O92  1  0.92450948  0.89076805  0.39126744  1  -0.659456  -0.000313  2.028594  0.0  -0.588942  -0.0001  2.245489  0.0  -0.613666  -0.000117  2.233381  0.0  -0.303927  -0.571712  -8.6e-05  2.253575  0.0
O  O93  1  0.07548771  0.10923528  0.60873027  1  -0.659475  0.000312  2.028505  0.0  -0.588919  0.0001  2.245358  0.0  -0.613642  0.000116  2.233246  0.0  -0.303916  -0.571696  8.6e-05  2.253448  0.0
