# generated using pymatgen
data_CdH10C17SN3ClO4
_symmetry_space_group_name_H-M   'P 1'
_cell_length_a   7.27592388
_cell_length_b   10.71632551
_cell_length_c   21.72394907
_cell_angle_alpha   90.00032928
_cell_angle_beta   89.28277761
_cell_angle_gamma   89.99962052
_symmetry_Int_Tables_number   1
_chemical_formula_structural   CdH10C17SN3ClO4
_chemical_formula_sum   'Cd4 H40 C68 S4 N12 Cl4 O16'
_cell_volume   1693.70898959
_cell_formula_units_Z   4
loop_
 _symmetry_equiv_pos_site_id
 _symmetry_equiv_pos_as_xyz
  1  'x, y, z'
loop_
 _atom_site_type_symbol
 _atom_site_label
 _atom_site_symmetry_multiplicity
 _atom_site_fract_x
 _atom_site_fract_y
 _atom_site_fract_z
 _atom_site_occupancy
 _atom_site_hle17_bader_spin_density
 _atom_site_hle17_ddec_charge
 _atom_site_hle17_ddec_spin_density
 _atom_site_hle17_ddec_sum_bond_order
 _atom_site_hle17_magmom
 _atom_site_hse06_10hf_bader_spin_density
 _atom_site_hse06_10hf_ddec_charge
 _atom_site_hse06_10hf_ddec_spin_density
 _atom_site_hse06_10hf_ddec_sum_bond_order
 _atom_site_hse06_10hf_magmom
 _atom_site_hse06_bader_spin_density
 _atom_site_hse06_ddec_charge
 _atom_site_hse06_ddec_spin_density
 _atom_site_hse06_ddec_sum_bond_order
 _atom_site_hse06_magmom
 _atom_site_pbe_bader_spin_density
 _atom_site_pbe_cm5_charge
 _atom_site_pbe_ddec_charge
 _atom_site_pbe_ddec_spin_density
 _atom_site_pbe_ddec_sum_bond_order
 _atom_site_pbe_magmom
Cd  Cd0  1  0.02143780  0.65331841  0.69337336  1  0  1.06277  0  1.80261  0  0  0.881878  0  2.267007  0  0  0.933973  0  2.218577  0  0  0.682363  0.845462  0  2.299711  0
Cd  Cd1  1  0.47856847  0.15330975  0.30662526  1  0  1.062843  0  1.802551  0  0  0.881951  0  2.266965  0  0  0.934046  0  2.218528  0  0  0.682373  0.845537  0  2.29967  0
Cd  Cd2  1  0.97856539  0.34667711  0.30662532  1  0  1.062746  0  1.802614  0  0  0.881832  0  2.267034  0  0  0.93393  0  2.218599  0  0  0.682327  0.845417  0  2.299742  0
Cd  Cd3  1  0.52143612  0.84668763  0.69337296  1  0  1.062788  0  1.802578  0  0  0.881871  0  2.266993  0  0  0.933969  0  2.218557  0  0  0.682374  0.845455  0  2.2997  0
H  H4  1  0.04006908  0.73035727  0.91622771  1  0  0.13031  0  0.959831  0  0  0.134794  0  1.029701  0  0  0.137484  0  1.028652  0  0  0.110807  0.132837  0  1.030527  0
H  H5  1  0.45990477  0.23037783  0.08377246  1  0  0.130424  0  0.959738  0  0  0.13485  0  1.029655  0  0  0.13754  0  1.028604  0  0  0.110899  0.132893  0  1.030485  0
H  H6  1  0.95992881  0.26962986  0.08376728  1  0  0.130328  0  0.959862  0  0  0.134807  0  1.029726  0  0  0.137498  0  1.028675  0  0  0.110885  0.13285  0  1.030553  0
H  H7  1  0.54007756  0.76964476  0.91623079  1  0  0.13033  0  0.959876  0  0  0.134827  0  1.029711  0  0  0.137519  0  1.028666  0  0  0.110881  0.132872  0  1.030539  0
H  H8  1  0.34127873  0.05351210  0.98723178  1  0  0.154225  0  0.953708  0  0  0.158087  0  1.021342  0  0  0.161859  0  1.018073  0  0  0.118767  0.155282  0  1.023798  0
H  H9  1  0.15866752  0.55352712  0.01277566  1  0  0.154143  0  0.953544  0  0  0.15798  0  1.021218  0  0  0.161751  0  1.017939  0  0  0.118649  0.155172  0  1.023675  0
H  H10  1  0.65869153  0.94648528  0.01276592  1  0  0.154113  0  0.95365  0  0  0.157996  0  1.0213  0  0  0.161757  0  1.018028  0  0  0.118718  0.155189  0  1.023759  0
H  H11  1  0.84129255  0.44648053  0.98723261  1  0  0.154166  0  0.953604  0  0  0.158017  0  1.021287  0  0  0.161792  0  1.018013  0  0  0.118734  0.155211  0  1.023741  0
H  H12  1  0.22362458  0.50748784  0.80888136  1  0  0.089279  0  0.929668  0  0  0.098048  0  0.991022  0  0  0.100543  0  0.988627  0  0  0.117476  0.096172  0  0.992789  0
H  H13  1  0.27636924  0.00748065  0.19111866  1  0  0.089279  0  0.929728  0  0  0.098135  0  0.990979  0  0  0.100634  0  0.98858  0  0  0.117521  0.096258  0  0.992747  0
H  H14  1  0.77636480  0.49250861  0.19111868  1  0  0.089248  0  0.929618  0  0  0.098017  0  0.990983  0  0  0.100513  0  0.988586  0  0  0.117495  0.096139  0  0.992749  0
H  H15  1  0.72362558  0.99251487  0.80888230  1  0  0.089306  0  0.929659  0  0  0.098092  0  0.990994  0  0  0.100589  0  0.988597  0  0  0.117504  0.096218  0  0.992763  0
H  H16  1  0.28863901  0.29068411  0.84521226  1  0  0.104895  0  0.98188  0  0  0.106644  0  1.0551  0  0  0.110283  0  1.05304  0  0  0.099983  0.104058  0  1.056558  0
H  H17  1  0.21134797  0.79067815  0.15478903  1  0  0.104915  0  0.981925  0  0  0.10664  0  1.055176  0  0  0.110281  0  1.053114  0  0  0.099976  0.104052  0  1.056633  0
H  H18  1  0.71135287  0.70931141  0.15479238  1  0  0.104859  0  0.982063  0  0  0.106547  0  1.055356  0  0  0.110189  0  1.053293  0  0  0.099955  0.10396  0  1.056811  0
H  H19  1  0.78864686  0.20931737  0.84521194  1  0  0.104877  0  0.981946  0  0  0.106594  0  1.05521  0  0  0.110235  0  1.053149  0  0  0.099959  0.10401  0  1.056668  0
H  H20  1  0.19593681  0.10870178  0.77748958  1  0  0.101963  0  0.982632  0  0  0.108717  0  1.051444  0  0  0.111694  0  1.049195  0  0  0.099762  0.106431  0  1.053158  0
H  H21  1  0.30406699  0.60869617  0.22251167  1  0  0.102018  0  0.982636  0  0  0.108791  0  1.051418  0  0  0.111769  0  1.049169  0  0  0.099779  0.106509  0  1.053124  0
H  H22  1  0.80406913  0.89129467  0.22250910  1  0  0.102071  0  0.982544  0  0  0.108815  0  1.051351  0  0  0.111792  0  1.049101  0  0  0.099781  0.106527  0  1.053063  0
H  H23  1  0.69593743  0.39130121  0.77748977  1  0  0.102004  0  0.982714  0  0  0.108776  0  1.05149  0  0  0.111753  0  1.049241  0  0  0.099774  0.10649  0  1.053199  0
H  H24  1  0.04755725  0.03334179  0.68336648  1  0  0.119684  0  0.94604  0  0  0.127629  0  1.0112  0  0  0.130405  0  1.009999  0  0  0.102923  0.125478  0  1.012274  0
H  H25  1  0.45246374  0.53333939  0.31663505  1  0  0.119614  0  0.945981  0  0  0.127593  0  1.011134  0  0  0.130371  0  1.00993  0  0  0.102901  0.125434  0  1.012209  0
H  H26  1  0.95245974  0.96665466  0.31663130  1  0  0.119604  0  0.946014  0  0  0.127564  0  1.011194  0  0  0.130342  0  1.009989  0  0  0.102898  0.125412  0  1.012266  0
H  H27  1  0.54754758  0.46665986  0.68336595  1  0  0.119649  0  0.945934  0  0  0.127614  0  1.0111  0  0  0.130393  0  1.009893  0  0  0.102915  0.125459  0  1.012172  0
H  H28  1  0.90098158  0.07917957  0.58409740  1  0  0.091942  0  0.967549  0  0  0.102444  0  1.03226  0  0  0.105076  0  1.031268  0  0  0.095538  0.101244  0  1.031637  0
H  H29  1  0.59904030  0.57917623  0.41590106  1  0  0.091906  0  0.967544  0  0  0.102431  0  1.032219  0  0  0.105044  0  1.03127  0  0  0.095562  0.101237  0  1.031578  0
H  H30  1  0.09902836  0.92082622  0.41590359  1  0  0.091825  0  0.967655  0  0  0.102367  0  1.032325  0  0  0.104992  0  1.031346  0  0  0.095511  0.101173  0  1.031686  0
H  H31  1  0.40097794  0.42082582  0.58409903  1  0  0.091923  0  0.967618  0  0  0.102432  0  1.03232  0  0  0.105063  0  1.031328  0  0  0.095535  0.101233  0  1.03169  0
H  H32  1  0.79701908  0.23811256  0.50574441  1  0  0.095667  0  0.95125  0  0  0.10874  0  1.010632  0  0  0.111093  0  1.008989  0  0  0.105342  0.10684  0  1.01222  0
H  H33  1  0.70299991  0.73811059  0.49425450  1  0  0.095633  0  0.951231  0  0  0.108816  0  1.010495  0  0  0.111169  0  1.008851  0  0  0.105377  0.106917  0  1.012087  0
H  H34  1  0.20299101  0.76187923  0.49425382  1  0  0.095609  0  0.951393  0  0  0.108746  0  1.010707  0  0  0.111099  0  1.009063  0  0  0.10536  0.106849  0  1.012293  0
H  H35  1  0.29702529  0.26189333  0.50574376  1  0  0.095699  0  0.951129  0  0  0.108871  0  1.010415  0  0  0.111224  0  1.008771  0  0  0.105359  0.106968  0  1.012011  0
H  H36  1  0.73327529  0.45948788  0.48040325  1  0  0.103027  0  0.964347  0  0  0.111827  0  1.027034  0  0  0.115062  0  1.025839  0  0  0.099219  0.109575  0  1.027787  0
H  H37  1  0.76673057  0.95948311  0.51959674  1  0  0.102913  0  0.964424  0  0  0.111788  0  1.027043  0  0  0.115021  0  1.025849  0  0  0.099206  0.109536  0  1.027797  0
H  H38  1  0.26672111  0.54050670  0.51959404  1  0  0.102996  0  0.964295  0  0  0.111769  0  1.027042  0  0  0.115001  0  1.025848  0  0  0.099203  0.109517  0  1.027796  0
H  H39  1  0.23329893  0.04052267  0.48039830  1  0  0.103027  0  0.964293  0  0  0.111842  0  1.026957  0  0  0.115075  0  1.025763  0  0  0.099196  0.109591  0  1.027711  0
H  H40  1  0.81646480  0.62657993  0.55893259  1  0  0.066253  0  0.981483  0  0  0.072669  0  1.052967  0  0  0.075196  0  1.050122  0  0  0.101093  0.07073  0  1.055128  0
H  H41  1  0.68352352  0.12656955  0.44106825  1  0  0.066263  0  0.981425  0  0  0.072632  0  1.052949  0  0  0.07515  0  1.050133  0  0  0.101045  0.07069  0  1.055113  0
H  H42  1  0.18351633  0.37341932  0.44106743  1  0  0.066302  0  0.981424  0  0  0.07267  0  1.05296  0  0  0.07519  0  1.05014  0  0  0.101055  0.07073  0  1.055122  0
H  H43  1  0.31649646  0.87343250  0.55892494  1  0  0.066234  0  0.981286  0  0  0.072601  0  1.052837  0  0  0.075124  0  1.050015  0  0  0.101023  0.070661  0  1.055005  0
C  C44  1  0.17595148  0.82686695  0.79698621  1  0  0.669222  0  3.960343  0  0  0.617556  0  4.253215  0  0  0.653589  0  4.244531  0  0  0.199476  0.593239  0  4.25813  0
C  C45  1  0.32405586  0.32687273  0.20301338  1  0  0.669358  0  3.960188  0  0  0.617727  0  4.253064  0  0  0.653759  0  4.24438  0  0  0.19953  0.59341  0  4.257982  0
C  C46  1  0.82405049  0.17312764  0.20300971  1  0  0.669187  0  3.960116  0  0  0.617511  0  4.253102  0  0  0.653542  0  4.244418  0  0  0.19941  0.593192  0  4.258019  0
C  C47  1  0.67595958  0.67313772  0.79698762  1  0  0.668985  0  3.96041  0  0  0.617236  0  4.253413  0  0  0.653272  0  4.244734  0  0  0.199293  0.592919  0  4.258323  0
C  C48  1  0.19702387  0.86595437  0.86246719  1  0  -0.13141  0  3.666754  0  0  -0.111797  0  3.928927  0  0  -0.118941  0  3.947286  0  0  -0.015917  -0.1073  0  3.916678  0
C  C49  1  0.30296771  0.36597162  0.13753755  1  0  -0.131282  0  3.66679  0  0  -0.111801  0  3.929096  0  0  -0.118948  0  3.947457  0  0  -0.015875  -0.107302  0  3.916846  0
C  C50  1  0.80297532  0.13403648  0.13752918  1  0  -0.131334  0  3.666849  0  0  -0.111865  0  3.929216  0  0  -0.119015  0  3.947583  0  0  -0.015788  -0.107362  0  3.91696  0
C  C51  1  0.69703239  0.63404909  0.86246757  1  0  -0.131426  0  3.666865  0  0  -0.111745  0  3.928976  0  0  -0.118891  0  3.947338  0  0  -0.015875  -0.107247  0  3.916725  0
C  C52  1  0.12568987  0.81334166  0.91540380  1  0  -0.106529  0  3.698448  0  0  -0.142496  0  3.955663  0  0  -0.1398  0  3.973896  0  0  -0.086683  -0.143892  0  3.943376  0
C  C53  1  0.37428167  0.31335703  0.08459937  1  0  -0.106572  0  3.698562  0  0  -0.142381  0  3.95589  0  0  -0.13971  0  3.9741  0  0  -0.086731  -0.143785  0  3.943609  0
C  C54  1  0.87430925  0.18664546  0.08459395  1  0  -0.106559  0  3.698637  0  0  -0.142454  0  3.955989  0  0  -0.13978  0  3.974205  0  0  -0.086794  -0.143855  0  3.943703  0
C  C55  1  0.62569241  0.68665715  0.91540386  1  0  -0.106464  0  3.698567  0  0  -0.142447  0  3.955802  0  0  -0.139766  0  3.974054  0  0  -0.086705  -0.143849  0  3.943522  0
C  C56  1  0.17683463  0.88315962  0.96804325  1  0  0.063494  0  3.775981  0  0  0.043649  0  4.03883  0  0  0.037395  0  4.062863  0  0  0.059311  0.047389  0  4.022696  0
C  C57  1  0.32312372  0.38317275  0.03196286  1  0  0.063263  0  3.776388  0  0  0.043103  0  4.039412  0  0  0.03694  0  4.063314  0  0  0.059164  0.046844  0  4.023276  0
C  C58  1  0.82315894  0.11683216  0.03195541  1  0  0.063498  0  3.776099  0  0  0.043361  0  4.039043  0  0  0.037185  0  4.062958  0  0  0.059251  0.047105  0  4.022906  0
C  C59  1  0.67683372  0.61683490  0.96804310  1  0  0.063546  0  3.775983  0  0  0.043552  0  4.038845  0  0  0.037311  0  4.062859  0  0  0.059274  0.047291  0  4.022712  0
C  C60  1  0.28611504  0.98606210  0.95511216  1  0  -0.186855  0  3.635914  0  0  -0.225992  0  3.933337  0  0  -0.222214  0  3.948074  0  0  -0.081517  -0.227787  0  3.923085  0
C  C61  1  0.21383954  0.48607589  0.04489516  1  0  -0.186585  0  3.635583  0  0  -0.225576  0  3.932995  0  0  -0.221818  0  3.947699  0  0  -0.081369  -0.227372  0  3.922746  0
C  C62  1  0.71386896  0.01393155  0.04488557  1  0  -0.186637  0  3.635928  0  0  -0.225758  0  3.933419  0  0  -0.22198  0  3.948112  0  0  -0.081482  -0.227559  0  3.923175  0
C  C63  1  0.78611234  0.51392989  0.95511217  1  0  -0.186657  0  3.635815  0  0  -0.225783  0  3.933259  0  0  -0.222007  0  3.947992  0  0  -0.081438  -0.227581  0  3.923011  0
C  C64  1  0.18532612  0.42665409  0.78126028  1  0  0.148282  0  3.681142  0  0  0.114813  0  3.938586  0  0  0.122948  0  3.955528  0  0  0.057376  0.109495  0  3.927039  0
C  C65  1  0.31467469  0.92664839  0.21874097  1  0  0.148384  0  3.681265  0  0  0.114872  0  3.938669  0  0  0.123002  0  3.955613  0  0  0.057402  0.109559  0  3.927123  0
C  C66  1  0.81466313  0.57334236  0.21874206  1  0  0.148387  0  3.681057  0  0  0.114901  0  3.938523  0  0  0.123042  0  3.955455  0  0  0.05734  0.109585  0  3.926977  0
C  C67  1  0.68532702  0.07334899  0.78125955  1  0  0.14831  0  3.681181  0  0  0.11483  0  3.938594  0  0  0.122963  0  3.955537  0  0  0.057391  0.109508  0  3.927056  0
C  C68  1  0.22042297  0.30436035  0.80147285  1  0  -0.116897  0  3.737028  0  0  -0.130642  0  3.994435  0  0  -0.138399  0  4.017053  0  0  -0.086756  -0.125529  0  3.979032  0
C  C69  1  0.27957768  0.80435271  0.19852713  1  0  -0.116931  0  3.737212  0  0  -0.130691  0  3.994719  0  0  -0.138445  0  4.017333  0  0  -0.086726  -0.125577  0  3.979312  0
C  C70  1  0.77957310  0.69563704  0.19853042  1  0  -0.1168  0  3.737295  0  0  -0.130505  0  3.994694  0  0  -0.138259  0  4.017302  0  0  -0.086694  -0.125392  0  3.979283  0
C  C71  1  0.72042546  0.19564375  0.80147247  1  0  -0.116928  0  3.737249  0  0  -0.130683  0  3.994735  0  0  -0.13844  0  4.017352  0  0  -0.086751  -0.12557  0  3.979332  0
C  C72  1  0.16967791  0.20545041  0.76475876  1  0  -0.044788  0  3.682587  0  0  -0.069669  0  3.928224  0  0  -0.067862  0  3.947452  0  0  -0.066345  -0.070565  0  3.915067  0
C  C73  1  0.33031949  0.70544203  0.23524231  1  0  -0.044893  0  3.682703  0  0  -0.069812  0  3.928407  0  0  -0.068007  0  3.947637  0  0  -0.066385  -0.070706  0  3.915245  0
C  C74  1  0.83031816  0.79454791  0.23524451  1  0  -0.04516  0  3.682922  0  0  -0.070027  0  3.928545  0  0  -0.068221  0  3.947776  0  0  -0.066449  -0.07092  0  3.915378  0
C  C75  1  0.66968220  0.29455442  0.76475867  1  0  -0.044803  0  3.68287  0  0  -0.069704  0  3.928541  0  0  -0.067897  0  3.947772  0  0  -0.066336  -0.070595  0  3.915375  0
C  C76  1  0.08342937  0.22853282  0.70810850  1  0  0.022884  0  3.788688  0  0  0.043691  0  4.01268  0  0  0.041041  0  4.036822  0  0  -0.001115  0.045225  0  3.996497  0
C  C77  1  0.41658582  0.72852843  0.29188990  1  0  0.023048  0  3.78837  0  0  0.043862  0  4.012429  0  0  0.041211  0  4.036571  0  0  -0.001079  0.045395  0  3.996243  0
C  C78  1  0.91658751  0.77146643  0.29189113  1  0  0.023217  0  3.788592  0  0  0.044003  0  4.012556  0  0  0.041349  0  4.036706  0  0  -0.000978  0.045536  0  3.99637  0
C  C79  1  0.58342419  0.27146895  0.70810971  1  0  0.022997  0  3.788564  0  0  0.043789  0  4.012576  0  0  0.041136  0  4.03672  0  0  -0.001044  0.04532  0  3.996397  0
C  C80  1  0.02583092  0.12947452  0.66862848  1  0  -0.076313  0  3.696701  0  0  -0.102736  0  3.952955  0  0  -0.104749  0  3.975433  0  0  -0.081967  -0.101143  0  3.937567  0
C  C81  1  0.47419894  0.62947499  0.33137012  1  0  -0.076232  0  3.696535  0  0  -0.102647  0  3.952706  0  0  -0.104658  0  3.975184  0  0  -0.081896  -0.101044  0  3.937308  0
C  C82  1  0.97418170  0.87052007  0.33137390  1  0  -0.076285  0  3.696572  0  0  -0.102713  0  3.952794  0  0  -0.104728  0  3.975275  0  0  -0.081919  -0.101114  0  3.9374  0
C  C83  1  0.52582489  0.37052426  0.66862813  1  0  -0.076296  0  3.696516  0  0  -0.102745  0  3.952783  0  0  -0.10476  0  3.975263  0  0  -0.081985  -0.101149  0  3.937386  0
C  C84  1  0.94504866  0.15524955  0.61372733  1  0  -0.107519  0  3.761526  0  0  -0.130202  0  4.021155  0  0  -0.134456  0  4.045032  0  0  -0.090191  -0.127307  0  4.003879  0
C  C85  1  0.55498502  0.65525168  0.38626861  1  0  -0.107459  0  3.76158  0  0  -0.130141  0  4.021253  0  0  -0.1344  0  4.045126  0  0  -0.090297  -0.127246  0  4.003979  0
C  C86  1  0.05498340  0.84474783  0.38627140  1  0  -0.107329  0  3.761651  0  0  -0.13003  0  4.021278  0  0  -0.134283  0  4.045154  0  0  -0.090241  -0.127138  0  4.004009  0
C  C87  1  0.44504581  0.34475131  0.61372736  1  0  -0.107611  0  3.761703  0  0  -0.130273  0  4.021343  0  0  -0.134527  0  4.045222  0  0  -0.090239  -0.127376  0  4.004061  0
C  C88  1  0.91475848  0.28106036  0.59445049  1  0  0.019489  0  3.801273  0  0  0.035365  0  4.033909  0  0  0.033141  0  4.058427  0  0  -0.004397  0.036738  0  4.017387  0
C  C89  1  0.58525737  0.78105790  0.40554808  1  0  0.019325  0  3.801676  0  0  0.035223  0  4.034242  0  0  0.033001  0  4.058756  0  0  -0.004341  0.036597  0  4.017727  0
C  C90  1  0.08525133  0.71893609  0.40555280  1  0  0.01923  0  3.801587  0  0  0.035153  0  4.034161  0  0  0.032928  0  4.058677  0  0  -0.004321  0.036527  0  4.017647  0
C  C91  1  0.41476503  0.21894415  0.59445110  1  0  0.019608  0  3.80136  0  0  0.035486  0  4.034016  0  0  0.033262  0  4.058533  0  0  -0.004392  0.036859  0  4.017491  0
C  C92  1  0.83269916  0.31190102  0.53795261  1  0  -0.042261  0  3.693635  0  0  -0.065902  0  3.940141  0  0  -0.063715  0  3.958648  0  0  -0.06371  -0.067257  0  3.927879  0
C  C93  1  0.66732470  0.81189697  0.46204515  1  0  -0.042332  0  3.693589  0  0  -0.066108  0  3.940187  0  0  -0.063918  0  3.958694  0  0  -0.063836  -0.067464  0  3.927925  0
C  C94  1  0.16732183  0.68809077  0.46204749  1  0  -0.042218  0  3.693888  0  0  -0.065942  0  3.940397  0  0  -0.063751  0  3.958897  0  0  -0.063761  -0.067297  0  3.928139  0
C  C95  1  0.33269776  0.18810508  0.53795311  1  0  -0.042412  0  3.693686  0  0  -0.066152  0  3.940231  0  0  -0.063964  0  3.95874  0  0  -0.063754  -0.067506  0  3.92796  0
C  C96  1  0.79662174  0.43510463  0.52394022  1  0  -0.121693  0  3.751471  0  0  -0.132948  0  4.004007  0  0  -0.139773  0  4.025469  0  0  -0.087922  -0.128571  0  3.989819  0
C  C97  1  0.70338998  0.93510058  0.47605741  1  0  -0.121394  0  3.751274  0  0  -0.132708  0  4.003834  0  0  -0.139532  0  4.025299  0  0  -0.087824  -0.128328  0  3.989644  0
C  C98  1  0.20338285  0.56488716  0.47605801  1  0  -0.121521  0  3.751526  0  0  -0.132761  0  4.004072  0  0  -0.139583  0  4.025533  0  0  -0.087899  -0.128382  0  3.989882  0
C  C99  1  0.29662563  0.06490241  0.52394037  1  0  -0.121551  0  3.751319  0  0  -0.132783  0  4.003799  0  0  -0.139607  0  4.025265  0  0  -0.08782  -0.128404  0  3.989607  0
C  C100  1  0.84400648  0.52775873  0.56663780  1  0  0.140097  0  3.726749  0  0  0.107808  0  3.981078  0  0  0.115442  0  3.999355  0  0  0.051818  0.102929  0  3.968552  0
C  C101  1  0.65600073  0.02775025  0.43336140  1  0  0.140038  0  3.726679  0  0  0.107797  0  3.981028  0  0  0.115423  0  3.999303  0  0  0.051833  0.102917  0  3.968502  0
C  C102  1  0.15599669  0.47224239  0.43336134  1  0  0.139968  0  3.726974  0  0  0.107725  0  3.981262  0  0  0.115351  0  3.999536  0  0  0.051844  0.10285  0  3.968732  0
C  C103  1  0.34402870  0.97225087  0.56663503  1  0  0.140066  0  3.726557  0  0  0.107806  0  3.980858  0  0  0.115433  0  3.999134  0  0  0.051799  0.102921  0  3.968338  0
C  C104  1  0.96365465  0.38160893  0.63384434  1  0  0.137579  0  3.737865  0  0  0.13105  0  3.97493  0  0  0.135903  0  3.996076  0  0  0.119579  0.12789  0  3.960427  0
C  C105  1  0.53635465  0.88160531  0.36615636  1  0  0.137591  0  3.737997  0  0  0.131129  0  3.974924  0  0  0.135984  0  3.996065  0  0  0.119608  0.127966  0  3.960429  0
C  C106  1  0.03634989  0.61839125  0.36615481  1  0  0.137662  0  3.737861  0  0  0.131097  0  3.974879  0  0  0.135952  0  3.996022  0  0  0.119503  0.127934  0  3.960383  0
C  C107  1  0.46366084  0.11839581  0.63384373  1  0  0.137482  0  3.738122  0  0  0.130899  0  3.975191  0  0  0.135752  0  3.99634  0  0  0.119547  0.12774  0  3.960686  0
C  C108  1  0.05236458  0.35487088  0.69152123  1  0  0.128394  0  3.756164  0  0  0.122503  0  3.989883  0  0  0.126889  0  4.011708  0  0  0.116177  0.119494  0  3.975267  0
C  C109  1  0.44763003  0.85487027  0.30848026  1  0  0.128279  0  3.756222  0  0  0.12236  0  3.989946  0  0  0.126744  0  4.011771  0  0  0.11611  0.119353  0  3.975335  0
C  C110  1  0.94764134  0.64512837  0.30847791  1  0  0.128164  0  3.756281  0  0  0.122332  0  3.98991  0  0  0.126717  0  4.011739  0  0  0.116102  0.119321  0  3.975301  0
C  C111  1  0.55237444  0.14512711  0.69152027  1  0  0.128308  0  3.756346  0  0  0.122492  0  3.989959  0  0  0.126879  0  4.011783  0  0  0.116109  0.11948  0  3.975344  0
S  S112  1  0.32663776  0.99760937  0.87856195  1  0  0.269744  0  2.668327  0  0  0.267696  0  3.011095  0  0  0.268134  0  3.016673  0  0  0.156735  0.267114  0  3.007523  0
S  S113  1  0.17333453  0.49762330  0.12144636  1  0  0.269597  0  2.668118  0  0  0.267557  0  3.01094  0  0  0.267997  0  3.016519  0  0  0.156658  0.266968  0  3.007366  0
S  S114  1  0.67334627  0.00238709  0.12143532  1  0  0.269798  0  2.668357  0  0  0.267809  0  3.011173  0  0  0.268249  0  3.016748  0  0  0.156771  0.267224  0  3.007598  0
S  S115  1  0.82664748  0.50238902  0.87856287  1  0  0.269697  0  2.668325  0  0  0.267636  0  3.011071  0  0  0.268073  0  3.016653  0  0  0.156669  0.267053  0  3.007497  0
N  N116  1  0.92678318  0.50175833  0.61923977  1  0  -0.343784  0  3.25897  0  0  -0.273574  0  3.518197  0  0  -0.292885  0  3.538244  0  0  -0.320519  -0.260795  0  3.50374  0
N  N117  1  0.57321875  0.00175522  0.38075981  1  0  -0.343806  0  3.258975  0  0  -0.273626  0  3.518171  0  0  -0.292935  0  3.538219  0  0  -0.320546  -0.260845  0  3.503715  0
N  N118  1  0.07321864  0.49823999  0.38075890  1  0  -0.343734  0  3.258928  0  0  -0.273537  0  3.518169  0  0  -0.292848  0  3.538219  0  0  -0.320455  -0.260755  0  3.503711  0
N  N119  1  0.42679961  0.99824590  0.61923798  1  0  -0.343737  0  3.25895  0  0  -0.273516  0  3.518168  0  0  -0.292826  0  3.538217  0  0  -0.320467  -0.260735  0  3.503712  0
N  N120  1  0.10285626  0.45082644  0.72821920  1  0  -0.342626  0  3.249164  0  0  -0.274979  0  3.5139  0  0  -0.294027  0  3.53306  0  0  -0.322961  -0.262213  0  3.501026  0
N  N121  1  0.39714988  0.95082191  0.27178121  1  0  -0.342675  0  3.249235  0  0  -0.27502  0  3.513968  0  0  -0.294067  0  3.533132  0  0  -0.32301  -0.262266  0  3.501105  0
N  N122  1  0.89713719  0.54917374  0.27178177  1  0  -0.342549  0  3.249008  0  0  -0.274929  0  3.513783  0  0  -0.293959  0  3.532897  0  0  -0.322921  -0.262167  0  3.500912  0
N  N123  1  0.60285459  0.04917268  0.72821931  1  0  -0.342639  0  3.249252  0  0  -0.274969  0  3.513914  0  0  -0.294018  0  3.533076  0  0  -0.322938  -0.262199  0  3.501044  0
N  N124  1  0.11986803  0.85381588  0.02998670  1  0  0.477428  0  3.968557  0  0  0.538912  0  4.219517  0  0  0.560814  0  4.227251  0  0  0.049889  0.524257  0  4.214276  0
N  N125  1  0.38007977  0.35383780  0.97001654  1  0  0.476972  0  3.969408  0  0  0.539059  0  4.219714  0  0  0.56094  0  4.22744  0  0  0.050001  0.524405  0  4.214469  0
N  N126  1  0.88011183  0.14618057  0.97001148  1  0  0.476789  0  3.969287  0  0  0.538922  0  4.219511  0  0  0.560805  0  4.227235  0  0  0.049873  0.524271  0  4.214268  0
N  N127  1  0.61987088  0.64617918  0.02998803  1  0  0.47703  0  3.968841  0  0  0.538909  0  4.21933  0  0  0.56081  0  4.22705  0  0  0.049966  0.524255  0  4.21409  0
Cl  Cl128  1  0.84611241  0.82396139  0.63427765  1  0  -0.579572  0  0.935168  0  0  -0.516841  0  1.222752  0  0  -0.534891  0  1.19793  0  0  -0.29753  -0.504111  0  1.238858  0
Cl  Cl129  1  0.65389629  0.32395867  0.36571874  1  0  -0.579582  0  0.935228  0  0  -0.516842  0  1.222789  0  0  -0.534884  0  1.197962  0  0  -0.297513  -0.504117  0  1.238897  0
Cl  Cl130  1  0.15389101  0.17603039  0.36571689  1  0  -0.579562  0  0.935206  0  0  -0.516829  0  1.2228  0  0  -0.53487  0  1.197964  0  0  -0.297507  -0.504101  0  1.238908  0
Cl  Cl131  1  0.34611522  0.67604618  0.63427858  1  0  -0.579585  0  0.935194  0  0  -0.516832  0  1.222756  0  0  -0.534883  0  1.197937  0  0  -0.297542  -0.504106  0  1.238869  0
O  O132  1  0.23791082  0.89981601  0.75578473  1  0  -0.643049  0  1.989574  0  0  -0.589981  0  2.243392  0  0  -0.614648  0  2.230588  0  0  -0.331618  -0.572362  0  2.2515  0
O  O133  1  0.26210794  0.39981790  0.24421970  1  0  -0.643059  0  1.989473  0  0  -0.589978  0  2.243252  0  0  -0.614645  0  2.230451  0  0  -0.33163  -0.572361  0  2.251357  0
O  O134  1  0.76209237  0.10018138  0.24421395  1  0  -0.643018  0  1.98958  0  0  -0.589932  0  2.243423  0  0  -0.614597  0  2.23062  0  0  -0.331605  -0.572314  0  2.251527  0
O  O135  1  0.73791552  0.60018789  0.75578546  1  0  -0.642936  0  1.989627  0  0  -0.589861  0  2.243508  0  0  -0.614528  0  2.230705  0  0  -0.331555  -0.572243  0  2.251608  0
O  O136  1  0.09451390  0.72283983  0.78872919  1  0  -0.623651  0  2.029018  0  0  -0.553628  0  2.278272  0  0  -0.584542  0  2.2696  0  0  -0.324509  -0.532048  0  2.28355  0
O  O137  1  0.40549313  0.22284533  0.21126872  1  0  -0.623779  0  2.028788  0  0  -0.553799  0  2.278108  0  0  -0.58471  0  2.269431  0  0  -0.324559  -0.532213  0  2.283373  0
O  O138  1  0.90549487  0.27715103  0.21126812  1  0  -0.62372  0  2.028789  0  0  -0.553661  0  2.278057  0  0  -0.584606  0  2.269452  0  0  -0.324535  -0.532071  0  2.283306  0
O  O139  1  0.59452520  0.77716512  0.78872953  1  0  -0.623554  0  2.028903  0  0  -0.553497  0  2.278187  0  0  -0.58442  0  2.269525  0  0  -0.324441  -0.531913  0  2.283447  0
O  O140  1  0.16132152  0.92809708  0.07165344  1  0  -0.355612  0  1.757354  0  0  -0.346305  0  1.950742  0  0  -0.357603  0  1.948011  0  0  -0.131992  -0.338737  0  1.952817  0
O  O141  1  0.33864326  0.42813458  0.92835327  1  0  -0.355364  0  1.757261  0  0  -0.346353  0  1.950549  0  0  -0.357628  0  1.947763  0  0  -0.131892  -0.338788  0  1.95264  0
O  O142  1  0.83867056  0.07188631  0.92834752  1  0  -0.355349  0  1.757299  0  0  -0.3463  0  1.950503  0  0  -0.357596  0  1.947754  0  0  -0.131956  -0.338732  0  1.95258  0
O  O143  1  0.66131006  0.57188707  0.07165268  1  0  -0.35546  0  1.757246  0  0  -0.346289  0  1.950446  0  0  -0.357621  0  1.947768  0  0  -0.132016  -0.338722  0  1.952519  0
O  O144  1  0.03034086  0.75578160  0.03889111  1  0  -0.374105  0  1.742965  0  0  -0.366871  0  1.940447  0  0  -0.379494  0  1.937454  0  0  -0.14797  -0.358299  0  1.942548  0
O  O145  1  0.46958600  0.25579741  0.96110951  1  0  -0.373788  0  1.743281  0  0  -0.366751  0  1.940527  0  0  -0.379379  0  1.937542  0  0  -0.148091  -0.358193  0  1.942645  0
O  O146  1  0.96963235  0.24421485  0.96110291  1  0  -0.373864  0  1.743402  0  0  -0.366775  0  1.94057  0  0  -0.379406  0  1.937586  0  0  -0.147976  -0.35821  0  1.94268  0
O  O147  1  0.53035085  0.74421584  0.03889595  1  0  -0.373978  0  1.743271  0  0  -0.366844  0  1.940562  0  0  -0.379461  0  1.937566  0  0  -0.148018  -0.358274  0  1.942665  0
