# generated using pymatgen
data_Cu2H11(C3N5)3
_symmetry_space_group_name_H-M   'P 1'
_cell_length_a   7.58635081
_cell_length_b   8.68191801
_cell_length_c   12.97493042
_cell_angle_alpha   83.56744261
_cell_angle_beta   78.95275273
_cell_angle_gamma   71.95603114
_symmetry_Int_Tables_number   1
_chemical_formula_structural   Cu2H11(C3N5)3
_chemical_formula_sum   'Cu4 H22 C18 N30'
_cell_volume   796.22396320
_cell_formula_units_Z   2
loop_
 _symmetry_equiv_pos_site_id
 _symmetry_equiv_pos_as_xyz
  1  'x, y, z'
loop_
 _atom_site_type_symbol
 _atom_site_label
 _atom_site_symmetry_multiplicity
 _atom_site_fract_x
 _atom_site_fract_y
 _atom_site_fract_z
 _atom_site_occupancy
 _atom_site_hle17_ddec_charge
 _atom_site_hle17_ddec_spin_density
 _atom_site_hle17_ddec_sum_bond_order
 _atom_site_hle17_magmom
 _atom_site_hse06_10hf_bader_charge
 _atom_site_hse06_10hf_bader_spin_density
 _atom_site_hse06_10hf_ddec_charge
 _atom_site_hse06_10hf_ddec_spin_density
 _atom_site_hse06_10hf_ddec_sum_bond_order
 _atom_site_hse06_10hf_magmom
 _atom_site_hse06_ddec_charge
 _atom_site_hse06_ddec_spin_density
 _atom_site_hse06_ddec_sum_bond_order
 _atom_site_hse06_magmom
 _atom_site_pbe_cm5_charge
 _atom_site_pbe_ddec_charge
 _atom_site_pbe_ddec_spin_density
 _atom_site_pbe_ddec_sum_bond_order
 _atom_site_pbe_magmom
Cu  Cu0  1  0.16690902  0.03958225  0.91316794  1  0.762953  -0.5096  1.973264  -0.381  1.054415  -0.571874  0.756141  -0.712865  2.383001  -0.571  0.845148  -0.817352  2.317378  -0.671  0.761382  0.700931  -0.588545  2.42899  -0.467
Cu  Cu1  1  0.83309481  0.96041459  0.08683413  1  0.763156  0.509652  1.973351  0.381  1.05438  0.571882  0.756174  0.712871  2.383106  0.571  0.845241  0.81736  2.317415  0.671  0.761405  0.700982  0.588592  2.429075  0.467
Cu  Cu2  1  0.30506349  0.54595029  0.58276158  1  0.758894  0.513083  1.980301  0.383  1.05141  0.572714  0.753734  0.71496  2.390116  0.572  0.843565  0.819237  2.323661  0.672  0.759324  0.696  0.596556  2.438225  0.473
Cu  Cu3  1  0.69492800  0.45405503  0.41724054  1  0.758817  -0.513086  1.980395  -0.383  1.051553  -0.572708  0.753768  -0.714957  2.390155  -0.572  0.843533  -0.819232  2.323763  -0.672  0.759326  0.696021  -0.596538  2.438262  -0.473
H  H4  1  0.47531621  0.68027557  0.89381754  1  0.101047  0.000101  0.98746  0.0  0.134073  -0.000369  0.108525  -5.2e-05  1.054173  -0.001  0.111054  -1.1e-05  1.052861  -0.001  0.115978  0.106357  -8.1e-05  1.05552  -0.001
H  H5  1  0.52469431  0.31972493  0.10617883  1  0.101079  -9.8e-05  0.987464  0.0  0.134236  0.000369  0.108526  5.2e-05  1.05423  0.001  0.111054  1.1e-05  1.052921  0.001  0.115995  0.106357  8.1e-05  1.055574  0.001
H  H6  1  0.85180537  0.65700906  0.83387735  1  0.10495  -0.000587  0.976245  -0.001  0.128035  -0.001126  0.113177  -0.000597  1.040385  -0.001  0.11558  -0.000478  1.039978  0.0  0.117592  0.111491  -0.000618  1.040649  -0.001
H  H7  1  0.14820526  0.34299144  0.16612362  1  0.104946  0.000584  0.976266  0.001  0.128111  0.001126  0.113143  0.000597  1.040445  0.001  0.115545  0.000478  1.040032  0.0  0.117574  0.111454  0.000618  1.040714  0.001
H  H8  1  0.53781480  0.15247750  0.85065937  1  0.092648  7.7e-05  0.963353  0.0  0.173566  -0.000234  0.100637  3.7e-05  1.029041  0.0  0.103018  3.1e-05  1.026753  0.0  0.132575  0.098798  3.1e-05  1.030773  0.0
H  H9  1  0.46218886  0.84752298  0.14933165  1  0.092621  -8.6e-05  0.963389  0.0  0.17356  0.000233  0.100605  -3.7e-05  1.029089  0.0  0.102983  -3.1e-05  1.026814  0.0  0.132519  0.098764  -3.1e-05  1.030822  0.0
H  H10  1  0.17336356  0.38011334  0.97786670  1  0.088859  0.000377  1.004289  0.0  0.128717  8.1e-05  0.093968  0.000148  1.07622  0.0  0.095312  0.000154  1.07638  0.0  0.104812  0.092366  0.000107  1.077042  0.0
H  H11  1  0.82665587  0.61988110  0.02213369  1  0.088856  -0.00038  1.00426  0.0  0.128883  -8.2e-05  0.093974  -0.000149  1.076196  0.0  0.095318  -0.000154  1.076355  0.0  0.104796  0.092371  -0.000107  1.077017  0.0
H  H12  1  0.24170594  0.61294511  0.82420756  1  0.09556  -0.000413  0.985347  0.0  0.113192  -0.000219  0.103295  -0.000166  1.049727  0.0  0.103907  -0.000135  1.050863  0.0  0.109335  0.102267  -0.000182  1.049556  0.0
H  H13  1  0.75830336  0.38705174  0.17579848  1  0.095523  0.000412  0.985428  0.0  0.113132  0.000219  0.10324  0.000165  1.049829  0.0  0.10385  0.000135  1.050968  0.0  0.10931  0.102212  0.000182  1.049656  0.0
H  H14  1  0.21165306  0.21190930  0.67920018  1  0.074207  -8.6e-05  0.970629  0.0  0.122176  -0.000184  0.076031  -0.000139  1.048046  0.0  0.076316  -0.000131  1.047068  0.0  0.11773  0.075576  -0.000135  1.048928  0.0
H  H15  1  0.78834909  0.78809239  0.32080172  1  0.074254  7.9e-05  0.970691  0.0  0.122257  0.000185  0.076051  0.00014  1.048125  0.0  0.076338  0.000131  1.047142  0.0  0.117735  0.075596  0.000135  1.049008  0.0
H  H16  1  0.07955869  0.87084487  0.46807149  1  0.098835  3.3e-05  0.982002  0.0  0.137654  0.000658  0.107369  0.000224  1.04505  0.001  0.108935  0.000156  1.045554  0.001  0.117342  0.106058  0.000248  1.044889  0.001
H  H17  1  0.92042429  0.12916164  0.53193001  1  0.098738  -3.6e-05  0.981979  0.0  0.137214  -0.000659  0.10729  -0.000224  1.044999  -0.001  0.108855  -0.000156  1.045505  -0.001  0.11734  0.10598  -0.000248  1.044842  -0.001
H  H18  1  0.68982708  0.96667077  0.49772851  1  0.111067  0.000391  0.960478  0.001  0.135049  0.000934  0.120282  0.000422  1.019833  0.001  0.123272  0.000331  1.01805  0.0  0.119451  0.117883  0.000441  1.021455  0.001
H  H19  1  0.31015076  0.03332360  0.50227764  1  0.111155  -0.000385  0.960419  -0.001  0.135082  -0.000934  0.120359  -0.000423  1.019768  -0.001  0.123347  -0.000332  1.017988  0.0  0.119437  0.117965  -0.000441  1.021384  -0.001
H  H20  1  0.88586614  0.51195488  0.66119089  1  0.090713  -5.7e-05  0.953173  0.0  0.148775  0.000206  0.100185  -3.1e-05  1.017208  0.0  0.102782  -3.4e-05  1.014352  0.0  0.135219  0.097999  -2.3e-05  1.019467  0.0
H  H21  1  0.11413082  0.48803831  0.33880920  1  0.090703  6.6e-05  0.953196  0.0  0.148764  -0.000206  0.100185  3.1e-05  1.017198  0.0  0.102774  3.3e-05  1.014352  0.0  0.135223  0.097999  2.3e-05  1.019462  0.0
H  H22  1  0.86724003  0.94662174  0.80753923  1  0.300003  -0.00027  0.940239  -0.001  0.546013  -0.000444  0.27861  -0.00031  1.010279  -0.001  0.28631  -0.000276  1.004216  0.0  0.307588  0.273101  -0.000291  1.014723  -0.001
H  H23  1  0.13276520  0.05338240  0.19245671  1  0.299982  0.00027  0.940262  0.001  0.546088  0.000444  0.278626  0.00031  1.010259  0.001  0.286327  0.000276  1.004199  0.0  0.30758  0.273158  0.000291  1.014648  0.001
H  H24  1  0.59266033  0.74094971  0.61470699  1  0.297986  0.000304  0.950897  0.001  0.570174  0.00046  0.27724  0.000361  1.018856  0.001  0.285553  0.000322  1.012494  0.0  0.303832  0.271265  0.000346  1.023475  0.001
H  H25  1  0.40733393  0.25903983  0.38529680  1  0.297881  -0.000305  0.950984  -0.001  0.569862  -0.000461  0.277102  -0.000362  1.019012  -0.001  0.285411  -0.000322  1.012657  0.0  0.303767  0.271127  -0.000345  1.023627  -0.001
C  C26  1  0.54135620  0.77608909  0.87592268  1  -0.016708  -0.000809  3.740901  -0.001  0.434548  -0.001462  -0.04642  -0.001702  4.006934  -0.002  -0.043314  -0.000924  4.028167  -0.001  -0.013626  -0.048486  -0.002015  3.993356  -0.002
C  C27  1  0.45865701  0.22390777  0.12407749  1  -0.016654  0.000791  3.740721  0.001  0.434314  0.001462  -0.046359  0.001702  4.006702  0.002  -0.043253  0.000924  4.027938  0.001  -0.013607  -0.048425  0.002015  3.99312  0.002
C  C28  1  0.72914511  0.76203905  0.84598393  1  -0.010538  -0.003446  3.700988  -0.004  0.294375  -0.003995  -0.043886  -0.002647  3.956425  -0.003  -0.042509  -0.002299  3.974088  -0.003  -0.001492  -0.044559  -0.002616  3.944409  -0.003
C  C29  1  0.27086722  0.23796024  0.15401462  1  -0.010458  0.003456  3.700969  0.004  0.294293  0.003995  -0.043789  0.002648  3.956402  0.003  -0.042406  0.002298  3.974062  0.003  -0.001411  -0.044465  0.002616  3.944394  0.003
C  C30  1  0.56829059  0.02188216  0.85433805  1  0.218789  0.003708  3.658028  0.004  0.997526  0.002719  0.160846  0.001217  3.931444  0.001  0.177308  0.001989  3.944093  0.002  0.135485  0.150459  0.000586  3.922826  0.001
C  C31  1  0.43171193  0.97811832  0.14566159  1  0.218898  -0.003679  3.658081  -0.004  0.997857  -0.00272  0.16093  -0.001217  3.931504  -0.001  0.17739  -0.001988  3.944152  -0.002  0.13554  0.150544  -0.000585  3.922889  -0.001
C  C32  1  0.18970374  0.38014471  0.89312360  1  -0.034408  0.001941  3.779239  0.002  0.33809  0.002045  -0.057128  0.000654  4.036032  0.001  -0.052974  0.001153  4.056634  0.001  -0.024523  -0.060441  0.000219  4.023901  0.0
C  C33  1  0.81029791  0.61985456  0.10687855  1  -0.034378  -0.001929  3.779231  -0.002  0.337988  -0.002046  -0.057117  -0.000655  4.035988  -0.001  -0.052966  -0.001152  4.056591  -0.001  -0.024505  -0.060429  -0.00022  4.023859  0.0
C  C34  1  0.22509834  0.49545777  0.81680256  1  -0.032667  -0.002646  3.767656  -0.003  0.338917  -0.002964  -0.057056  -0.001333  4.026704  -0.002  -0.054152  -0.001809  4.049268  -0.002  -0.025366  -0.059035  -0.000917  4.012625  -0.001
C  C35  1  0.77489540  0.50454513  0.18320256  1  -0.032616  0.002643  3.767913  0.003  0.339054  0.002964  -0.05698  0.001332  4.026949  0.002  -0.054073  0.00181  4.049507  0.002  -0.025346  -0.058962  0.000916  4.012869  0.001
C  C36  1  0.21172950  0.28918777  0.73928456  1  0.181886  -0.000563  3.7301  0.0  0.978169  -6.9e-05  0.139215  5.2e-05  4.008074  0.0  0.156133  0.000146  4.025813  0.001  0.10757  0.128337  -0.000162  3.996381  0.0
C  C37  1  0.78826242  0.71081998  0.26071424  1  0.181907  0.000603  3.730172  0.0  0.977712  7e-05  0.139252  -5.3e-05  4.008125  0.0  0.156172  -0.000146  4.02586  -0.001  0.107597  0.128374  0.000162  3.996435  0.0
C  C38  1  0.98192204  0.80993874  0.51221670  1  -0.011538  0.000405  3.750982  0.0  0.4973  0.001065  -0.039732  0.001454  4.013472  0.002  -0.036655  0.000698  4.036156  0.001  -0.010946  -0.041667  0.001785  3.998859  0.002
C  C39  1  0.01806184  0.19006535  0.48778720  1  -0.011362  -0.000395  3.750743  0.0  0.497614  -0.001064  -0.039493  -0.001454  4.013182  -0.002  -0.036413  -0.000697  4.035859  -0.001  -0.010979  -0.041436  -0.001785  3.998577  -0.002
C  C40  1  0.78883731  0.85821116  0.52618903  1  -0.015627  0.002602  3.688493  0.003  0.217631  0.003336  -0.045744  0.002079  3.937367  0.002  -0.044553  0.001863  3.954846  0.002  -0.002127  -0.046752  0.002007  3.926453  0.002
C  C41  1  0.21114414  0.14178443  0.47381659  1  -0.01571  -0.002607  3.688233  -0.003  0.217554  -0.003335  -0.045789  -0.002079  3.937133  -0.002  -0.044598  -0.001863  3.954613  -0.002  -0.001978  -0.046798  -0.002008  3.926216  -0.002
C  C42  1  0.88754231  0.62102264  0.61193134  1  0.216638  -0.004059  3.661371  -0.004  1.030936  -0.002712  0.160044  -0.001162  3.936248  -0.001  0.176487  -0.001884  3.948641  -0.002  0.139874  0.149558  -0.000595  3.928283  -0.001
C  C43  1  0.11245481  0.37897419  0.38807153  1  0.216717  0.00402  3.661339  0.004  1.031122  0.002713  0.160213  0.001163  3.936188  0.001  0.176665  0.001884  3.948582  0.002  0.139955  0.149723  0.000596  3.928226  0.001
N  N44  1  0.89342926  0.13632220  0.97886689  1  -0.52834  -0.013228  2.875307  -0.017  -0.340642  -0.008338  -0.57909  -0.005484  3.275683  -0.007  -0.636612  -0.003666  3.292133  -0.005  -0.354703  -0.541865  -0.005488  3.264809  -0.007
N  N45  1  0.10656679  0.86366977  0.02113417  1  -0.528296  0.013184  2.875426  0.017  -0.340593  0.008334  -0.579022  0.005481  3.275812  0.007  -0.63654  0.003667  3.292262  0.005  -0.354646  -0.541804  0.005476  3.264944  0.007
N  N46  1  0.79633104  0.27008998  0.95275389  1  0.39453  0.003719  4.11338  0.006  -0.339247  -0.000474  0.44392  1.2e-05  4.41777  0.001  0.464972  0.000534  4.455485  0.002  0.101484  0.430781  -0.00052  4.389083  0.0
N  N47  1  0.20367456  0.72990929  0.04724470  1  0.394463  -0.003726  4.113357  -0.006  -0.290981  0.000418  0.443825  -1e-05  4.417788  -0.001  0.464878  -0.000534  4.455502  -0.002  0.101351  0.430687  0.000528  4.389101  0.0
N  N48  1  0.70553549  0.39767087  0.92746379  1  -0.260192  -0.015344  2.364054  -0.018  0.104711  -0.010527  -0.283008  -0.00633  2.600203  -0.007  -0.294586  -0.005562  2.614329  -0.007  -0.117534  -0.271842  -0.006206  2.588013  -0.007
N  N49  1  0.29448979  0.60232966  0.07253080  1  -0.260188  0.015366  2.363929  0.018  0.056417  0.010576  -0.283002  0.006324  2.600104  0.007  -0.29458  0.005555  2.614229  0.007  -0.117469  -0.271816  0.006174  2.587882  0.007
N  N50  1  0.11217974  0.94093221  0.76382289  1  -0.496933  -0.001615  2.610624  -0.003  -0.160056  -0.000976  -0.493689  -0.000765  2.887051  -0.002  -0.507165  -0.000885  2.889658  -0.002  -0.25085  -0.485016  -0.000665  2.885929  -0.002
N  N51  1  0.88782642  0.05907679  0.23616949  1  -0.49703  0.001642  2.610613  0.003  -0.159605  0.000975  -0.49374  0.000764  2.887101  0.002  -0.507215  0.000889  2.889679  0.002  -0.250863  -0.485081  0.000667  2.885973  0.002
N  N52  1  0.22958401  0.86079262  0.70147195  1  0.408883  0.000186  4.239921  0.0  -0.381283  6.2e-05  0.450992  2.5e-05  4.521238  0.0  0.468272  4.2e-05  4.548739  0.0  0.078754  0.439889  1e-06  4.5017  0.0
N  N53  1  0.77042025  0.13921029  0.29852266  1  0.408998  -0.000173  4.239672  0.0  -0.381749  -6.2e-05  0.450999  -2.4e-05  4.521108  0.0  0.468282  -4.3e-05  4.54861  0.0  0.078722  0.439897  -1e-06  4.50157  0.0
N  N54  1  0.34660981  0.78018770  0.63832600  1  -0.534086  0.000416  2.620078  0.001  -0.239381  0.000741  -0.534701  0.000629  2.898516  0.002  -0.551582  0.000855  2.901853  0.002  -0.273746  -0.522037  0.000246  2.895896  0.001
N  N55  1  0.65339119  0.21980914  0.36167025  1  -0.534084  -0.000455  2.619854  -0.001  -0.239433  -0.000741  -0.534624  -0.000629  2.898302  -0.002  -0.551497  -0.000859  2.901638  -0.002  -0.2737  -0.521965  -0.000245  2.895682  -0.001
N  N56  1  0.44233289  0.93910445  0.88111968  1  -0.372964  -0.053174  3.352223  -0.069  -1.230655  -0.076316  -0.327051  -0.049851  3.666713  -0.068  -0.360347  -0.044026  3.688203  -0.062  -0.385056  -0.306546  -0.047293  3.653962  -0.063
N  N57  1  0.55767489  0.06089240  0.11887884  1  -0.373034  0.053178  3.352334  0.069  -1.23071  0.076328  -0.327079  0.049858  3.666771  0.068  -0.360393  0.04403  3.688272  0.062  -0.385065  -0.306576  0.047296  3.654006  0.063
N  N58  1  0.74243573  0.91772176  0.83253519  1  -0.281586  -0.001172  3.485911  -0.001  -1.318303  -0.002291  -0.215132  -0.001404  3.719697  -0.001  -0.231126  -0.001159  3.734052  -0.001  -0.375694  -0.204459  -0.001405  3.709915  -0.002
N  N59  1  0.25757303  0.08227995  0.16746129  1  -0.281712  0.001163  3.486123  0.001  -1.318535  0.002293  -0.215281  0.001405  3.719889  0.001  -0.231276  0.001158  3.734239  0.001  -0.375757  -0.204645  0.001405  3.710057  0.002
N  N60  1  0.18137370  0.25079859  0.84333598  1  -0.366779  -0.062589  3.371823  -0.081  -1.235601  -0.085885  -0.319796  -0.055715  3.674351  -0.076  -0.355895  -0.04926  3.699155  -0.07  -0.389316  -0.296986  -0.052077  3.658999  -0.069
N  N61  1  0.81862189  0.74921038  0.15666460  1  -0.366892  0.06257  3.371965  0.081  -1.235347  0.085882  -0.319864  0.055714  3.674426  0.076  -0.355975  0.049257  3.699233  0.07  -0.389377  -0.297058  0.052072  3.65907  0.069
N  N62  1  0.23848551  0.43703453  0.71992432  1  -0.374701  0.062713  3.37222  0.082  -1.256053  0.087588  -0.331125  0.056595  3.684649  0.077  -0.36742  0.049871  3.709259  0.071  -0.393653  -0.308172  0.053217  3.669143  0.071
N  N63  1  0.76150277  0.56296836  0.28007760  1  -0.374767  -0.062732  3.372327  -0.082  -1.256125  -0.087587  -0.331223  -0.056595  3.684792  -0.077  -0.367503  -0.049873  3.709386  -0.071  -0.393676  -0.308264  -0.05322  3.66928  -0.071
N  N64  1  0.04171067  0.66179989  0.56619787  1  -0.372464  0.0528  3.35917  0.069  -1.231069  0.077026  -0.326951  0.050433  3.674005  0.069  -0.359668  0.044549  3.69491  0.063  -0.385229  -0.307312  0.048034  3.662166  0.064
N  N65  1  0.95828167  0.33820301  0.43380511  1  -0.372508  -0.052788  3.359075  -0.069  -1.23122  -0.077027  -0.327111  -0.050434  3.674025  -0.069  -0.359816  -0.044549  3.694917  -0.063  -0.38531  -0.307465  -0.048037  3.662186  -0.064
N  N66  1  0.73290828  0.73726434  0.58876483  1  -0.279958  0.001611  3.482513  0.002  -1.357078  0.002711  -0.211443  0.001698  3.711606  0.002  -0.227683  0.001393  3.726089  0.002  -0.373586  -0.200973  0.001722  3.702412  0.002
N  N67  1  0.26708295  0.26273006  0.41123817  1  -0.279962  -0.001609  3.482506  -0.002  -1.356485  -0.00271  -0.211508  -0.001697  3.711708  -0.002  -0.227748  -0.001394  3.726199  -0.002  -0.373608  -0.201036  -0.001722  3.70251  -0.002
N  N68  1  0.57950596  0.41121700  0.57039682  1  -0.525637  0.01318  2.896427  0.017  -0.332589  0.009384  -0.574574  0.006281  3.293201  0.008  -0.630604  0.004391  3.308697  0.006  -0.354672  -0.539182  0.006466  3.284135  0.008
N  N69  1  0.42048222  0.58878224  0.42960462  1  -0.525629  -0.013159  2.896354  -0.017  -0.332483  -0.009388  -0.57457  -0.006284  3.293138  -0.008  -0.6306  -0.004391  3.308621  -0.006  -0.354665  -0.539179  -0.006475  3.284083  -0.008
N  N70  1  0.65955154  0.34212404  0.64279148  1  0.388737  -0.003313  4.121332  -0.006  -0.35948  0.000169  0.438082  -0.000184  4.427011  -0.001  0.45903  -0.00051  4.464245  -0.001  0.09644  0.42508  0.000203  4.400458  -0.001
N  N71  1  0.34044339  0.65787886  0.35720734  1  0.388658  0.003342  4.121299  0.006  -0.360117  -0.000171  0.437999  0.000182  4.42698  0.001  0.458952  0.000513  4.464202  0.001  0.096381  0.424997  -0.000199  4.400431  0.001
N  N72  1  0.73910188  0.27609258  0.71082214  1  -0.272105  0.013577  2.363025  0.016  0.105847  0.009108  -0.29578  0.005564  2.599004  0.007  -0.306121  0.004546  2.612085  0.006  -0.12964  -0.288878  0.005669  2.589661  0.006
N  N73  1  0.26090029  0.72391276  0.28917638  1  -0.272029  -0.013648  2.363048  -0.016  0.106472  -0.009111  -0.295697  -0.005566  2.599026  -0.007  -0.306054  -0.004554  2.612125  -0.006  -0.129599  -0.288795  -0.005685  2.589684  -0.006
