# generated using pymatgen
data_CuH16C16(NO2)2
_symmetry_space_group_name_H-M   'P 1'
_cell_length_a   9.87288931
_cell_length_b   9.56831625
_cell_length_c   10.76474015
_cell_angle_alpha   105.04906804
_cell_angle_beta   115.58199737
_cell_angle_gamma   106.60319940
_symmetry_Int_Tables_number   1
_chemical_formula_structural   CuH16C16(NO2)2
_chemical_formula_sum   'Cu2 H32 C32 N4 O8'
_cell_volume   787.96553203
_cell_formula_units_Z   2
loop_
 _symmetry_equiv_pos_site_id
 _symmetry_equiv_pos_as_xyz
  1  'x, y, z'
loop_
 _atom_site_type_symbol
 _atom_site_label
 _atom_site_symmetry_multiplicity
 _atom_site_fract_x
 _atom_site_fract_y
 _atom_site_fract_z
 _atom_site_occupancy
 _atom_site_hle17_ddec_charge
 _atom_site_hle17_ddec_spin_density
 _atom_site_hle17_ddec_sum_bond_order
 _atom_site_hle17_magmom
 _atom_site_hse06_10hf_ddec_charge
 _atom_site_hse06_10hf_ddec_spin_density
 _atom_site_hse06_10hf_ddec_sum_bond_order
 _atom_site_hse06_10hf_magmom
 _atom_site_hse06_ddec_charge
 _atom_site_hse06_ddec_spin_density
 _atom_site_hse06_ddec_sum_bond_order
 _atom_site_hse06_magmom
 _atom_site_pbe_cm5_charge
 _atom_site_pbe_ddec_charge
 _atom_site_pbe_ddec_spin_density
 _atom_site_pbe_ddec_sum_bond_order
 _atom_site_pbe_magmom
Cu  Cu0  1  0.94043202  0.62316578  0.62507040  1  0.849022  0.680752  1.746233  0.495  0.822787  0.765443  2.127835  0.607  0.916522  0.829801  2.056611  0.689  0.735305  0.768127  0.720041  2.176021  0.554
Cu  Cu1  1  0.05955083  0.37681558  0.37490706  1  0.849041  0.680739  1.746197  0.495  0.822652  0.765393  2.127944  0.607  0.916534  0.829791  2.056656  0.689  0.735297  0.768032  0.720027  2.176131  0.554
H  H2  1  0.79343099  0.08950468  0.42330976  1  0.090567  -0.00028  0.947631  0.0  0.105425  5.6e-05  1.011887  0.0  0.107715  2.1e-05  1.010411  0.0  0.091375  0.103703  7.6e-05  1.013079  0.0
H  H3  1  0.20657583  0.91048217  0.57670426  1  0.090608  -0.000289  0.947649  0.0  0.105426  5.4e-05  1.011908  0.0  0.107708  2e-05  1.010437  0.0  0.091375  0.103702  7.6e-05  1.013096  0.0
H  H4  1  0.58958609  0.06095115  0.37636849  1  0.099354  -0.000127  0.924223  0.0  0.116982  2.3e-05  0.979869  0.0  0.119055  -3.4e-05  0.979185  0.0  0.099396  0.115829  8.5e-05  0.979833  0.0
H  H5  1  0.41041858  0.93906016  0.62363585  1  0.099406  -0.000133  0.924197  0.0  0.117024  2.3e-05  0.979821  0.0  0.119098  -3.4e-05  0.979133  0.0  0.099398  0.115869  8.5e-05  0.979781  0.0
H  H6  1  0.68033772  0.91513639  0.53076108  1  0.068774  0.000451  0.939388  0.001  0.087882  0.000246  0.997202  0.0  0.08807  0.000127  0.999309  0.0  0.08732  0.087929  0.000379  0.995515  0.0
H  H7  1  0.31966369  0.08485492  0.46923059  1  0.068913  0.000451  0.939242  0.001  0.087944  0.000247  0.99713  0.0  0.088171  0.000127  0.999186  0.0  0.087319  0.087988  0.000379  0.995443  0.0
H  H8  1  0.65491540  0.07394931  0.62953038  1  0.066392  -1.9e-05  0.942713  0.0  0.084972  -9e-06  1.0048  0.0  0.085773  -9e-06  1.005198  0.0  0.089163  0.084343  1.1e-05  1.004472  0.0
H  H9  1  0.34505094  0.92603820  0.37046084  1  0.066293  -9e-06  0.94277  0.0  0.084823  -9e-06  1.004909  0.0  0.085609  -9e-06  1.005337  0.0  0.089118  0.084206  1.1e-05  1.00456  0.0
H  H10  1  0.96340518  0.25420991  0.78715296  1  0.057364  0.000106  0.94509  0.0  0.076163  3.5e-05  1.005758  0.0  0.075907  3e-06  1.00801  0.0  0.082968  0.076104  3e-06  1.004548  0.0
H  H11  1  0.03656949  0.74576095  0.21284015  1  0.057329  0.000134  0.944998  0.0  0.076164  3.5e-05  1.005617  0.0  0.075918  3e-06  1.007852  0.0  0.082948  0.076107  3e-06  1.00441  0.0
H  H12  1  0.99612468  0.10397486  0.68558171  1  0.055315  0.000238  0.968616  0.0  0.074582  0.000263  1.033215  0.0  0.0753  0.000172  1.033529  0.0  0.083989  0.074127  0.000428  1.032976  0.0
H  H13  1  0.00384506  0.89602089  0.31442771  1  0.055249  0.000277  0.968544  0.0  0.074505  0.000262  1.03316  0.0  0.075221  0.000173  1.033477  0.0  0.083933  0.074043  0.000428  1.03292  0.0
H  H14  1  0.05727043  0.12193390  0.94616984  1  0.108898  -0.000825  0.936919  -0.001  0.124271  -0.000275  0.993804  0.0  0.126889  -0.000231  0.992513  0.0  0.097472  0.122474  -0.000272  0.994766  0.0
H  H15  1  0.94269982  0.87805145  0.05383629  1  0.108875  -0.000812  0.937072  -0.001  0.124318  -0.000275  0.993878  0.0  0.126956  -0.000231  0.992566  0.0  0.097538  0.122507  -0.000272  0.994834  0.0
H  H16  1  0.83777421  0.04223500  0.86794669  1  0.094187  0.000976  0.929692  0.001  0.108437  0.000876  0.987412  0.001  0.109521  0.000576  0.987733  0.001  0.092669  0.107601  0.001165  0.98731  0.001
H  H17  1  0.16219271  0.95772469  0.13203512  1  0.094063  0.000983  0.929822  0.001  0.108322  0.000878  0.98759  0.001  0.109407  0.000576  0.987909  0.001  0.092589  0.107474  0.001165  0.987484  0.001
H  H18  1  0.98653278  0.62373870  0.91320083  1  0.088212  0.001077  0.946096  0.002  0.094119  0.000926  1.015352  0.001  0.096031  0.000663  1.013628  0.001  0.122734  0.092258  0.001109  1.017429  0.001
H  H19  1  0.01345549  0.37624973  0.08680739  1  0.08822  0.001074  0.946108  0.002  0.09407  0.000926  1.015425  0.001  0.09598  0.000663  1.013703  0.001  0.122732  0.09221  0.001109  1.017501  0.001
H  H20  1  0.21015499  0.62812949  0.15001977  1  0.127912  0.000464  0.98389  0.0  0.135452  0.000475  1.048681  0.0  0.139063  0.000351  1.047339  0.0  0.112276  0.132532  0.000547  1.050182  0.001
H  H21  1  0.78984897  0.37184444  0.84997976  1  0.127861  0.000479  0.983882  0.0  0.135397  0.000475  1.048667  0.0  0.139002  0.000351  1.047327  0.0  0.112251  0.132477  0.000547  1.050168  0.001
H  H22  1  0.52184783  0.68620703  0.96426034  1  0.108282  0.00045  0.951885  0.0  0.120042  0.000508  1.008141  0.0  0.12288  0.000374  1.008097  0.0  0.109369  0.117938  0.000535  1.008683  0.001
H  H23  1  0.47817930  0.31384285  0.03574909  1  0.108221  0.00045  0.952287  0.0  0.120013  0.000508  1.008487  0.0  0.122851  0.000374  1.008436  0.0  0.109372  0.117915  0.000535  1.009028  0.001
H  H24  1  0.28780163  0.68133706  0.73984449  1  0.091351  0.000936  0.961122  0.002  0.098978  0.000869  1.02418  0.001  0.101089  0.000583  1.022555  0.001  0.11992  0.097186  0.00102  1.025598  0.002
H  H25  1  0.71218526  0.31865735  0.26014701  1  0.091419  0.000951  0.961123  0.002  0.098951  0.00087  1.024278  0.001  0.101058  0.000584  1.022658  0.001  0.119902  0.09716  0.00102  1.025697  0.002
H  H26  1  0.33510735  0.45675500  0.21794233  1  0.138917  0.000653  0.958758  0.0  0.147146  0.000651  1.019408  0.001  0.150833  0.000475  1.017229  0.0  0.116063  0.144267  0.00074  1.021524  0.001
H  H27  1  0.66492027  0.54326914  0.78207304  1  0.13889  0.000649  0.958623  0.0  0.147137  0.000651  1.01932  0.001  0.150826  0.000475  1.017138  0.0  0.116031  0.144256  0.00074  1.021442  0.001
H  H28  1  0.56092011  0.44321908  0.42851208  1  0.099357  0.000981  0.928797  0.002  0.106608  0.000855  0.991466  0.001  0.108498  0.000617  0.990245  0.001  0.126153  0.104897  0.000994  0.992904  0.001
H  H29  1  0.43909862  0.55676486  0.57147420  1  0.099305  0.000978  0.928754  0.002  0.106681  0.000855  0.9913  0.001  0.108571  0.000617  0.990079  0.001  0.126206  0.104969  0.000994  0.992743  0.001
H  H30  1  0.93582046  0.79285213  0.44174332  1  0.08129  0.000864  0.964329  0.002  0.08903  0.000739  1.031804  0.001  0.091132  0.000491  1.02926  0.001  0.119143  0.087219  0.000892  1.034088  0.002
H  H31  1  0.06417939  0.20719928  0.55827646  1  0.081354  0.000862  0.964305  0.002  0.089058  0.000739  1.031832  0.001  0.091148  0.000491  1.029285  0.001  0.11916  0.087248  0.000892  1.034123  0.002
H  H32  1  0.72677518  0.82107805  0.22704533  1  0.115151  0.00051  0.943616  0.0  0.12689  0.000603  1.000939  0.0  0.130773  0.000423  0.998963  0.0  0.113441  0.123879  0.00071  1.003002  0.001
H  H33  1  0.27321527  0.17894550  0.77297329  1  0.115066  0.00052  0.943583  0.0  0.126894  0.000603  1.000824  0.0  0.130721  0.000423  0.998919  0.0  0.113378  0.123878  0.00071  1.002897  0.001
C  C34  1  0.78171528  0.29973381  0.54454942  1  0.67007  -0.007128  3.863365  -0.007  0.63694  -0.002319  4.163492  -0.003  0.672459  -0.00279  4.157443  -0.003  0.194644  0.613225  -0.001804  4.165611  -0.003
C  C35  1  0.21830394  0.70026862  0.45545182  1  0.670373  -0.007161  3.863144  -0.007  0.637173  -0.002321  4.163326  -0.003  0.672691  -0.002784  4.157291  -0.003  0.194771  0.613456  -0.001802  4.16545  -0.003
C  C36  1  0.72206893  0.11693721  0.47295379  1  -0.258457  0.007906  3.687647  0.009  -0.298539  0.004745  3.940178  0.005  -0.304561  0.003252  3.948446  0.004  -0.168082  -0.294188  0.006053  3.933633  0.007
C  C37  1  0.27792824  0.88306062  0.52703972  1  -0.258771  0.007934  3.687705  0.009  -0.298705  0.004751  3.940086  0.005  -0.304728  0.003251  3.948362  0.004  -0.168098  -0.294342  0.006055  3.933524  0.007
C  C38  1  0.73390562  0.04835597  0.58869096  1  -0.090993  0.000939  3.688328  0.001  -0.130425  0.000747  3.949469  0.001  -0.13132  0.000445  3.964306  0.001  -0.170684  -0.129888  0.001025  3.939318  0.001
C  C39  1  0.26605307  0.95162982  0.41128390  1  -0.090866  0.00094  3.688498  0.001  -0.130269  0.000747  3.949629  0.001  -0.131192  0.000444  3.964481  0.001  -0.170567  -0.129731  0.001027  3.93948  0.001
C  C40  1  0.91483039  0.12186556  0.72621067  1  -0.083959  -0.000263  3.695667  0.0  -0.124457  0.000244  3.953654  0.0  -0.124484  0.0001  3.968271  0.0  -0.170296  -0.12434  0.000335  3.943729  0.0
C  C41  1  0.08513489  0.87811011  0.27378281  1  -0.083858  -0.000402  3.695734  0.0  -0.124284  0.000246  3.953637  0.0  -0.124311  0.0001  3.968264  0.0  -0.170181  -0.124188  0.000335  3.943693  0.0
C  C42  1  0.93200436  0.04723396  0.83833972  1  -0.264786  0.010388  3.67824  0.011  -0.298703  0.006018  3.921924  0.006  -0.305216  0.004088  3.931487  0.005  -0.17231  -0.294056  0.007454  3.915064  0.008
C  C43  1  0.06797051  0.95273467  0.16164827  1  -0.26464  0.010356  3.678819  0.011  -0.298691  0.006016  3.922524  0.006  -0.305231  0.004093  3.932109  0.005  -0.172339  -0.293969  0.007456  3.915573  0.008
C  C44  1  0.91296997  0.87603692  0.77547748  1  0.677549  -0.009249  3.852492  -0.009  0.643475  -0.002869  4.157444  -0.004  0.678865  -0.003464  4.153265  -0.004  0.193903  0.61979  -0.002168  4.159545  -0.004
C  C45  1  0.08704266  0.12395446  0.22451295  1  0.677135  -0.009232  3.853256  -0.009  0.643144  -0.002865  4.15811  -0.004  0.678534  -0.003469  4.153942  -0.004  0.193736  0.619443  -0.002167  4.160207  -0.004
C  C46  1  0.10666506  0.63458882  0.92991862  1  0.13398  -0.012059  3.680102  -0.008  0.104786  -0.002681  3.936682  -0.002  0.113698  -0.004172  3.955501  -0.003  0.052449  0.098485  -0.001572  3.925474  -0.001
C  C47  1  0.89333424  0.36540190  0.07009439  1  0.133983  -0.012062  3.680027  -0.008  0.104798  -0.002678  3.936584  -0.002  0.113712  -0.004181  3.955404  -0.003  0.052469  0.098496  -0.001575  3.925382  -0.001
C  C48  1  0.22937404  0.63530228  0.05879103  1  -0.160176  0.0087  3.667413  0.009  -0.176471  0.003219  3.907724  0.004  -0.184202  0.003006  3.927485  0.003  -0.077025  -0.170842  0.003348  3.894662  0.004
C  C49  1  0.77064399  0.36467890  0.94121568  1  -0.160281  0.00867  3.66762  0.009  -0.176534  0.003217  3.907938  0.004  -0.184267  0.003007  3.927705  0.003  -0.077125  -0.170908  0.003347  3.894873  0.004
C  C50  1  0.38172471  0.65050547  0.07310469  1  0.097701  -0.011354  3.757762  -0.007  0.110843  -0.003945  3.984575  -0.002  0.115247  -0.004561  4.005614  -0.003  0.014582  0.107657  -0.003559  3.97057  -0.002
C  C51  1  0.61830915  0.34952060  0.92690519  1  0.09807  -0.011333  3.757939  -0.007  0.111136  -0.003944  3.984806  -0.002  0.115541  -0.004563  4.005841  -0.003  0.014685  0.107951  -0.00356  3.970794  -0.002
C  C52  1  0.40611358  0.67300176  0.95935501  1  -0.160142  0.00891  3.715117  0.009  -0.176826  0.003286  3.956446  0.004  -0.184522  0.003037  3.97752  0.004  -0.080382  -0.172006  0.003417  3.94325  0.004
C  C53  1  0.59389040  0.32702022  0.04063590  1  -0.16032  0.008912  3.715653  0.009  -0.177039  0.003288  3.956967  0.004  -0.184728  0.003039  3.978032  0.004  -0.08048  -0.172233  0.003417  3.943782  0.004
C  C54  1  0.27690056  0.66979145  0.83354526  1  0.134639  -0.012479  3.683519  -0.008  0.106539  -0.002941  3.933939  -0.002  0.115487  -0.00455  3.952266  -0.003  0.048132  0.100158  -0.001497  3.922928  -0.001
C  C55  1  0.72308177  0.33021766  0.16644625  1  0.134632  -0.01253  3.683878  -0.008  0.10663  -0.002938  3.934212  -0.002  0.11558  -0.00455  3.95255  -0.003  0.04821  0.100245  -0.001496  3.923206  -0.001
C  C56  1  0.51103466  0.64051094  0.20199583  1  0.093226  -0.010523  3.751777  -0.007  0.103674  -0.003735  3.983754  -0.002  0.107749  -0.004296  4.004109  -0.002  0.014281  0.100615  -0.003284  3.970461  -0.002
C  C57  1  0.48899432  0.35950533  0.79800977  1  0.092856  -0.010522  3.75173  -0.007  0.103399  -0.003734  3.983692  -0.002  0.107478  -0.004297  4.004037  -0.002  0.014052  0.100351  -0.003283  3.970357  -0.002
C  C58  1  0.46576820  0.53453021  0.26167900  1  -0.131095  0.008873  3.645008  0.009  -0.149168  0.003543  3.888366  0.004  -0.154598  0.003197  3.905047  0.004  -0.069814  -0.145105  0.003758  3.877737  0.004
C  C59  1  0.53424805  0.46548253  0.73831527  1  -0.131017  0.008892  3.644662  0.009  -0.149186  0.003542  3.888076  0.004  -0.154622  0.003198  3.904761  0.004  -0.069798  -0.145124  0.003758  3.877435  0.004
C  C60  1  0.59165188  0.52524185  0.38029835  1  0.136992  -0.010712  3.649069  -0.007  0.107448  -0.001892  3.906098  -0.001  0.116088  -0.00349  3.924101  -0.002  0.057654  0.101046  -0.00107  3.895109  0.0
C  C61  1  0.40834736  0.47475857  0.61969380  1  0.137156  -0.010734  3.648661  -0.007  0.107551  -0.001891  3.905707  -0.001  0.116191  -0.003492  3.923721  -0.002  0.057626  0.10115  -0.00107  3.894718  0.0
C  C62  1  0.80109825  0.71967607  0.38606490  1  0.131782  -0.012354  3.702593  -0.008  0.101054  -0.003134  3.960933  -0.002  0.110112  -0.004598  3.979697  -0.003  0.047191  0.094756  -0.00176  3.949426  -0.001
C  C63  1  0.19891171  0.28033674  0.61395392  1  0.131706  -0.012372  3.702628  -0.008  0.10101  -0.003131  3.96102  -0.002  0.110089  -0.004598  3.979768  -0.003  0.04716  0.094707  -0.001758  3.949518  -0.001
C  C64  1  0.68341879  0.73414115  0.26636509  1  -0.16183  0.008332  3.704715  0.009  -0.179812  0.003093  3.952615  0.004  -0.187165  0.002839  3.972259  0.003  -0.079345  -0.175115  0.003254  3.940421  0.004
C  C65  1  0.31660635  0.26588489  0.73366001  1  -0.161583  0.008305  3.704664  0.009  -0.179637  0.003092  3.95253  0.004  -0.186944  0.00284  3.972183  0.003  -0.079054  -0.174946  0.003254  3.940332  0.004
N  N66  1  0.12818060  0.64702194  0.81721143  1  -0.283158  0.069372  3.326975  0.089  -0.229838  0.048777  3.613293  0.066  -0.25856  0.040784  3.633184  0.059  -0.345705  -0.212466  0.053774  3.60234  0.07
N  N67  1  0.87180563  0.35298502  0.18279406  1  -0.28307  0.069375  3.32721  0.089  -0.229683  0.048773  3.613428  0.066  -0.258442  0.040786  3.63335  0.059  -0.345629  -0.212321  0.053768  3.602493  0.07
N  N68  1  0.75663507  0.61651981  0.44160977  1  -0.296582  0.070297  3.355143  0.09  -0.24495  0.049657  3.646363  0.067  -0.274646  0.041467  3.668701  0.06  -0.347462  -0.226752  0.054732  3.63315  0.071
N  N69  1  0.24335958  0.38346844  0.55838134  1  -0.296692  0.07033  3.354833  0.09  -0.245082  0.049659  3.646123  0.067  -0.274815  0.04147  3.668498  0.06  -0.34748  -0.2269  0.054734  3.632934  0.071
O  O70  1  0.73728574  0.35989696  0.62890780  1  -0.630314  -0.000981  1.946545  0.001  -0.595383  -0.001219  2.189087  0.0  -0.620176  -0.002066  2.180761  -0.001  -0.324533  -0.577591  -0.000486  2.193935  0.001
O  O71  1  0.26272702  0.64010962  0.37108269  1  -0.630376  -0.000955  1.94624  0.001  -0.595472  -0.001216  2.188856  0.0  -0.620279  -0.002072  2.180549  -0.001  -0.324622  -0.577686  -0.000485  2.193714  0.001
O  O72  1  0.87792558  0.38638763  0.51230584  1  -0.639855  0.087464  2.049343  0.12  -0.620019  0.056583  2.348163  0.085  -0.664156  0.043072  2.339122  0.071  -0.334593  -0.590767  0.066926  2.354442  0.095
O  O73  1  0.12210397  0.61361815  0.48770205  1  -0.639978  0.087458  2.04934  0.12  -0.620079  0.056588  2.348129  0.085  -0.664229  0.043075  2.33909  0.071  -0.334627  -0.590829  0.066932  2.354415  0.095
O  O74  1  0.00988559  0.86124875  0.72604863  1  -0.614371  0.119557  1.97414  0.161  -0.597402  0.07392  2.249232  0.109  -0.642819  0.056751  2.243716  0.091  -0.345104  -0.568118  0.085239  2.25354  0.119
O  O75  1  0.99012396  0.13874351  0.27393897  1  -0.614185  0.119567  1.97464  0.161  -0.59721  0.073923  2.249672  0.109  -0.642669  0.056757  2.244187  0.091  -0.345  -0.567938  0.08524  2.253996  0.119
O  O76  1  0.81122519  0.76016437  0.77330589  1  -0.640539  -0.000797  1.91438  0.002  -0.6125  -0.001371  2.151134  0.001  -0.638293  -0.002452  2.142115  -0.001  -0.336256  -0.59488  -0.000575  2.157178  0.001
O  O77  1  0.18879947  0.23982584  0.22669258  1  -0.640419  -0.000786  1.914378  0.002  -0.612379  -0.00137  2.151064  0.001  -0.638182  -0.002453  2.142064  -0.001  -0.336257  -0.59476  -0.000576  2.157105  0.001
