# generated using pymatgen
data_Mn2H21C14NO10
_symmetry_space_group_name_H-M   'P 1'
_cell_length_a   9.71229738
_cell_length_b   10.24415475
_cell_length_c   11.12528931
_cell_angle_alpha   64.96208882
_cell_angle_beta   82.40192810
_cell_angle_gamma   65.17883098
_symmetry_Int_Tables_number   1
_chemical_formula_structural   Mn2H21C14NO10
_chemical_formula_sum   'Mn4 H42 C28 N2 O20'
_cell_volume   908.85004025
_cell_formula_units_Z   2
loop_
 _symmetry_equiv_pos_site_id
 _symmetry_equiv_pos_as_xyz
  1  'x, y, z'
loop_
 _atom_site_type_symbol
 _atom_site_label
 _atom_site_symmetry_multiplicity
 _atom_site_fract_x
 _atom_site_fract_y
 _atom_site_fract_z
 _atom_site_occupancy
 _atom_site_hle17_ddec_charge
 _atom_site_hle17_ddec_spin_density
 _atom_site_hle17_ddec_sum_bond_order
 _atom_site_hle17_magmom
 _atom_site_hse06_10hf_ddec_charge
 _atom_site_hse06_10hf_ddec_spin_density
 _atom_site_hse06_10hf_ddec_sum_bond_order
 _atom_site_hse06_10hf_magmom
 _atom_site_hse06_ddec_charge
 _atom_site_hse06_ddec_spin_density
 _atom_site_hse06_ddec_sum_bond_order
 _atom_site_hse06_magmom
 _atom_site_pbe_cm5_charge
 _atom_site_pbe_ddec_charge
 _atom_site_pbe_ddec_spin_density
 _atom_site_pbe_ddec_sum_bond_order
 _atom_site_pbe_magmom
Mn  Mn0  1  0.50000352  0.50000555  0.49999832  1  1.230919  4.790938  1.838715  4.661  1.08726  4.673058  2.35023  4.506  1.13991  4.737061  2.275464  4.585  0.618611  1.048649  4.604403  2.404611  4.421
Mn  Mn1  1  0.54691212  0.10140910  0.64827301  1  1.241992  4.830961  1.693438  4.688  1.080618  4.731123  2.186554  4.548  1.140053  4.779165  2.111409  4.61  0.594706  1.034136  4.681598  2.242139  4.481
Mn  Mn2  1  0.45309172  0.89858659  0.35172898  1  1.242057  4.830961  1.693306  4.688  1.08072  4.731127  2.186394  4.548  1.140155  4.779166  2.11125  4.61  0.594742  1.034244  4.681603  2.241982  4.481
Mn  Mn3  1  0.50000272  0.00000033  0.99999802  1  1.015225  -1.131328  2.52242  -1.03  0.908201  -1.045541  3.097085  -0.988  0.964607  -1.050646  3.009156  -0.974  0.59318  0.878092  -1.057746  3.146774  -1.011
H  H4  1  0.15925869  0.15305410  0.61173638  1  0.125978  1e-05  0.979049  0.001  0.131356  -0.000157  1.043891  0.0  0.135791  -0.000272  1.041883  0.0  0.112225  0.127527  -8.8e-05  1.046238  0.0
H  H5  1  0.84072976  0.84694381  0.38826455  1  0.126066  3.9e-05  0.979009  0.001  0.131439  -0.000157  1.043854  0.0  0.135876  -0.000272  1.041837  0.0  0.112253  0.127602  -8.8e-05  1.046207  0.0
H  H6  1  0.14929349  0.12051921  0.84902949  1  0.122242  -0.000591  0.945756  -0.001  0.129478  0.000159  1.007109  0.0  0.13373  4.7e-05  1.003573  0.0  0.113744  0.124737  0.000447  1.012525  0.0
H  H7  1  0.85069789  0.87947400  0.15097205  1  0.122325  -0.000609  0.945723  -0.001  0.129509  0.000159  1.007136  0.0  0.133766  4.7e-05  1.003602  0.0  0.113778  0.124766  0.000447  1.012559  0.0
H  H8  1  0.89971910  0.14601588  0.95930958  1  0.104581  0.000319  0.959658  0.001  0.115833  2.8e-05  1.019223  0.0  0.117937  2e-05  1.020312  0.0  0.110326  0.11374  0.000155  1.019604  0.0
H  H9  1  0.10026135  0.85398905  0.04069038  1  0.10454  0.000307  0.959713  0.001  0.115799  2.8e-05  1.019261  0.0  0.117885  2e-05  1.020389  0.0  0.110314  0.113712  0.000156  1.019625  0.0
H  H10  1  0.67279656  0.21568670  0.82546485  1  0.129092  -0.000777  0.948922  -0.001  0.132353  -9e-06  1.016547  0.0  0.137281  -0.000167  1.010722  0.0  0.140977  0.127683  0.000216  1.022573  0.0
H  H11  1  0.32718899  0.78432656  0.17452418  1  0.12918  -0.000667  0.9488  -0.001  0.132426  -9e-06  1.016449  0.0  0.137357  -0.000168  1.010618  0.0  0.140992  0.127758  0.000216  1.022477  0.0
H  H12  1  0.86819134  0.14009394  0.44991566  1  0.144775  6.7e-05  0.937946  0.001  0.163377  0.000115  0.998761  0.001  0.166095  -7e-05  0.997384  0.0  0.105563  0.160737  0.000427  1.000358  0.001
H  H13  1  0.13180053  0.85990875  0.55007499  1  0.144828  8.7e-05  0.937849  0.001  0.163454  0.000114  0.998637  0.001  0.166173  -7e-05  0.997261  0.0  0.105594  0.160816  0.000427  1.000231  0.001
H  H14  1  0.03944429  0.17358328  0.42098480  1  0.136655  -0.000174  0.954252  0.0  0.155557  -0.00018  1.014694  0.0  0.157739  -0.00021  1.014071  0.0  0.099972  0.153541  -0.000141  1.015389  0.0
H  H15  1  0.96055051  0.82641707  0.57901184  1  0.136637  -0.000157  0.954227  0.0  0.15556  -0.00018  1.014662  0.0  0.157742  -0.000209  1.01404  0.0  0.099973  0.153534  -0.000141  1.015366  0.0
H  H16  1  0.85469006  0.33479874  0.38794060  1  0.13647  0.000156  0.959998  0.001  0.152446  0.000242  1.027206  0.001  0.155197  2.6e-05  1.025878  0.001  0.101137  0.149704  0.000607  1.028665  0.001
H  H17  1  0.14530484  0.66520397  0.61205423  1  0.136449  0.000175  0.960075  0.001  0.152451  0.000242  1.027255  0.001  0.155198  2.6e-05  1.025926  0.001  0.101165  0.149713  0.000606  1.028705  0.001
H  H18  1  0.66397699  0.65527625  0.04008309  1  0.14786  0.000604  0.967863  0.0  0.16605  0.000762  1.022864  0.001  0.169339  0.000568  1.021368  0.0  0.102127  0.162998  0.001049  1.024928  0.001
H  H19  1  0.33602239  0.34472531  0.95992070  1  0.147828  0.000591  0.967827  0.0  0.166071  0.000761  1.022765  0.001  0.169358  0.000568  1.02127  0.0  0.102126  0.163019  0.001049  1.024831  0.001
H  H20  1  0.71288359  0.47139881  0.18383130  1  0.129958  0.000171  0.964964  0.0  0.151724  9.6e-05  1.022542  0.0  0.153249  1.7e-05  1.022898  0.0  0.098384  0.150325  0.000345  1.023056  0.001
H  H21  1  0.28711072  0.52860507  0.81617123  1  0.129987  0.000148  0.964938  0.0  0.151732  9.6e-05  1.022545  0.0  0.153257  1.7e-05  1.0229  0.0  0.09838  0.150333  0.000344  1.023057  0.001
H  H22  1  0.83179904  0.57490691  0.14068747  1  0.130941  0.000523  0.950118  0.001  0.153069  0.000916  1.00841  0.001  0.155591  0.000584  1.007243  0.001  0.099757  0.151063  0.001469  1.009247  0.001
H  H23  1  0.16820834  0.42508291  0.85930652  1  0.130889  0.000515  0.950205  0.0  0.153049  0.000916  1.008466  0.001  0.155572  0.000585  1.007299  0.001  0.099742  0.151043  0.001469  1.009301  0.001
H  H24  1  0.22231218  0.31397830  0.27180244  1  0.145779  -0.000455  0.963595  0.0  0.163031  -0.000304  1.024898  0.0  0.165829  -0.000371  1.02417  0.0  0.099649  0.160717  -0.000219  1.025669  0.0
H  H25  1  0.77769666  0.68603045  0.72820570  1  0.145753  -0.00042  0.963592  0.0  0.162997  -0.000304  1.024909  0.0  0.165794  -0.000372  1.024183  0.0  0.099623  0.160679  -0.000219  1.02568  0.0
H  H26  1  0.21846532  0.50975000  0.19479083  1  0.122125  0.000175  0.967466  0.0  0.140187  0.000571  1.030726  0.0  0.141672  0.000386  1.031019  0.0  0.08861  0.138941  0.000684  1.031102  0.0
H  H27  1  0.78154246  0.49025873  0.80521923  1  0.122113  0.000188  0.96755  0.0  0.140175  0.000571  1.030792  0.0  0.141659  0.000386  1.031087  0.0  0.08861  0.138929  0.000684  1.031166  0.0
H  H28  1  0.10341070  0.45940322  0.33040974  1  0.138627  0.00033  0.927363  0.0  0.161662  0.000827  0.980066  0.001  0.163286  0.000593  0.980521  0.001  0.101317  0.161037  0.001097  0.979023  0.001
H  H29  1  0.89660202  0.54060083  0.66960430  1  0.13866  0.000338  0.927305  0.0  0.161677  0.000827  0.980027  0.001  0.163304  0.000593  0.980478  0.001  0.101308  0.161047  0.001097  0.978989  0.001
H  H30  1  0.67473954  0.90654028  0.52384079  1  0.406136  -0.000383  0.897317  0.001  0.378502  0.000324  0.967104  0.001  0.388867  6.6e-05  0.952019  0.001  0.295582  0.371137  0.000537  0.977767  0.002
H  H31  1  0.32526508  0.09346134  0.47615794  1  0.406274  -0.000389  0.8972  0.001  0.378622  0.000324  0.966927  0.001  0.388985  6.6e-05  0.951852  0.001  0.295654  0.37126  0.000536  0.97759  0.002
H  H32  1  0.61993003  0.06730693  0.40806703  1  0.411703  -0.000461  0.887134  0.001  0.383118  0.000234  0.956162  0.002  0.393439  -5.4e-05  0.941426  0.001  0.296037  0.375856  0.000477  0.966466  0.002
H  H33  1  0.38006576  0.93269578  0.59193669  1  0.411772  -0.00046  0.887053  0.001  0.383178  0.000234  0.956078  0.002  0.393501  -5.4e-05  0.94134  0.001  0.296037  0.375918  0.000478  0.96638  0.002
H  H34  1  0.03428375  0.80177135  0.85466379  1  0.124676  0.000557  0.958676  0.0  0.143703  0.00032  1.021494  0.0  0.145581  0.000192  1.021866  0.0  0.094864  0.143625  0.000423  1.019473  0.0
H  H35  1  0.96572407  0.19821730  0.14533241  1  0.124723  0.000552  0.958661  0.0  0.143738  0.00032  1.021495  0.0  0.145614  0.000192  1.02187  0.0  0.094865  0.143662  0.000423  1.019475  0.0
H  H36  1  0.97698649  0.64817962  0.88814147  1  0.130057  0.00012  0.949576  0.0  0.152091  0.000467  1.006339  0.0  0.154076  0.000226  1.006145  0.0  0.0984  0.151031  0.000609  1.006151  0.001
H  H37  1  0.02301323  0.35181367  0.11185467  1  0.130159  0.000125  0.949531  0.0  0.152179  0.000467  1.006315  0.0  0.15417  0.000226  1.006111  0.0  0.098447  0.151123  0.000609  1.006122  0.001
H  H38  1  0.99162563  0.69811062  0.02049979  1  0.118199  0.000416  0.975451  0.0  0.13664  0.000853  1.038943  0.0  0.138492  0.000654  1.038506  0.0  0.090939  0.135939  0.000853  1.038734  0.0
H  H39  1  0.00837569  0.30188388  0.97949573  1  0.118234  0.000399  0.975475  0.0  0.136681  0.000852  1.038948  0.0  0.138531  0.000654  1.038513  0.0  0.090943  0.13598  0.000853  1.038737  0.0
H  H40  1  0.26904142  0.77656306  0.80022178  1  0.127699  0.0006  0.95584  0.0  0.147942  0.000299  1.016104  0.0  0.150446  6e-06  1.015185  0.0  0.097836  0.146688  0.000546  1.01604  0.001
H  H41  1  0.73096271  0.22342673  0.19978154  1  0.127605  0.000607  0.955914  0.0  0.147881  0.000299  1.016144  0.0  0.150386  6e-06  1.015223  0.0  0.097806  0.146629  0.000546  1.016079  0.001
H  H42  1  0.35010611  0.66126424  0.96758257  1  0.131262  0.000199  0.945027  0.0  0.152241  0.000464  1.000725  0.0  0.154191  0.00037  1.000443  0.0  0.095641  0.150684  0.000694  1.001504  0.0
H  H43  1  0.64989650  0.33872671  0.03242227  1  0.13126  0.000205  0.945101  0.0  0.152229  0.000464  1.000793  0.0  0.154177  0.00037  1.000512  0.0  0.095639  0.150672  0.000694  1.001569  0.0
H  H44  1  0.45900551  0.63716623  0.82936349  1  0.145769  -0.000142  0.944553  0.0  0.164989  0.000116  1.002484  0.0  0.167799  4.9e-05  1.001879  0.0  0.101858  0.162593  0.000309  1.003393  0.0
H  H45  1  0.54100093  0.36283067  0.17064047  1  0.145779  -0.000135  0.944537  0.0  0.164981  0.000116  1.002494  0.0  0.167791  4.9e-05  1.001891  0.0  0.101858  0.162585  0.000309  1.003403  0.0
C  C46  1  0.92631663  0.19849032  0.59241219  1  0.240575  0.019069  3.613718  0.017  0.236147  0.019335  3.866896  0.016  0.247555  0.01503  3.882304  0.013  0.129462  0.226757  0.025204  3.859105  0.02
C  C47  1  0.07367396  0.80150762  0.40758401  1  0.240494  0.019119  3.61365  0.017  0.236111  0.019333  3.866789  0.016  0.247515  0.015028  3.882199  0.013  0.129391  0.226726  0.025203  3.858993  0.02
C  C48  1  0.05401016  0.16546900  0.66263048  1  -0.161833  -0.013692  3.700298  -0.012  -0.178791  -0.005818  3.952281  -0.006  -0.186638  -0.006902  3.96921  -0.006  -0.083445  -0.175129  -0.003996  3.945244  -0.006
C  C49  1  0.94597876  0.83452773  0.33737085  1  -0.16183  -0.013753  3.700342  -0.012  -0.178784  -0.005817  3.952244  -0.006  -0.186626  -0.006902  3.969175  -0.006  -0.083404  -0.175111  -0.003995  3.945202  -0.006
C  C50  1  0.04860188  0.14702127  0.79455218  1  -0.020282  0.021312  3.704916  0.018  -0.050251  0.023805  3.971681  0.018  -0.041845  0.017197  3.983773  0.013  -0.079275  -0.058766  0.033918  3.969108  0.025
C  C51  1  0.95138647  0.85297428  0.20544967  1  -0.020409  0.021381  3.705022  0.018  -0.050366  0.023803  3.971809  0.018  -0.04197  0.017199  3.983911  0.013  -0.079308  -0.058879  0.033919  3.969233  0.025
C  C52  1  0.91083949  0.16263069  0.85588247  1  -0.117944  -0.013882  3.777811  -0.012  -0.131444  -0.006625  4.042228  -0.007  -0.139266  -0.007241  4.061214  -0.007  -0.085508  -0.127247  -0.005537  4.033681  -0.007
C  C53  1  0.08914548  0.83737073  0.14411747  1  -0.117839  -0.013719  3.777999  -0.012  -0.13132  -0.006626  4.04237  -0.007  -0.139142  -0.007242  4.061352  -0.007  -0.085527  -0.127118  -0.005537  4.033825  -0.007
C  C54  1  0.78351027  0.20074178  0.78457987  1  0.03909  0.019574  3.600397  0.017  -0.008267  0.019264  3.87034  0.016  0.003982  0.014813  3.876864  0.013  0.050064  -0.019094  0.02499  3.870998  0.02
C  C55  1  0.21647564  0.79926794  0.21541139  1  0.038958  0.01916  3.600278  0.017  -0.008387  0.019264  3.870211  0.016  0.003868  0.014811  3.876729  0.013  0.050077  -0.019216  0.02499  3.87088  0.02
C  C56  1  0.92364855  0.21225117  0.45428163  1  -0.382748  -0.001427  3.69214  -0.002  -0.462485  -0.0002  3.927351  -0.001  -0.466249  -0.000495  3.931635  -0.001  -0.238308  -0.459003  0.000219  3.926058  -0.001
C  C57  1  0.07634673  0.78774800  0.54571452  1  -0.382755  -0.001536  3.692086  -0.002  -0.462536  -0.000199  3.927253  -0.001  -0.466296  -0.000495  3.931537  -0.001  -0.238358  -0.459052  0.000219  3.925964  -0.001
C  C58  1  0.63019588  0.67039406  0.23115784  1  0.77031  0.015841  3.723777  0.013  0.727572  0.020708  4.013148  0.018  0.768994  0.01612  4.000849  0.014  0.232367  0.696535  0.03037  4.022366  0.025
C  C59  1  0.36981962  0.32960885  0.76884107  1  0.77011  0.015794  3.724189  0.013  0.727512  0.020708  4.013324  0.018  0.768938  0.016121  4.001018  0.014  0.232364  0.696468  0.030368  4.022543  0.025
C  C60  1  0.71316906  0.58907063  0.14165858  1  -0.455586  -0.000614  3.66215  -0.001  -0.533586  0.000646  3.888803  0.0  -0.540609  0.000218  3.889037  0.0  -0.245567  -0.528783  0.001294  3.890767  0.0
C  C61  1  0.28683543  0.41092862  0.85834287  1  -0.455502  -0.000514  3.662102  -0.001  -0.53359  0.000646  3.888687  0.0  -0.540614  0.000214  3.888922  0.0  -0.245583  -0.528788  0.001294  3.890651  0.0
C  C62  1  0.33853545  0.36501634  0.38801211  1  0.775984  0.006921  3.792717  0.008  0.732782  0.013104  4.085246  0.013  0.767819  0.00993  4.077788  0.01  0.228217  0.708699  0.015907  4.088591  0.015
C  C63  1  0.66147278  0.63498885  0.61199477  1  0.775675  0.006968  3.79244  0.008  0.732421  0.0131  4.085134  0.013  0.767453  0.009927  4.077683  0.01  0.228151  0.708337  0.015903  4.088477  0.015
C  C64  1  0.21406610  0.41517920  0.28870747  1  -0.47184  0.001759  3.658378  0.002  -0.54667  0.002211  3.88798  0.002  -0.554396  0.001521  3.891902  0.001  -0.25008  -0.540574  0.002838  3.88426  0.002
C  C65  1  0.78593862  0.58482950  0.71130021  1  -0.471751  0.001656  3.658254  0.002  -0.546492  0.002211  3.887862  0.002  -0.554219  0.001523  3.891787  0.001  -0.249968  -0.540391  0.002837  3.884142  0.002
C  C66  1  0.79583885  0.86313247  0.88088852  1  0.727318  0.01174  3.842565  0.012  0.683319  0.009428  4.141182  0.007  0.720902  0.005698  4.134315  0.004  0.213314  0.658591  0.011212  4.142836  0.009
C  C67  1  0.20416675  0.13686443  0.11910293  1  0.727562  0.011707  3.842438  0.011  0.683466  0.009428  4.141203  0.007  0.721067  0.005698  4.134305  0.004  0.21345  0.658739  0.011212  4.142857  0.009
C  C68  1  0.95962391  0.74531778  0.91504711  1  -0.449264  0.001938  3.677087  0.001  -0.526006  0.002618  3.910879  0.002  -0.533921  0.002124  3.91469  0.001  -0.245708  -0.520435  0.003273  3.90549  0.002
C  C69  1  0.04037893  0.25467555  0.08494780  1  -0.449511  0.001974  3.677095  0.001  -0.526238  0.002617  3.910909  0.002  -0.534162  0.002123  3.914703  0.001  -0.24577  -0.520667  0.003273  3.905511  0.002
C  C70  1  0.42284957  0.84952819  0.84844837  1  0.748156  0.01371  3.791966  0.014  0.702192  0.008972  4.09124  0.008  0.74099  0.006017  4.082671  0.006  0.222056  0.675403  0.011354  4.095401  0.009
C  C71  1  0.57714856  0.15046863  0.15155827  1  0.748231  0.013699  3.792114  0.014  0.702245  0.008971  4.091431  0.008  0.741048  0.006017  4.082857  0.006  0.222105  0.675456  0.011354  4.095593  0.009
C  C72  1  0.37224141  0.72262600  0.86428396  1  -0.463635  0.001522  3.672148  0.001  -0.538335  0.002416  3.903549  0.002  -0.546586  0.001752  3.905606  0.001  -0.244517  -0.532497  0.003301  3.901883  0.002
C  C73  1  0.62776127  0.27736732  0.13572086  1  -0.463622  0.001483  3.672412  0.001  -0.53829  0.002416  3.903776  0.002  -0.546542  0.001751  3.905836  0.001  -0.244523  -0.532452  0.003301  3.902106  0.002
N  N74  1  0.79262728  0.21927101  0.65578901  1  0.222898  -0.00751  3.590627  -0.007  0.269291  0.002818  3.846358  0.004  0.267078  -0.001888  3.867619  -0.001  -0.106563  0.268788  0.010144  3.832354  0.011
N  N75  1  0.20736349  0.78073166  0.34420535  1  0.223056  -0.007477  3.590052  -0.007  0.269418  0.002817  3.845755  0.004  0.267205  -0.001887  3.867014  -0.001  -0.106495  0.268914  0.010146  3.83176  0.011
O  O76  1  0.66657595  0.25868690  0.58825593  1  -0.591913  0.053889  1.986221  0.025  -0.525455  0.062463  2.278723  0.025  -0.555652  0.059951  2.269495  0.025  -0.219636  -0.503388  0.065808  2.285404  0.027
O  O77  1  0.33341348  0.74132167  0.41173901  1  -0.592065  0.053914  1.98599  0.025  -0.525605  0.062467  2.278516  0.025  -0.555803  0.059953  2.269291  0.025  -0.219683  -0.503533  0.065812  2.285196  0.027
O  O78  1  0.64354658  0.58615155  0.35530952  1  -0.676234  0.033723  2.044177  0.017  -0.616953  0.044283  2.309732  0.024  -0.647246  0.038525  2.294152  0.018  -0.310471  -0.593319  0.050772  2.319808  0.03
O  O79  1  0.35646909  0.41385845  0.64469383  1  -0.676075  0.033701  2.044527  0.017  -0.616847  0.044274  2.310013  0.024  -0.647136  0.038517  2.294418  0.018  -0.310398  -0.593224  0.050763  2.32011  0.03
O  O80  1  0.54980505  0.82156542  0.18520773  1  -0.651898  0.02852  2.190853  0.023  -0.576642  0.036127  2.482097  0.028  -0.615883  0.032132  2.463318  0.025  -0.287969  -0.54869  0.03852  2.494217  0.029
O  O81  1  0.45020621  0.17843508  0.81479255  1  -0.651901  0.028544  2.191028  0.023  -0.576693  0.036124  2.482205  0.028  -0.615939  0.032131  2.46342  0.025  -0.288  -0.548722  0.038518  2.494312  0.029
O  O82  1  0.41021743  0.45147145  0.36526272  1  -0.665372  0.030637  1.997161  0.018  -0.603035  0.038073  2.256266  0.022  -0.63335  0.034023  2.243279  0.018  -0.310758  -0.579683  0.042285  2.263876  0.026
O  O83  1  0.58979084  0.54853375  0.63474145  1  -0.665227  0.030641  1.997051  0.018  -0.602823  0.038071  2.256157  0.022  -0.633137  0.034022  2.243178  0.018  -0.310738  -0.579474  0.042282  2.263766  0.026
O  O84  1  0.36347562  0.23615796  0.49107325  1  -0.688715  0.029321  2.071045  0.016  -0.61194  0.036814  2.321617  0.02  -0.643295  0.03325  2.307269  0.017  -0.304018  -0.588386  0.040426  2.330285  0.024
O  O85  1  0.63653773  0.76384492  0.50893129  1  -0.688565  0.029279  2.070747  0.016  -0.611991  0.036813  2.321586  0.02  -0.643343  0.033248  2.307235  0.017  -0.304053  -0.588437  0.040425  2.330255  0.024
O  O86  1  0.74795395  0.91855086  0.76101633  1  -0.668816  0.035157  2.048807  0.024  -0.604988  0.040242  2.315119  0.027  -0.635106  0.035593  2.301657  0.022  -0.320333  -0.580886  0.044401  2.322737  0.031
O  O87  1  0.25205817  0.08144020  0.23897400  1  -0.669062  0.035189  2.04898  0.025  -0.605053  0.040244  2.315179  0.027  -0.635187  0.035597  2.301721  0.022  -0.320436  -0.580953  0.044405  2.3228  0.031
O  O88  1  0.71873856  0.89671477  0.97384575  1  -0.619919  -0.005633  2.183735  -0.004  -0.559504  5.4e-05  2.466316  0.007  -0.59567  -0.000678  2.455771  0.007  -0.305053  -0.533148  0.000268  2.469875  0.006
O  O89  1  0.28126574  0.10328804  0.02614267  1  -0.619859  -0.005635  2.183478  -0.004  -0.559577  5.7e-05  2.466316  0.007  -0.595741  -0.000676  2.455756  0.007  -0.305143  -0.533218  0.000271  2.469876  0.006
O  O90  1  0.44584562  0.93264444  0.72994937  1  -0.683343  0.034119  2.068391  0.022  -0.60888  0.040058  2.324586  0.025  -0.639485  0.035491  2.309159  0.02  -0.310719  -0.585624  0.04445  2.334979  0.029
O  O91  1  0.55414658  0.06735942  0.27005608  1  -0.683438  0.034124  2.068361  0.022  -0.608977  0.040061  2.324579  0.025  -0.639579  0.035494  2.309144  0.02  -0.310787  -0.585717  0.044453  2.334972  0.029
O  O92  1  0.43962977  0.86437706  0.95270750  1  -0.603441  -0.007449  2.166023  -0.006  -0.546273  0.000808  2.450951  0.006  -0.580902  -0.000767  2.439333  0.004  -0.298617  -0.520822  0.002171  2.455307  0.007
O  O93  1  0.56037080  0.13561623  0.04730024  1  -0.603348  -0.007443  2.166092  -0.006  -0.546217  0.000804  2.451058  0.006  -0.580848  -0.000769  2.439444  0.004  -0.298582  -0.520764  0.002166  2.455414  0.007
O  O94  1  0.67080644  0.01390786  0.49834682  1  -0.827264  0.029476  1.919328  0.019  -0.775491  0.037376  2.14164  0.024  -0.799149  0.033557  2.107943  0.021  -0.574481  -0.757119  0.040988  2.165173  0.027
O  O95  1  0.32919609  0.98609373  0.50165303  1  -0.827443  0.029481  1.919197  0.019  -0.775671  0.037375  2.141495  0.024  -0.79933  0.033555  2.107789  0.021  -0.57453  -0.757306  0.040988  2.165032  0.027
