# generated using pymatgen
data_ZnH13C10NO10
_symmetry_space_group_name_H-M   'P 1'
_cell_length_a   9.86937237
_cell_length_b   9.96275596
_cell_length_c   13.36210000
_cell_angle_alpha   98.02918009
_cell_angle_beta   90.00000000
_cell_angle_gamma   90.00000000
_symmetry_Int_Tables_number   1
_chemical_formula_structural   ZnH13C10NO10
_chemical_formula_sum   'Zn4 H52 C40 N4 O40'
_cell_volume   1300.96429743
_cell_formula_units_Z   4
loop_
 _symmetry_equiv_pos_site_id
 _symmetry_equiv_pos_as_xyz
  1  'x, y, z'
loop_
 _atom_site_type_symbol
 _atom_site_label
 _atom_site_symmetry_multiplicity
 _atom_site_fract_x
 _atom_site_fract_y
 _atom_site_fract_z
 _atom_site_occupancy
 _atom_site_hle17_bader_spin_density
 _atom_site_hle17_ddec_charge
 _atom_site_hle17_ddec_spin_density
 _atom_site_hle17_ddec_sum_bond_order
 _atom_site_hle17_magmom
 _atom_site_hse06_10hf_bader_spin_density
 _atom_site_hse06_10hf_ddec_charge
 _atom_site_hse06_10hf_ddec_spin_density
 _atom_site_hse06_10hf_ddec_sum_bond_order
 _atom_site_hse06_10hf_magmom
 _atom_site_hse06_bader_spin_density
 _atom_site_hse06_ddec_charge
 _atom_site_hse06_ddec_spin_density
 _atom_site_hse06_ddec_sum_bond_order
 _atom_site_hse06_magmom
 _atom_site_pbe_bader_charge
 _atom_site_pbe_bader_spin_density
 _atom_site_pbe_cm5_charge
 _atom_site_pbe_ddec_charge
 _atom_site_pbe_ddec_spin_density
 _atom_site_pbe_ddec_sum_bond_order
 _atom_site_pbe_magmom
Zn  Zn0  1  0.25520366  0.22225541  0.82736205  1  0  1.199282  0  1.667062  0  0  1.044017  0  2.101957  0  0  1.089426  0  2.043936  0  1.370304  0  0.668823  1.011862  0  2.142118  0
Zn  Zn1  1  0.75520304  0.27774501  0.17263770  1  0  1.199322  0  1.666999  0  0  1.044066  0  2.101876  0  0  1.089471  0  2.043857  0  1.37035  0  0.668836  1.011909  0  2.142035  0
Zn  Zn2  1  0.74479711  0.77774442  0.17263809  1  0  1.199296  0  1.667057  0  0  1.044024  0  2.101953  0  0  1.089431  0  2.043932  0  1.370336  0  0.668822  1.011869  0  2.142114  0
Zn  Zn3  1  0.24479672  0.72225583  0.82736254  1  0  1.199344  0  1.666959  0  0  1.044069  0  2.101859  0  0  1.089479  0  2.043837  0  1.370292  0  0.668851  1.011915  0  2.142017  0
H  H4  1  0.12348607  0.12007288  0.67732917  1  0  0.40182  0  0.915838  0  0  0.370146  0  0.982291  0  0  0.381385  0  0.965981  0  0.655316  0  0.279968  0.362136  0  0.993962  0
H  H5  1  0.62348443  0.37992653  0.32266898  1  0  0.401854  0  0.915773  0  0  0.37016  0  0.982266  0  0  0.381398  0  0.965957  0  0.655332  0  0.27997  0.36215  0  0.993937  0
H  H6  1  0.87651673  0.87992695  0.32266947  1  0  0.401852  0  0.915794  0  0  0.37016  0  0.982284  0  0  0.381398  0  0.965975  0  0.655328  0  0.279971  0.362149  0  0.993955  0
H  H7  1  0.37651533  0.62007432  0.67733051  1  0  0.401824  0  0.915831  0  0  0.370132  0  0.982319  0  0  0.381371  0  0.966009  0  0.655355  0  0.279963  0.362121  0  0.99399  0
H  H8  1  0.14411048  0.98978807  0.73198534  1  0  0.425236  0  0.865844  0  0  0.395955  0  0.931555  0  0  0.406311  0  0.916524  0  0.63418  0  0.291404  0.388596  0  0.942203  0
H  H9  1  0.64411188  0.51021219  0.26801378  1  0  0.425217  0  0.865901  0  0  0.395934  0  0.931594  0  0  0.406292  0  0.91656  0  0.63417  0  0.291397  0.388575  0  0.942241  0
H  H10  1  0.85588928  0.01021177  0.26801404  1  0  0.425254  0  0.865852  0  0  0.395972  0  0.931541  0  0  0.406331  0  0.916505  0  0.634181  0  0.291415  0.388615  0  0.942187  0
H  H11  1  0.35588991  0.48978967  0.73198656  1  0  0.425265  0  0.865824  0  0  0.395988  0  0.931513  0  0  0.406346  0  0.916479  0  0.634192  0  0.29143  0.38863  0  0.94216  0
H  H12  1  0.09724935  0.44296598  0.84037981  1  0  0.431371  0  0.870912  0  0  0.398526  0  0.93763  0  0  0.409261  0  0.92206  0  0.656786  0  0.290866  0.390861  0  0.948744  0
H  H13  1  0.59724872  0.05703546  0.15962079  1  0  0.431428  0  0.870851  0  0  0.398593  0  0.937551  0  0  0.409326  0  0.921983  0  0.656788  0  0.290903  0.390928  0  0.948664  0
H  H14  1  0.90275143  0.55703385  0.15962032  1  0  0.431433  0  0.870845  0  0  0.3986  0  0.937541  0  0  0.409334  0  0.921972  0  0.656781  0  0.290897  0.390935  0  0.948653  0
H  H15  1  0.40275104  0.94296640  0.84038105  1  0  0.431436  0  0.87084  0  0  0.398605  0  0.937532  0  0  0.409339  0  0.921963  0  0.656786  0  0.290902  0.390941  0  0.948643  0
H  H16  1  0.01720373  0.32528030  0.88887832  1  0  0.430889  0  0.869908  0  0  0.397306  0  0.936984  0  0  0.40842  0  0.920914  0  0.65581  0  0.291644  0.38956  0  0.948161  0
H  H17  1  0.51720209  0.17471911  0.11112057  1  0  0.430908  0  0.869879  0  0  0.397295  0  0.936991  0  0  0.408408  0  0.920924  0  0.656261  0  0.29163  0.389549  0  0.948169  0
H  H18  1  0.98279603  0.67471851  0.11112021  1  0  0.430897  0  0.869898  0  0  0.397319  0  0.936964  0  0  0.408433  0  0.920896  0  0.656284  0  0.291648  0.389572  0  0.948144  0
H  H19  1  0.48279666  0.82528072  0.88887881  1  0  0.430881  0  0.869921  0  0  0.397303  0  0.936988  0  0  0.408417  0  0.920919  0  0.656332  0  0.291639  0.389557  0  0.948166  0
H  H20  1  0.36346587  0.45666479  0.92108815  1  0  0.421193  0  0.875379  0  0  0.391954  0  0.938936  0  0  0.402559  0  0.923756  0  0.639113  0  0.292081  0.384363  0  0.949789  0
H  H21  1  0.86346220  0.04333665  0.07891021  1  0  0.421179  0  0.875396  0  0  0.391941  0  0.938953  0  0  0.402547  0  0.923772  0  0.63911  0  0.292084  0.38435  0  0.949804  0
H  H22  1  0.63653490  0.54333606  0.07891134  1  0  0.421155  0  0.875458  0  0  0.391918  0  0.938995  0  0  0.402521  0  0.923817  0  0.639113  0  0.292057  0.384326  0  0.949848  0
H  H23  1  0.13653350  0.95666420  0.92108853  1  0  0.421174  0  0.875426  0  0  0.391935  0  0.938967  0  0  0.402539  0  0.923789  0  0.639111  0  0.292067  0.384344  0  0.949819  0
H  H24  1  0.40286655  0.32344960  0.96897295  1  0  0.409121  0  0.90293  0  0  0.375801  0  0.97119  0  0  0.387381  0  0.954444  0  0.652102  0  0.286531  0.367616  0  0.983035  0
H  H25  1  0.90286390  0.17655183  0.03102541  1  0  0.40912  0  0.902953  0  0  0.375802  0  0.971208  0  0  0.387383  0  0.954461  0  0.652068  0  0.286539  0.367617  0  0.983053  0
H  H26  1  0.59713524  0.67655023  0.03102494  1  0  0.409076  0  0.902977  0  0  0.375747  0  0.971254  0  0  0.387327  0  0.954507  0  0.652077  0  0.286503  0.36756  0  0.983102  0
H  H27  1  0.09713384  0.82344901  0.96897259  1  0  0.409086  0  0.902967  0  0  0.375785  0  0.971193  0  0  0.387364  0  0.954449  0  0.65209  0  0.286533  0.3676  0  0.983037  0
H  H28  1  0.62389580  0.04645066  0.52964201  1  0  0.126395  0  0.967569  0  0  0.12696  0  1.043327  0  0  0.131693  0  1.038257  0  0.226079  0  0.130681  0.123466  0  1.047206  0
H  H29  1  0.12389643  0.45355078  0.47035785  1  0  0.126428  0  0.967533  0  0  0.126997  0  1.043281  0  0  0.131736  0  1.038195  0  0.226103  0  0.130694  0.123504  0  1.04716  0
H  H30  1  0.37610497  0.95355019  0.47036048  1  0  0.126425  0  0.967556  0  0  0.12699  0  1.043306  0  0  0.131725  0  1.038224  0  0.226087  0  0.130688  0.123497  0  1.047184  0
H  H31  1  0.87610536  0.54644905  0.52964229  1  0  0.126481  0  0.967472  0  0  0.127034  0  1.04323  0  0  0.131769  0  1.038158  0  0.226103  0  0.130698  0.123522  0  1.047128  0
H  H32  1  0.58604233  0.28047383  0.82487480  1  0  0.148018  0  0.953384  0  0  0.154373  0  1.017423  0  0  0.158907  0  1.012954  0  0.187975  0  0.121844  0.150963  0  1.020822  0
H  H33  1  0.08604296  0.21952457  0.17512623  1  0  0.148028  0  0.953373  0  0  0.154381  0  1.01742  0  0  0.158914  0  1.012954  0  0.188103  0  0.121827  0.150972  0  1.020816  0
H  H34  1  0.41395844  0.71952600  0.17512683  1  0  0.148041  0  0.953394  0  0  0.154399  0  1.01744  0  0  0.158929  0  1.012974  0  0.188117  0  0.121832  0.150987  0  1.020834  0
H  H35  1  0.91395376  0.78047425  0.82487604  1  0  0.148045  0  0.953382  0  0  0.154393  0  1.017415  0  0  0.158927  0  1.012948  0  0.187974  0  0.121816  0.150979  0  1.020824  0
H  H36  1  0.92419656  0.33149210  0.62355357  1  0  0.136754  0  0.9476  0  0  0.141337  0  1.013283  0  0  0.145148  0  1.010337  0  0.194529  0  0.136823  0.138196  0  1.016465  0
H  H37  1  0.42419617  0.16850528  0.37644736  1  0  0.136792  0  0.947539  0  0  0.141358  0  1.013229  0  0  0.145172  0  1.010277  0  0.194507  0  0.136816  0.138192  0  1.01644  0
H  H38  1  0.07580320  0.66850874  0.37644592  1  0  0.136735  0  0.947578  0  0  0.141334  0  1.013261  0  0  0.145144  0  1.010315  0  0.194558  0  0.13682  0.138192  0  1.016444  0
H  H39  1  0.57580156  0.83149253  0.62355256  1  0  0.136745  0  0.947596  0  0  0.141309  0  1.013296  0  0  0.145122  0  1.010344  0  0.19456  0  0.136791  0.138151  0  1.016495  0
H  H40  1  0.83658309  0.04494535  0.45173099  1  0  0.133453  0  0.937365  0  0  0.14383  0  0.998623  0  0  0.147227  0  0.99604  0  0.115595  0  0.126528  0.141349  0  1.000707  0
H  H41  1  0.33658371  0.45505609  0.54826736  1  0  0.133461  0  0.937281  0  0  0.14384  0  0.998552  0  0  0.147239  0  0.995965  0  0.115615  0  0.126517  0.141358  0  1.000637  0
H  H42  1  0.16341465  0.95505549  0.54826850  1  0  0.133467  0  0.937304  0  0  0.143836  0  0.998572  0  0  0.147234  0  0.995987  0  0.115599  0  0.126518  0.141354  0  1.000656  0
H  H43  1  0.66341909  0.54494476  0.45173213  1  0  0.133449  0  0.937356  0  0  0.143838  0  0.998608  0  0  0.147236  0  0.996024  0  0.115613  0  0.126537  0.141358  0  1.000692  0
H  H44  1  0.94490000  0.18952485  0.47832358  1  0  0.132936  0  0.913023  0  0  0.143164  0  0.974162  0  0  0.146083  0  0.972435  0  0.12857  0  0.125104  0.141022  0  0.975678  0
H  H45  1  0.44490063  0.31047557  0.52167617  1  0  0.132904  0  0.913026  0  0  0.143131  0  0.974173  0  0  0.146051  0  0.972447  0  0.128549  0  0.125105  0.140991  0  0.975688  0
H  H46  1  0.05509773  0.81047498  0.52167581  1  0  0.132915  0  0.913028  0  0  0.143126  0  0.974187  0  0  0.146047  0  0.972459  0  0.128537  0  0.125094  0.140985  0  0.975703  0
H  H47  1  0.55510217  0.68952426  0.47832247  1  0  0.132954  0  0.91301  0  0  0.143181  0  0.974151  0  0  0.146103  0  0.972421  0  0.128587  0  0.125115  0.141041  0  0.975668  0
H  H48  1  0.64873831  0.48426210  0.88520933  1  0  0.111442  0  0.921946  0  0  0.120178  0  0.985316  0  0  0.12261  0  0.982623  0  0.130747  0  0.119118  0.118543  0  0.987236  0
H  H49  1  0.14873793  0.01573731  0.11479031  1  0  0.111484  0  0.921888  0  0  0.1202  0  0.985281  0  0  0.122632  0  0.982589  0  0.130745  0  0.119112  0.118566  0  0.987203  0
H  H50  1  0.35126144  0.51573875  0.11479016  1  0  0.111434  0  0.921969  0  0  0.12017  0  0.985334  0  0  0.122603  0  0.982641  0  0.130749  0  0.119118  0.118536  0  0.987255  0
H  H51  1  0.85126082  0.98426252  0.88520982  1  0  0.111491  0  0.921925  0  0  0.120216  0  0.985286  0  0  0.122658  0  0.982597  0  0.130775  0  0.119128  0.118589  0  0.987209  0
H  H52  1  0.80713643  0.56246208  0.92260771  1  0  0.126158  0  0.903588  0  0  0.135156  0  0.964549  0  0  0.137725  0  0.962339  0  0.127644  0  0.125443  0.133119  0  0.966689  0
H  H53  1  0.30713605  0.93753817  0.07739142  1  0  0.126208  0  0.903505  0  0  0.135197  0  0.964474  0  0  0.137766  0  0.962264  0  0.127667  0  0.12547  0.13316  0  0.966616  0
H  H54  1  0.19286434  0.43753775  0.07739242  1  0  0.126156  0  0.903593  0  0  0.135154  0  0.964548  0  0  0.137722  0  0.962339  0  0.127646  0  0.125446  0.133118  0  0.966689  0
H  H55  1  0.69286371  0.06246166  0.92260871  1  0  0.126198  0  0.903533  0  0  0.13519  0  0.964482  0  0  0.137768  0  0.962276  0  0.127648  0  0.125465  0.133159  0  0.966627  0
C  C56  1  0.66139869  0.12014688  0.59123888  1  0  0.047495  0  3.566826  0  0  -0.013766  0  3.83193  0  0  -0.004223  0  3.842825  0  0.387606  0  0.053266  -0.020192  0  3.825265  0
C  C57  1  0.16139932  0.37985253  0.40875926  1  0  0.047451  0  3.566881  0  0  -0.013795  0  3.831963  0  0  -0.004249  0  3.842855  0  0.387625  0  0.05326  -0.020221  0  3.825297  0
C  C58  1  0.33860107  0.87985396  0.40876136  1  0  0.047345  0  3.566953  0  0  -0.013905  0  3.832046  0  0  -0.004359  0  3.842939  0  0.387573  0  0.053236  -0.020331  0  3.825378  0
C  C59  1  0.83860246  0.62014832  0.59124247  1  0  0.047369  0  3.566966  0  0  -0.013832  0  3.831989  0  0  -0.00429  0  3.842883  0  0.387429  0  0.053263  -0.020243  0  3.825336  0
C  C60  1  0.59439443  0.15199453  0.68264055  1  0  -0.058599  0  3.752191  0  0  -0.03925  0  4.005207  0  0  -0.047952  0  4.025175  0  0.027465  0  -0.002371  -0.033534  0  3.991951  0
C  C61  1  0.09439607  0.34800893  0.31736100  1  0  -0.058505  0  3.752075  0  0  -0.039172  0  4.005105  0  0  -0.047874  0  4.02507  0  0.027396  0  -0.002374  -0.033456  0  3.99185  0
C  C62  1  0.40560431  0.84800935  0.31736225  1  0  -0.05851  0  3.75203  0  0  -0.039172  0  4.005068  0  0  -0.047874  0  4.025032  0  0.027522  0  -0.002377  -0.033455  0  3.991811  0
C  C63  1  0.90560369  0.65198989  0.68263827  1  0  -0.058647  0  3.752335  0  0  -0.039338  0  4.00534  0  0  -0.048039  0  4.025301  0  0.027594  0  -0.002455  -0.033621  0  3.99208  0
C  C64  1  0.64363769  0.25449738  0.75518305  1  0  -0.108946  0  3.608075  0  0  -0.153246  0  3.865975  0  0  -0.14826  0  3.877283  0  0.007568  0  -0.062339  -0.156417  0  3.858313  0
C  C65  1  0.14363831  0.24550203  0.24481659  1  0  -0.109144  0  3.607603  0  0  -0.15347  0  3.865541  0  0  -0.148482  0  3.876845  0  0.007543  0  -0.062416  -0.156642  0  3.85789  0
C  C66  1  0.35636207  0.74550448  0.24481804  1  0  -0.109095  0  3.607729  0  0  -0.153392  0  3.865678  0  0  -0.148401  0  3.876982  0  0.007538  0  -0.062389  -0.156551  0  3.858003  0
C  C67  1  0.85636043  0.75449679  0.75518643  1  0  -0.109115  0  3.607652  0  0  -0.153378  0  3.865585  0  0  -0.148388  0  3.876885  0  0.007669  0  -0.062317  -0.156556  0  3.857939  0
C  C68  1  0.76203022  0.32263968  0.73421291  1  0  0.251454  0  3.795375  0  0  0.241726  0  4.062631  0  0  0.248452  0  4.078397  0  0.538888  0  0.106091  0.237034  0  4.052235  0
C  C69  1  0.26203287  0.17735872  0.26579036  1  0  0.251723  0  3.795047  0  0  0.241988  0  4.062233  0  0  0.248712  0  4.078002  0  0.539077  0  0.106212  0.237298  0  4.051831  0
C  C70  1  0.23796751  0.67736117  0.26578957  1  0  0.251591  0  3.795082  0  0  0.24182  0  4.062422  0  0  0.248544  0  4.07819  0  0.539085  0  0.106207  0.237131  0  4.052025  0
C  C71  1  0.73796486  0.82264010  0.73421116  1  0  0.251712  0  3.795073  0  0  0.241907  0  4.06241  0  0  0.248632  0  4.078177  0  0.539038  0  0.106164  0.237219  0  4.052004  0
C  C72  1  0.82961608  0.28423862  0.64255682  1  0  -0.004892  0  3.50464  0  0  -0.057216  0  3.759762  0  0  -0.049734  0  3.769924  0  0.447047  0  0.062458  -0.062986  0  3.755065  0
C  C73  1  0.32961569  0.21575775  0.35744325  1  0  -0.00491  0  3.504705  0  0  -0.057202  0  3.759769  0  0  -0.049721  0  3.769932  0  0.44698  0  0.06252  -0.06295  0  3.755087  0
C  C74  1  0.17038368  0.71576121  0.35744256  1  0  -0.004817  0  3.50451  0  0  -0.05717  0  3.759715  0  0  -0.049689  0  3.76988  0  0.446989  0  0.062472  -0.062941  0  3.75502  0
C  C75  1  0.67038609  0.78423904  0.64255806  1  0  -0.004966  0  3.504698  0  0  -0.057233  0  3.759807  0  0  -0.04975  0  3.76997  0  0.447013  0  0.062503  -0.062987  0  3.75512  0
C  C76  1  0.46868735  0.07210779  0.70062364  1  0  0.662801  0  3.925981  0  0  0.602247  0  4.237017  0  0  0.636679  0  4.227949  0  1.641989  0  0.211084  0.578735  0  4.242739  0
C  C77  1  0.96868976  0.42789161  0.29937525  1  0  0.66269  0  3.926171  0  0  0.602186  0  4.237163  0  0  0.636621  0  4.228094  0  1.641964  0  0.211061  0.57867  0  4.242884  0
C  C78  1  0.53131443  0.92789305  0.29937959  1  0  0.662852  0  3.925881  0  0  0.602292  0  4.236925  0  0  0.636724  0  4.227859  0  1.642422  0  0.211117  0.578781  0  4.242645  0
C  C79  1  0.03131202  0.57211328  0.70062915  1  0  0.662732  0  3.926216  0  0  0.602237  0  4.23716  0  0  0.636673  0  4.228091  0  1.642006  0  0.211054  0.578725  0  4.242879  0
C  C80  1  0.83909388  0.15512780  0.47382758  1  0  -0.189225  0  3.552521  0  0  -0.247003  0  3.79718  0  0  -0.2488  0  3.80207  0  0.236779  0  -0.051832  -0.245722  0  3.79414  0
C  C81  1  0.33909552  0.34487059  0.52617270  1  0  -0.189105  0  3.552321  0  0  -0.246889  0  3.797007  0  0  -0.248693  0  3.801894  0  0.236775  0  -0.051783  -0.245615  0  3.793982  0
C  C82  1  0.16090385  0.84487101  0.52617245  1  0  -0.189255  0  3.552494  0  0  -0.247008  0  3.797145  0  0  -0.248808  0  3.802035  0  0.236786  0  -0.051812  -0.245732  0  3.794113  0
C  C83  1  0.66090626  0.65512823  0.47382732  1  0  -0.189187  0  3.552427  0  0  -0.247  0  3.797113  0  0  -0.248796  0  3.802002  0  0.236755  0  -0.05183  -0.245731  0  3.794093  0
C  C84  1  0.76206670  0.22355798  0.39442056  1  0  0.709532  0  3.85505  0  0  0.651861  0  4.171137  0  0  0.685573  0  4.164068  0  1.63364  0  0.21783  0.628892  0  4.175105  0
C  C85  1  0.26206631  0.27644345  0.60558003  1  0  0.709536  0  3.855121  0  0  0.651838  0  4.171252  0  0  0.685561  0  4.164172  0  1.633633  0  0.217849  0.628873  0  4.175221  0
C  C86  1  0.23793205  0.77644387  0.60558053  1  0  0.709564  0  3.855018  0  0  0.65189  0  4.171102  0  0  0.6856  0  4.16404  0  1.633628  0  0.217862  0.628924  0  4.175071  0
C  C87  1  0.73793852  0.72355739  0.39442170  1  0  0.709516  0  3.855101  0  0  0.651891  0  4.171114  0  0  0.6856  0  4.164054  0  1.633144  0  0.217877  0.628925  0  4.175081  0
C  C88  1  0.75804111  0.46650352  0.89232929  1  0  -0.08886  0  3.589233  0  0  -0.146532  0  3.853361  0  0  -0.143358  0  3.853675  0  0.337422  0  -0.064377  -0.149049  0  3.853729  0
C  C89  1  0.25804174  0.03349690  0.10767120  1  0  -0.08899  0  3.589079  0  0  -0.146659  0  3.853227  0  0  -0.143485  0  3.853539  0  0.337417  0  -0.064422  -0.149181  0  3.853602  0
C  C90  1  0.24195865  0.53349732  0.10767169  1  0  -0.088889  0  3.589272  0  0  -0.146539  0  3.853391  0  0  -0.143365  0  3.853706  0  0.337453  0  -0.064405  -0.149061  0  3.853766  0
C  C91  1  0.74195701  0.96650496  0.89233139  1  0  -0.089049  0  3.589154  0  0  -0.146661  0  3.85324  0  0  -0.143533  0  3.853607  0  0.337246  0  -0.064447  -0.149217  0  3.853656  0
C  C92  1  0.78494657  0.36476498  0.96560846  1  0  0.678748  0  3.850297  0  0  0.617648  0  4.163695  0  0  0.650625  0  4.157098  0  1.617785  0  0.218901  0.59542  0  4.167627  0
C  C93  1  0.28494416  0.13523544  0.03438904  1  0  0.678845  0  3.850244  0  0  0.617671  0  4.163737  0  0  0.650649  0  4.15714  0  1.61785  0  0.218878  0.595445  0  4.167666  0
C  C94  1  0.21505522  0.63523485  0.03438868  1  0  0.678766  0  3.850363  0  0  0.617633  0  4.163801  0  0  0.650612  0  4.157204  0  1.617793  0  0.21888  0.595409  0  4.167731  0
C  C95  1  0.71505358  0.86476236  0.96560863  1  0  0.678833  0  3.850265  0  0  0.61769  0  4.16371  0  0  0.650679  0  4.157117  0  1.617934  0  0.218893  0.595472  0  4.167642  0
N  N96  1  0.77720241  0.18568910  0.57422260  1  0  0.060907  0  3.608659  0  0  0.153746  0  3.818222  0  0  0.142711  0  3.843928  0  -1.236703  0  -0.205939  0.160544  0  3.801346  0
N  N97  1  0.27720101  0.31430929  0.42577769  1  0  0.06077  0  3.608697  0  0  0.153603  0  3.818268  0  0  0.142566  0  3.843972  0  -1.236666  0  -0.206031  0.1604  0  3.801388  0
N  N98  1  0.22279836  0.81431174  0.42577764  1  0  0.060963  0  3.608571  0  0  0.153821  0  3.818129  0  0  0.142785  0  3.843834  0  -1.236685  0  -0.20593  0.160618  0  3.801253  0
N  N99  1  0.72279875  0.68568851  0.57422149  1  0  0.060974  0  3.608508  0  0  0.153804  0  3.818048  0  0  0.142768  0  3.843756  0  -1.236688  0  -0.205961  0.160604  0  3.801165  0
O  O100  1  0.11398192  0.08569307  0.74418378  1  0  -0.828496  0  1.862286  0  0  -0.771093  0  2.05194  0  0  -0.791741  0  2.017461  0  -1.275312  0  -0.586264  -0.755925  0  2.075809  0
O  O101  1  0.61398231  0.41430938  0.25581468  1  0  -0.828502  0  1.862274  0  0  -0.771092  0  2.051912  0  0  -0.791741  0  2.017435  0  -1.275326  0  -0.586262  -0.75592  0  2.075779  0
O  O102  1  0.88601885  0.91430777  0.25581571  1  0  -0.828547  0  1.862269  0  0  -0.771134  0  2.051893  0  0  -0.791785  0  2.017416  0  -1.27535  0  -0.586279  -0.755962  0  2.07576  0
O  O103  1  0.38601847  0.58569349  0.74418352  1  0  -0.828527  0  1.862259  0  0  -0.771121  0  2.051902  0  0  -0.79177  0  2.01742  0  -1.275365  0  -0.586286  -0.755951  0  2.07577  0
O  O104  1  0.87263806  0.27340243  0.94166480  1  0  -0.61516  0  2.017726  0  0  -0.549076  0  2.234383  0  0  -0.574918  0  2.224924  0  -1.193083  0  -0.296879  -0.531213  0  2.240606  0
O  O105  1  0.37263869  0.22659698  0.05833484  1  0  -0.615224  0  2.017641  0  0  -0.549105  0  2.234329  0  0  -0.574945  0  2.22487  0  -1.193114  0  -0.296884  -0.531241  0  2.240551  0
O  O106  1  0.12736068  0.72659740  0.05833534  1  0  -0.615177  0  2.017728  0  0  -0.549097  0  2.234399  0  0  -0.574936  0  2.224938  0  -1.19306  0  -0.296873  -0.531233  0  2.240621  0
O  O107  1  0.62736208  0.77339981  0.94166347  1  0  -0.615194  0  2.017749  0  0  -0.549093  0  2.234424  0  0  -0.574936  0  2.224959  0  -1.193112  0  -0.296861  -0.531229  0  2.240644  0
O  O108  1  0.10834022  0.36239400  0.87657459  1  0  -0.854056  0  1.920991  0  0  -0.792175  0  2.136713  0  0  -0.814752  0  2.101761  0  -1.28408  0  -0.583656  -0.77618  0  2.160911  0
O  O109  1  0.60833960  0.13760541  0.12342505  1  0  -0.854151  0  1.920894  0  0  -0.792261  0  2.136678  0  0  -0.814835  0  2.101729  0  -1.284556  0  -0.583696  -0.776265  0  2.160876  0
O  O110  1  0.89165954  0.63760482  0.12342469  1  0  -0.854145  0  1.920944  0  0  -0.792276  0  2.136668  0  0  -0.814852  0  2.101716  0  -1.284559  0  -0.583705  -0.776281  0  2.160869  0
O  O111  1  0.39166016  0.86239645  0.87657679  1  0  -0.854135  0  1.920931  0  0  -0.792262  0  2.136636  0  0  -0.814837  0  2.101683  0  -1.284546  0  -0.583697  -0.776267  0  2.160836  0
O  O112  1  0.71604351  0.38264318  0.04705963  1  0  -0.638716  0  2.063306  0  0  -0.559379  0  2.306373  0  0  -0.589533  0  2.295752  0  -1.178903  0  -0.300877  -0.538308  0  2.313244  0
O  O113  1  0.21604413  0.11735623  0.95294150  1  0  -0.63872  0  2.063392  0  0  -0.559346  0  2.306482  0  0  -0.589504  0  2.295867  0  -1.178937  0  -0.300852  -0.538274  0  2.31335  0
O  O114  1  0.28395524  0.61735666  0.95294125  1  0  -0.638707  0  2.063425  0  0  -0.55934  0  2.306488  0  0  -0.589502  0  2.295878  0  -1.178942  0  -0.300863  -0.53827  0  2.313358  0
O  O115  1  0.78395563  0.88264258  0.04705927  1  0  -0.638722  0  2.063339  0  0  -0.559365  0  2.306418  0  0  -0.589519  0  2.295792  0  -1.178893  0  -0.300873  -0.538289  0  2.313278  0
O  O116  1  0.40237614  0.36408278  0.90440480  1  0  -0.824656  0  1.898229  0  0  -0.765063  0  2.099052  0  0  -0.787466  0  2.06463  0  -1.272972  0  -0.575455  -0.748985  0  2.122915  0
O  O117  1  0.90237248  0.13591663  0.09559334  1  0  -0.824662  0  1.898262  0  0  -0.765047  0  2.099057  0  0  -0.787453  0  2.064633  0  -1.272934  0  -0.575477  -0.74897  0  2.122922  0
O  O118  1  0.59762564  0.63591604  0.09559522  1  0  -0.824598  0  1.8983  0  0  -0.764989  0  2.099086  0  0  -0.787391  0  2.064664  0  -1.272958  0  -0.575428  -0.748908  0  2.122948  0
O  O119  1  0.09762424  0.86408422  0.90440465  1  0  -0.824613  0  1.898263  0  0  -0.765018  0  2.099061  0  0  -0.787425  0  2.06464  0  -1.272979  0  -0.575442  -0.748941  0  2.122923  0
O  O120  1  0.66947925  0.30711220  0.42255699  1  0  -0.627181  0  1.956694  0  0  -0.576363  0  2.183669  0  0  -0.601671  0  2.175486  0  -1.183484  0  -0.316783  -0.558305  0  2.189011  0
O  O121  1  0.16947886  0.19288924  0.57744286  1  0  -0.627178  0  1.956758  0  0  -0.576355  0  2.183742  0  0  -0.601666  0  2.175555  0  -1.183469  0  -0.316793  -0.558297  0  2.189084  0
O  O122  1  0.33052152  0.69288864  0.57744250  1  0  -0.627196  0  1.956614  0  0  -0.576375  0  2.183584  0  0  -0.601682  0  2.175402  0  -1.183451  0  -0.3168  -0.558317  0  2.188925  0
O  O123  1  0.83052394  0.80711161  0.42255812  1  0  -0.627086  0  1.956708  0  0  -0.576299  0  2.18368  0  0  -0.601605  0  2.1755  0  -1.183028  0  -0.316747  -0.558241  0  2.189021  0
O  O124  1  0.80610597  0.18836014  0.30475724  1  0  -0.672415  0  2.079399  0  0  -0.595241  0  2.329093  0  0  -0.625172  0  2.318201  0  -1.179195  0  -0.30866  -0.573991  0  2.335822  0
O  O125  1  0.30610660  0.31164130  0.69524261  1  0  -0.672421  0  2.079411  0  0  -0.595261  0  2.329169  0  0  -0.625201  0  2.318275  0  -1.179155  0  -0.30867  -0.573998  0  2.335867  0
O  O126  1  0.19389278  0.81164071  0.69524300  1  0  -0.672406  0  2.079435  0  0  -0.595253  0  2.32918  0  0  -0.625188  0  2.318293  0  -1.179205  0  -0.308661  -0.573987  0  2.33587  0
O  O127  1  0.69389721  0.68835853  0.30475677  1  0  -0.672483  0  2.079365  0  0  -0.595303  0  2.329024  0  0  -0.625238  0  2.318136  0  -1.179139  0  -0.308712  -0.574052  0  2.33575  0
O  O128  1  0.42245746  0.99396948  0.62727192  1  0  -0.599317  0  1.960038  0  0  -0.550469  0  2.19471  0  0  -0.574363  0  2.187547  0  -1.18135  0  -0.308872  -0.533589  0  2.199407  0
O  O129  1  0.92245785  0.50603179  0.37272881  1  0  -0.599204  0  1.960031  0  0  -0.550462  0  2.194778  0  0  -0.574358  0  2.187617  0  -1.181303  0  -0.308848  -0.533576  0  2.199475  0
O  O130  1  0.57754736  0.00602630  0.37272854  1  0  -0.599353  0  1.960054  0  0  -0.550552  0  2.194824  0  0  -0.574445  0  2.187665  0  -1.181912  0  -0.308905  -0.533668  0  2.199516  0
O  O131  1  0.07755002  0.49397311  0.62726885  1  0  -0.59927  0  1.959887  0  0  -0.550482  0  2.194559  0  0  -0.574382  0  2.187398  0  -1.181272  0  -0.308858  -0.533603  0  2.199256  0
O  O132  1  0.42175833  0.08899157  0.79154984  1  0  -0.687407  0  2.09051  0  0  -0.617161  0  2.348236  0  0  -0.643268  0  2.333404  0  -1.192042  0  -0.330473  -0.598943  0  2.35821  0
O  O133  1  0.92175973  0.41100885  0.20844990  1  0  -0.687414  0  2.090587  0  0  -0.617162  0  2.348271  0  0  -0.643272  0  2.333443  0  -1.192048  0  -0.330474  -0.59893  0  2.358234  0
O  O134  1  0.57824143  0.91100725  0.20845093  1  0  -0.687417  0  2.090411  0  0  -0.617153  0  2.348119  0  0  -0.643262  0  2.333293  0  -1.191981  0  -0.330473  -0.598936  0  2.358092  0
O  O135  1  0.07823902  0.58899199  0.79155034  1  0  -0.687403  0  2.090792  0  0  -0.617137  0  2.348447  0  0  -0.643246  0  2.333618  0  -1.192118  0  -0.330459  -0.598917  0  2.358416  0
O  O136  1  0.81895279  0.42674819  0.79532864  1  0  -0.24709  0  2.412654  0  0  -0.172889  0  2.637675  0  0  -0.192951  0  2.645778  0  -1.073872  0  -0.161704  -0.158942  0  2.631823  0
O  O137  1  0.31895341  0.07324919  0.20467154  1  0  -0.247204  0  2.412616  0  0  -0.172926  0  2.637545  0  0  -0.192987  0  2.645648  0  -1.074084  0  -0.161726  -0.158979  0  2.631696  0
O  O138  1  0.18104697  0.57325063  0.20467139  1  0  -0.247119  0  2.412636  0  0  -0.172908  0  2.637665  0  0  -0.192969  0  2.645769  0  -1.074073  0  -0.161717  -0.15896  0  2.631816  0
O  O139  1  0.68104635  0.92675165  0.79532870  1  0  -0.247097  0  2.412525  0  0  -0.172915  0  2.637562  0  0  -0.192963  0  2.645678  0  -1.074085  0  -0.16171  -0.158957  0  2.631719  0
