# generated using pymatgen
data_ZnH16C20N6(OF2)2
_symmetry_space_group_name_H-M   'P 1'
_cell_length_a   7.09417401
_cell_length_b   8.48795739
_cell_length_c   9.51244212
_cell_angle_alpha   80.73547828
_cell_angle_beta   74.85157066
_cell_angle_gamma   74.26865971
_symmetry_Int_Tables_number   1
_chemical_formula_structural   ZnH16C20N6(OF2)2
_chemical_formula_sum   'Zn1 H16 C20 N6 O2 F4'
_cell_volume   529.66895569
_cell_formula_units_Z   1
loop_
 _symmetry_equiv_pos_site_id
 _symmetry_equiv_pos_as_xyz
  1  'x, y, z'
loop_
 _atom_site_type_symbol
 _atom_site_label
 _atom_site_symmetry_multiplicity
 _atom_site_fract_x
 _atom_site_fract_y
 _atom_site_fract_z
 _atom_site_occupancy
 _atom_site_hle17_bader_spin_density
 _atom_site_hle17_ddec_charge
 _atom_site_hle17_ddec_spin_density
 _atom_site_hle17_ddec_sum_bond_order
 _atom_site_hle17_magmom
 _atom_site_hse06_10hf_bader_spin_density
 _atom_site_hse06_10hf_ddec_charge
 _atom_site_hse06_10hf_ddec_spin_density
 _atom_site_hse06_10hf_ddec_sum_bond_order
 _atom_site_hse06_10hf_magmom
 _atom_site_hse06_bader_spin_density
 _atom_site_hse06_ddec_charge
 _atom_site_hse06_ddec_spin_density
 _atom_site_hse06_ddec_sum_bond_order
 _atom_site_hse06_magmom
 _atom_site_pbe_bader_spin_density
 _atom_site_pbe_cm5_charge
 _atom_site_pbe_ddec_charge
 _atom_site_pbe_ddec_spin_density
 _atom_site_pbe_ddec_sum_bond_order
 _atom_site_pbe_magmom
Zn  Zn0  1  0.50000448  0.50000146  0.49999913  1  0  1.112718  0  1.952578  0  0  0.951221  0  2.426965  0  0  0.992273  0  2.371342  0  0  0.74791  0.922457  0  2.465558  0
H  H1  1  0.36067614  0.46592701  0.95424974  1  0  0.097129  0  0.926982  0  0  0.103452  0  0.993105  0  0  0.106439  0  0.991192  0  0  0.117196  0.101105  0  0.994886  0
H  H2  1  0.63931415  0.53407479  0.04575213  1  0  0.097102  0  0.926926  0  0  0.103418  0  0.993061  0  0  0.106406  0  0.991149  0  0  0.117185  0.101062  0  0.994845  0
H  H3  1  0.81351054  0.84857327  0.79566344  1  0  0.122968  0  0.940272  0  0  0.143033  0  1.003034  0  0  0.143704  0  1.003654  0  0  0.095174  0.142363  0  1.002715  0
H  H4  1  0.18647973  0.15142855  0.20433949  1  0  0.12292  0  0.940346  0  0  0.143022  0  1.003063  0  0  0.143694  0  1.003679  0  0  0.095148  0.142352  0  1.002743  0
H  H5  1  0.63590722  0.72682566  0.82313799  1  0  0.13027  0  0.950911  0  0  0.144778  0  1.017666  0  0  0.147611  0  1.015198  0  0  0.093613  0.142611  0  1.019595  0
H  H6  1  0.36408301  0.27317617  0.17686705  1  0  0.130254  0  0.950894  0  0  0.144744  0  1.017679  0  0  0.147576  0  1.015209  0  0  0.093626  0.142578  0  1.019608  0
H  H7  1  0.86237247  0.68488900  0.68620487  1  0  0.129532  0  0.928973  0  0  0.154622  0  0.981153  0  0  0.155257  0  0.982145  0  0  0.101659  0.15424  0  0.980135  0
H  H8  1  0.13761632  0.31511283  0.31379938  1  0  0.129485  0  0.929043  0  0  0.154599  0  0.981198  0  0  0.155233  0  0.982192  0  0  0.101643  0.154221  0  0.980179  0
H  H9  1  0.24528630  0.67110071  0.72536710  1  0  0.333376  0  0.953244  0  0  0.296795  0  1.045536  0  0  0.307667  0  1.034257  0  0  0.283429  0.28903  0  1.053707  0
H  H10  1  0.75470767  0.32889859  0.27463236  1  0  0.333416  0  0.953227  0  0  0.296835  0  1.0455  0  0  0.307708  0  1.034218  0  0  0.283463  0.289068  0  1.053675  0
H  H11  1  0.36679793  0.88007176  0.46118559  1  0  0.088828  0  0.935968  0  0  0.106868  0  0.996375  0  0  0.107464  0  0.996457  0  0  0.098057  0.106408  0  0.996241  0
H  H12  1  0.63319747  0.11992755  0.53881465  1  0  0.088823  0  0.935942  0  0  0.106848  0  0.996364  0  0  0.107444  0  0.996447  0  0  0.098058  0.106387  0  0.996233  0
H  H13  1  0.24944773  0.95833801  0.63408028  1  0  0.064255  0  0.98582  0  0  0.075995  0  1.061859  0  0  0.076486  0  1.061954  0  0  0.080536  0.075727  0  1.061567  0
H  H14  1  0.75054765  0.04166130  0.36592102  1  0  0.064221  0  0.985848  0  0  0.075945  0  1.0619  0  0  0.076437  0  1.061994  0  0  0.080513  0.075677  0  1.061599  0
H  H15  1  0.11380579  0.86925685  0.54626095  1  0  0.055656  0  0.958649  0  0  0.072591  0  1.028021  0  0  0.073137  0  1.027959  0  0  0.084234  0.072031  0  1.028247  0
H  H16  1  0.88618961  0.13074246  0.45373930  1  0  0.055654  0  0.958572  0  0  0.07259  0  1.027958  0  0  0.073139  0  1.027893  0  0  0.084221  0.072029  0  1.028187  0
C  C17  1  0.19806772  0.48148607  0.97600962  1  0  0.034676  0  3.64788  0  0  -0.003434  0  3.912067  0  0  -0.001763  0  3.928816  0  0  0.054571  -0.00498  0  3.901296  0
C  C18  1  0.80192545  0.51851573  0.02399383  1  0  0.034816  0  3.647782  0  0  -0.003296  0  3.911836  0  0  -0.001623  0  3.928582  0  0  0.054602  -0.004839  0  3.901086  0
C  C19  1  0.90192383  0.60792802  0.90430140  1  0  0.253732  0  3.734389  0  0  0.257564  0  3.994778  0  0  0.260944  0  4.01698  0  0  0.123952  0.255228  0  3.980053  0
C  C20  1  0.09806757  0.39207501  0.09570009  1  0  0.254045  0  3.7343  0  0  0.257755  0  3.994818  0  0  0.261136  0  4.017019  0  0  0.12398  0.255421  0  3.980106  0
C  C21  1  0.79646316  0.72328099  0.79716979  1  0  -0.368291  0  3.698472  0  0  -0.451251  0  3.935332  0  0  -0.453597  0  3.943839  0  0  -0.236832  -0.449345  0  3.929503  0
C  C22  1  0.20352711  0.27672082  0.20283314  1  0  -0.368285  0  3.698522  0  0  -0.451238  0  3.935395  0  0  -0.453582  0  3.943901  0  0  -0.236819  -0.449336  0  3.929561  0
C  C23  1  0.81167403  0.32810870  0.70386758  1  0  0.326036  0  3.849355  0  0  0.300659  0  4.12358  0  0  0.317564  0  4.14139  0  0  0.187104  0.288772  0  4.112013  0
C  C24  1  0.18833711  0.67189174  0.29612959  1  0  0.326205  0  3.849051  0  0  0.300851  0  4.123273  0  0  0.31775  0  4.141086  0  0  0.18722  0.28896  0  4.111706  0
C  C25  1  0.17465021  0.02968791  0.91015747  1  0  0.153691  0  3.788884  0  0  0.120469  0  4.097852  0  0  0.127858  0  4.107391  0  0  0.077771  0.114944  0  4.091895  0
C  C26  1  0.82535541  0.97031135  0.08984195  1  0  0.153566  0  3.789034  0  0  0.120322  0  4.098032  0  0  0.127707  0  4.107577  0  0  0.077679  0.114791  0  4.092071  0
C  C27  1  0.82028717  0.09035027  0.97234244  1  0  0.151247  0  3.792518  0  0  0.116416  0  4.103219  0  0  0.124233  0  4.111684  0  0  0.074092  0.111051  0  4.09799  0
C  C28  1  0.17972188  0.90965262  0.02765161  1  0  0.151125  0  3.792589  0  0  0.116301  0  4.10327  0  0  0.124114  0  4.111736  0  0  0.074053  0.110931  0  4.098042  0
C  C29  1  0.15300735  0.30989808  0.67288634  1  0  0.332151  0  3.852346  0  0  0.304398  0  4.130658  0  0  0.321504  0  4.148202  0  0  0.187064  0.292849  0  4.117915  0
C  C30  1  0.84699230  0.69009633  0.32711805  1  0  0.3323  0  3.852535  0  0  0.304562  0  4.130819  0  0  0.32166  0  4.148356  0  0  0.187079  0.293012  0  4.118082  0
C  C31  1  0.99415633  0.12588721  0.87592744  1  0  -0.084859  0  3.925383  0  0  -0.104001  0  4.204455  0  0  -0.102642  0  4.226644  0  0  -0.032833  -0.104945  0  4.189268  0
C  C32  1  0.00585746  0.87411442  0.12406591  1  0  -0.08497  0  3.925513  0  0  -0.104082  0  4.204556  0  0  -0.102727  0  4.226749  0  0  -0.032898  -0.105016  0  4.189355  0
C  C33  1  0.98660314  0.25182847  0.75272291  1  0  -0.211368  0  3.98981  0  0  -0.194734  0  4.249177  0  0  -0.209749  0  4.270603  0  0  -0.056933  -0.183883  0  4.234213  0
C  C34  1  0.01340768  0.74817319  0.24727309  1  0  -0.211556  0  3.989613  0  0  -0.194968  0  4.249027  0  0  -0.209961  0  4.270429  0  0  -0.056992  -0.184114  0  4.234065  0
C  C35  1  0.26238963  0.86101975  0.56644266  1  0  -0.021445  0  3.6749  0  0  -0.112407  0  3.940418  0  0  -0.106292  0  3.944949  0  0  -0.157939  -0.11628  0  3.936816  0
C  C36  1  0.73760577  0.13897955  0.43355759  1  0  -0.021412  0  3.674865  0  0  -0.112365  0  3.940409  0  0  -0.106255  0  3.944944  0  0  -0.157925  -0.116236  0  3.936804  0
N  N37  1  0.10214095  0.58783869  0.88272116  1  0  -0.306573  0  3.145834  0  0  -0.251974  0  3.392703  0  0  -0.263099  0  3.410639  0  0  -0.287107  -0.244676  0  3.381351  0
N  N38  1  0.89784967  0.41216189  0.11728189  1  0  -0.306696  0  3.145896  0  0  -0.252026  0  3.392762  0  0  -0.263152  0  3.410696  0  0  -0.28711  -0.244733  0  3.381405  0
N  N39  1  0.67089430  0.39894036  0.65720875  1  0  -0.48106  0  2.87687  0  0  -0.43894  0  3.16538  0  0  -0.456834  0  3.170974  0  0  -0.346817  -0.426877  0  3.161888  0
N  N40  1  0.32911672  0.60105520  0.34279232  1  0  -0.48117  0  2.876748  0  0  -0.439075  0  3.165294  0  0  -0.45697  0  3.170887  0  0  -0.346909  -0.427012  0  3.161802  0
N  N41  1  0.28627030  0.36534021  0.60224848  1  0  -0.481719  0  2.891876  0  0  -0.43754  0  3.182789  0  0  -0.455869  0  3.188196  0  0  -0.344668  -0.424791  0  3.178307  0
N  N42  1  0.71374567  0.63466388  0.39774621  1  0  -0.481681  0  2.892273  0  0  -0.437527  0  3.183169  0  0  -0.455855  0  3.188578  0  0  -0.34463  -0.424784  0  3.178691  0
O  O43  1  0.34362971  0.70268561  0.63417912  1  0  -0.534113  0  2.255294  0  0  -0.457612  0  2.517015  0  0  -0.477399  0  2.504785  0  0  -0.407084  -0.443208  0  2.525117  0
O  O44  1  0.65636572  0.29731369  0.36582007  1  0  -0.534127  0  2.255322  0  0  -0.457629  0  2.517043  0  0  -0.477416  0  2.504813  0  0  -0.407104  -0.443222  0  2.525147  0
F  F45  1  0.63623204  0.17891185  0.95261780  1  0  -0.173184  0  1.262926  0  0  -0.114273  0  1.428318  0  0  -0.123049  0  1.419109  0  0  -0.081349  -0.10781  0  1.434703  0
F  F46  1  0.36377214  0.82108741  0.04738083  1  0  -0.17306  0  1.262975  0  0  -0.114155  0  1.428371  0  0  -0.122932  0  1.419166  0  0  -0.081302  -0.107692  0  1.434757  0
F  F47  1  0.35389615  0.05213830  0.82498694  1  0  -0.16733  0  1.248964  0  0  -0.10709  0  1.407007  0  0  -0.115717  0  1.39838  0  0  -0.0808  -0.10079  0  1.412947  0
F  F48  1  0.64610799  0.94786098  0.17501380  1  0  -0.167299  0  1.249064  0  0  -0.107034  0  1.407099  0  0  -0.115662  0  1.398474  0  0  -0.080778  -0.100737  0  1.413038  0
