# generated using pymatgen
data_Al2H11C22N2O14F
_symmetry_space_group_name_H-M   'P 1'
_cell_length_a   6.62019491
_cell_length_b   11.20931642
_cell_length_c   11.07135174
_cell_angle_alpha   81.23660883
_cell_angle_beta   73.62024886
_cell_angle_gamma   70.96160016
_symmetry_Int_Tables_number   1
_chemical_formula_structural   Al2H11C22N2O14F
_chemical_formula_sum   'Al2 H11 C22 N2 O14 F1'
_cell_volume   743.46765259
_cell_formula_units_Z   1
loop_
 _symmetry_equiv_pos_site_id
 _symmetry_equiv_pos_as_xyz
  1  'x, y, z'
loop_
 _atom_site_type_symbol
 _atom_site_label
 _atom_site_symmetry_multiplicity
 _atom_site_fract_x
 _atom_site_fract_y
 _atom_site_fract_z
 _atom_site_occupancy
 _atom_site_pbe_bader_charge
 _atom_site_pbe_bader_spin_density
 _atom_site_pbe_cm5_charge
 _atom_site_pbe_ddec_charge
 _atom_site_pbe_ddec_spin_density
 _atom_site_pbe_ddec_sum_bond_order
 _atom_site_pbe_magmom
Al  Al0  1  0.52405774  0.48523839  0.52307838  1  2.503839  0  0.39859  1.644862  0  2.576644  0
Al  Al1  1  0.02549211  0.48694135  0.51868507  1  2.502634  0  0.397529  1.641884  0  2.581699  0
H  H2  1  0.23772464  0.40919634  0.67226041  1  0.634651  0  0.35451  0.437361  0  0.849569  0
H  H3  1  0.77721980  0.59452443  0.38341844  1  0.60292  0  0.353921  0.43318  0  0.851636  0
H  H4  1  0.81065760  0.36936988  0.14326902  1  0.10088  0  0.115841  0.143288  0  0.981145  0
H  H5  1  0.03443604  0.70932325  0.13055916  1  0.036089  0  0.09114  0.100266  0  0.990445  0
H  H6  1  0.95557080  0.57060268  0.13208943  1  0.048411  0  0.093104  0.106568  0  1.008816  0
H  H7  1  0.07007329  0.58075910  0.89527941  1  0.054259  0  0.096839  0.114301  0  0.997981  0
H  H8  1  0.14477353  0.72001728  0.89502243  1  0.077862  0  0.098687  0.113464  0  0.979565  0
H  H9  1  0.25862706  0.22024996  0.31128945  1  0.157538  0  0.124385  0.147183  0  0.996365  0
H  H10  1  0.37650390  0.76311335  0.28162647  1  0.154576  0  0.1225  0.132485  0  1.014403  0
H  H11  1  0.80501559  0.87071386  0.65909502  1  0.100772  0  0.120388  0.127325  0  0.970316  0
H  H12  1  0.70672620  0.10616812  0.65650593  1  0.119692  0  0.122915  0.129874  0  0.966949  0
C  C13  1  0.91091066  0.26048783  0.51317645  1  1.584032  0  0.274022  0.643933  0  4.097564  0
C  C14  1  0.65770150  0.49291047  0.74533225  1  1.540753  0  0.275716  0.675053  0  4.079327  0
C  C15  1  0.14344041  0.71466806  0.50796773  1  1.550535  0  0.266006  0.634306  0  4.115375  0
C  C16  1  0.40114241  0.47462850  0.29657756  1  1.52654  0  0.264757  0.636861  0  4.107256  0
C  C17  1  0.46705808  0.47683455  0.15722582  1  0.013449  0  -0.009942  -0.060274  0  4.002579  0
C  C18  1  0.59717541  0.48798897  0.88488509  1  0.067399  0  -0.013801  -0.19241  0  3.947597  0
C  C19  1  0.31785825  0.53810329  0.08431094  1  -0.034583  0  -0.008098  0.050071  0  3.895653  0
C  C20  1  0.74610090  0.42620207  0.96085367  1  0.417122  0  0.11238  0.283266  0  4.017657  0
C  C21  1  0.38150921  0.54385796  0.95295692  1  0.069075  0  0.00419  0.094946  0  3.869514  0
C  C22  1  0.68645652  0.42046308  0.09190277  1  0.087192  0  -0.092456  -0.226899  0  3.986159  0
C  C23  1  0.08257684  0.61798506  0.08897179  1  0.01747  0  -0.158386  -0.203199  0  3.892785  0
C  C24  1  0.15386858  0.62468777  0.93995273  1  -0.025164  0  -0.149831  -0.199448  0  3.856352  0
C  C25  1  0.97536556  0.12114845  0.50023092  1  0.030023  0  0.003172  -0.07223  0  3.897755  0
C  C26  1  0.15399191  0.05702521  0.40271323  1  0.01063  0  0.018708  0.088397  0  3.92359  0
C  C27  1  0.84787147  0.05429059  0.58643454  1  -0.006315  0  -0.05761  -0.057384  0  3.932611  0
C  C28  1  0.28255525  0.12030469  0.30594543  1  0.006196  0  -0.068705  -0.156313  0  3.892799  0
C  C29  1  0.43674998  0.05647763  0.20697431  1  0.207016  0  0.085238  0.038321  0  3.956747  0
C  C30  1  0.07779691  0.85609307  0.49713446  1  0.018492  0  0.005917  -0.054708  0  3.90664  0
C  C31  1  0.90081232  0.92222047  0.58681342  1  0.037603  0  -0.06576  -0.080382  0  3.954016  0
C  C32  1  0.19922503  0.92295904  0.39884544  1  0.005843  0  0.010265  0.0659  0  3.941563  0
C  C33  1  0.35131772  0.86209328  0.29232067  1  0.02072  0  -0.061114  -0.129946  0  3.916281  0
C  C34  1  0.46506393  0.92733467  0.19665195  1  0.227504  0  0.079656  0.014786  0  3.936957  0
N  N35  1  0.57268153  0.12790989  0.11493510  1  0.426687  0  0.059546  0.515599  0  4.266192  0
N  N36  1  0.60155449  0.86144634  0.08277290  1  0.390334  0  0.057838  0.512351  0  4.215717  0
O  O37  1  0.70487645  0.31520898  0.54944827  1  -1.257099  0  -0.231324  -0.589253  0  2.349436  0
O  O38  1  0.86060319  0.47154107  0.68805965  1  -1.261666  0  -0.233473  -0.604221  0  2.381203  0
O  O39  1  0.98964090  0.66342718  0.53617526  1  -1.252898  0  -0.230761  -0.575347  0  2.316527  0
O  O40  1  0.55283817  0.44839949  0.35454421  1  -1.253331  0  -0.232401  -0.5799  0  2.331223  0
O  O41  1  0.34962124  0.65769828  0.48889221  1  -1.249704  0  -0.231575  -0.594181  0  2.356925  0
O  O42  1  0.19439704  0.50283277  0.34877987  1  -1.265928  0  -0.233627  -0.594664  0  2.3455  0
O  O43  1  0.06281649  0.31288457  0.49110320  1  -1.243577  0  -0.228268  -0.573049  0  2.327445  0
O  O44  1  0.49930353  0.51766374  0.69208982  1  -1.25279  0  -0.23058  -0.581244  0  2.294688  0
O  O45  1  0.27391278  0.43232930  0.58236268  1  -1.436193  0  -0.446851  -0.994254  0  2.186165  0
O  O46  1  0.77141308  0.54136627  0.46106265  1  -1.407918  0  -0.450755  -0.999874  0  2.221029  0
O  O47  1  0.75522693  0.11533422  0.13215470  1  -0.435798  0  -0.120372  -0.313721  0  1.888876  0
O  O48  1  0.48926850  0.19850338  0.03357112  1  -0.418151  0  -0.111697  -0.304329  0  1.905554  0
O  O49  1  0.59659514  0.75307745  0.07564468  1  -0.467149  0  -0.11893  -0.323398  0  1.949934  0
O  O50  1  0.71171544  0.91888616  0.99948253  1  -0.447213  0  -0.125703  -0.326048  0  1.914395  0
F  F51  1  0.96030965  0.36547028  0.90572106  1  -0.633264  0  -0.095743  -0.139153  0  1.346108  0
