# generated using pymatgen
data_Co2H28C40(N2O3)3
_symmetry_space_group_name_H-M   'P 1'
_cell_length_a   9.45477953
_cell_length_b   19.47148847
_cell_length_c   19.47134509
_cell_angle_alpha   117.42284649
_cell_angle_beta   99.33298008
_cell_angle_gamma   99.30947704
_symmetry_Int_Tables_number   1
_chemical_formula_structural   Co2H28C40(N2O3)3
_chemical_formula_sum   'Co6 H84 C120 N18 O27'
_cell_volume   3023.15183256
_cell_formula_units_Z   3
loop_
 _symmetry_equiv_pos_site_id
 _symmetry_equiv_pos_as_xyz
  1  'x, y, z'
loop_
 _atom_site_type_symbol
 _atom_site_label
 _atom_site_symmetry_multiplicity
 _atom_site_fract_x
 _atom_site_fract_y
 _atom_site_fract_z
 _atom_site_occupancy
 _atom_site_pbe_bader_charge
 _atom_site_pbe_bader_spin_density
 _atom_site_pbe_cm5_charge
 _atom_site_pbe_ddec_charge
 _atom_site_pbe_ddec_spin_density
 _atom_site_pbe_ddec_sum_bond_order
 _atom_site_pbe_magmom
Co  Co0  1  0.35215570  0.54019901  0.38167591  1  1.199161  2.543958  0.692098  0.80363  2.74648  2.550897  2.485
Co  Co1  1  0.97041680  0.61836089  0.15843291  1  1.196125  2.54353  0.692075  0.803268  2.745463  2.548516  2.484
Co  Co2  1  0.81197948  0.84159633  0.45991273  1  1.197485  2.543719  0.692192  0.802879  2.746182  2.551022  2.485
Co  Co3  1  0.17408263  0.26324970  0.13230886  1  1.29836  2.619008  0.659766  0.922983  2.876174  2.408858  2.595
Co  Co4  1  0.04137341  0.86778430  0.13114147  1  1.296733  2.619684  0.6608  0.924051  2.877126  2.409694  2.595
Co  Co5  1  0.91054642  0.86894338  0.73675313  1  1.296302  2.6192  0.659342  0.922103  2.87711  2.410081  2.595
H  H6  1  0.63789993  0.65923469  0.38547357  1  0.154589  0.001079  0.117584  0.111103  0.000314  1.054144  0.001
H  H7  1  0.25241746  0.61450943  0.27358699  1  0.136484  0.001087  0.118272  0.111578  0.000313  1.053255  0.001
H  H8  1  0.97972249  0.72678535  0.34112911  1  0.138969  0.001079  0.117482  0.109683  0.000308  1.054997  0.001
H  H9  1  0.30514352  0.45913846  0.19490121  1  0.217128  0.000458  0.141227  0.119258  -7.7e-05  1.036467  0.0
H  H10  1  0.10958259  0.80520587  0.26471007  1  0.191848  0.000471  0.141766  0.119846  -7.8e-05  1.035524  0.0
H  H11  1  0.84567934  0.73566971  0.54063149  1  0.191216  0.000481  0.141402  0.119293  -7.3e-05  1.037587  0.0
H  H12  1  0.65930175  0.65271104  0.24159927  1  0.163668  0.000817  0.126402  0.134521  0.000176  1.028475  0.0
H  H13  1  0.41719804  0.75822207  0.41131451  1  0.166388  0.000816  0.126541  0.13467  0.000176  1.027852  0.0
H  H14  1  0.00713251  0.58919414  0.34729031  1  0.168594  0.000817  0.126749  0.135768  0.000175  1.026769  0.0
H  H15  1  0.92453882  0.30093616  0.26144844  1  0.089947  0.000376  0.103873  0.11264  8.7e-05  1.01193  0.0
H  H16  1  0.66226600  0.73837187  0.03951911  1  0.095819  0.000375  0.104353  0.113599  8.5e-05  1.012278  0.0
H  H17  1  0.62321303  0.96044729  0.69891403  1  0.105356  0.000376  0.103889  0.112948  8.7e-05  1.011974  0.0
H  H18  1  0.20388049  0.45967653  0.08570275  1  0.136229  3e-06  0.111238  0.134295  -9.3e-05  1.029337  0.0
H  H19  1  0.11774375  0.91427296  0.37437336  1  0.153634  -1e-06  0.111396  0.134836  -9.5e-05  1.030439  0.0
H  H20  1  0.74417797  0.62607401  0.54012599  1  0.123559  3e-06  0.111061  0.134452  -9.4e-05  1.028744  0.0
H  H21  1  0.64732076  0.58956437  0.11784608  1  0.154444  0.000289  0.107342  0.120928  3e-06  1.077809  0.0
H  H22  1  0.52903847  0.88202005  0.47212814  1  0.15508  0.000294  0.107571  0.12116  4e-06  1.077653  0.0
H  H23  1  0.05736224  0.52813519  0.41006863  1  0.138577  0.000299  0.10717  0.121131  8e-06  1.077006  0.0
H  H24  1  0.62275645  0.42411536  0.14004646  1  0.119725  0.000724  0.105597  0.114678  0.000341  1.018574  0.0
H  H25  1  0.48174966  0.85945393  0.28398223  1  0.107636  0.000744  0.105944  0.115212  0.000344  1.01892  0.0
H  H26  1  0.19793765  0.71604612  0.57545582  1  0.10894  0.000737  0.105626  0.114218  0.000341  1.01958  0.0
H  H27  1  0.64560250  0.25889642  0.22732035  1  0.084879  0.000556  0.105499  0.108858  0.000263  1.002939  0.0
H  H28  1  0.41737170  0.77240975  0.03156431  1  0.119358  0.000552  0.105517  0.109366  0.000266  1.002145  0.0
H  H29  1  0.38632287  0.96843992  0.74088529  1  0.089133  0.000563  0.105871  0.109435  0.000264  1.002735  0.0
H  H30  1  0.14314214  0.12068177  0.99211341  1  0.620139  0.000453  0.284084  0.373738  0.000316  0.966088  0.001
H  H31  1  0.15069334  0.00777807  0.12854437  1  0.651864  0.000341  0.284369  0.374087  0.00031  0.965433  0.001
H  H32  1  0.02207229  0.87129179  0.87932329  1  0.643225  0.000377  0.283747  0.373082  0.000314  0.967273  0.001
H  H33  1  0.20725593  0.12746973  0.07643039  1  0.647009  0.00051  0.286792  0.366202  0.000446  0.974991  0.0
H  H34  1  0.13059974  0.92343301  0.05112606  1  0.650548  0.000445  0.286462  0.366495  0.000457  0.974469  0.0
H  H35  1  0.07987606  0.94872767  0.87247285  1  0.645097  0.000534  0.287193  0.367246  0.00045  0.97282  0.0
H  H36  1  0.14430167  0.41756845  0.94144282  1  0.075373  -2e-05  0.098301  0.100964  -5.7e-05  1.032825  0.0
H  H37  1  0.20298682  0.05860601  0.47623776  1  0.063388  -2e-05  0.098044  0.100861  -5.7e-05  1.03145  0.0
H  H38  1  0.72695692  0.52404185  0.58237264  1  0.072422  -2e-05  0.097642  0.100294  -5.7e-05  1.032134  0.0
H  H39  1  0.58562005  0.54953414  0.97438865  1  0.059344  -3e-05  0.103919  0.113758  -8.3e-05  1.003702  0.0
H  H40  1  0.61135184  0.02558141  0.57523790  1  0.052088  -3.3e-05  0.104408  0.114333  -8.4e-05  1.003037  0.0
H  H41  1  0.03595463  0.42483932  0.45026394  1  0.056215  -3.2e-05  0.103822  0.114276  -8.4e-05  1.001849  0.0
H  H42  1  0.12177642  0.39359263  0.72548077  1  0.082879  -6e-06  0.100065  0.108418  -1.2e-05  1.036898  0.0
H  H43  1  0.39687440  0.27450825  0.66799700  1  0.083183  -6e-06  0.099781  0.108035  -1.2e-05  1.036941  0.0
H  H44  1  0.72845791  0.33205201  0.60630535  1  0.104992  -8e-06  0.100619  0.109307  -1.2e-05  1.036013  0.0
H  H45  1  0.38252351  0.33085533  0.87987192  1  0.1022  1.2e-05  0.111472  0.127187  1.5e-05  0.982127  0.0
H  H46  1  0.50245370  0.12000342  0.45073083  1  0.069968  1.3e-05  0.11195  0.127749  1.5e-05  0.982277  0.0
H  H47  1  0.05207024  0.54915079  0.66921542  1  0.091952  1.3e-05  0.11082  0.126983  1.5e-05  0.982236  0.0
H  H48  1  0.32406489  0.60763744  0.92206237  1  0.075561  2e-06  0.108036  0.11535  -8e-06  1.010065  0.0
H  H49  1  0.40202983  0.07808052  0.68551868  1  0.092366  -4e-06  0.107661  0.114763  -1e-05  1.010085  0.0
H  H50  1  0.71666484  0.31432755  0.39226022  1  0.080436  -4e-06  0.107523  0.11505  -1.2e-05  1.009012  0.0
H  H51  1  0.48028516  0.41904818  0.75562616  1  0.055906  -9e-06  0.100169  0.10676  -2e-06  1.030984  0.0
H  H52  1  0.72515764  0.24449346  0.66353061  1  0.05022  -1e-05  0.100763  0.107327  -5e-06  1.030924  0.0
H  H53  1  0.06184867  0.33696442  0.58111517  1  0.089729  -1e-05  0.100391  0.107255  -2e-06  1.031127  0.0
H  H54  1  0.00149364  0.25031775  0.62970317  1  0.079642  5e-05  0.098414  0.094741  1.8e-05  1.041286  0.0
H  H55  1  0.37191890  0.37017855  0.62038083  1  0.058331  4.8e-05  0.098368  0.095028  1.8e-05  1.040321  0.0
H  H56  1  0.75117169  0.37955531  0.74957030  1  0.055393  4.5e-05  0.098591  0.094919  1.6e-05  1.040117  0.0
H  H57  1  0.26940588  0.18798387  0.78287779  1  0.058037  4.1e-05  0.106117  0.105064  8e-06  1.012991  0.0
H  H58  1  0.48595589  0.21693332  0.40476901  1  0.073232  4.1e-05  0.105796  0.103925  7e-06  1.014176  0.0
H  H59  1  0.08163695  0.59497594  0.81206045  1  0.079376  4.2e-05  0.105754  0.104236  8e-06  1.013911  0.0
H  H60  1  0.44633870  0.70070396  0.88226438  1  0.069141  9e-05  0.10926  0.110808  3e-05  0.99388  0.0
H  H61  1  0.56408676  0.11767051  0.81832273  1  0.071639  9.2e-05  0.109056  0.110266  3.1e-05  0.994587  0.0
H  H62  1  0.74654659  0.18162941  0.29936978  1  0.108574  9.6e-05  0.109483  0.111011  3e-05  0.994054  0.0
H  H63  1  0.60271863  0.51114545  0.71575624  1  0.048794  5.5e-05  0.097831  0.095582  8e-06  1.029044  0.0
H  H64  1  0.88733177  0.28425113  0.79551879  1  0.064204  5.8e-05  0.098747  0.097334  8e-06  1.029441  0.0
H  H65  1  0.09270444  0.20509130  0.48918556  1  0.057409  5.7e-05  0.098288  0.096825  7e-06  1.030436  0.0
H  H66  1  0.12685109  0.07604649  0.72113480  1  0.11536  0.00079  0.115053  0.126869  0.000325  0.994081  0.0
H  H67  1  0.40613797  0.27901617  0.35480376  1  0.077071  0.000796  0.115322  0.126405  0.000326  0.994204  0.0
H  H68  1  0.05089191  0.64506755  0.92391926  1  0.099394  0.000796  0.114878  0.126439  0.000325  0.994224  0.0
H  H69  1  0.95803577  0.13430996  0.53889924  1  0.04761  0.000904  0.101968  0.106078  0.000369  1.041672  0.0
H  H70  1  0.41862405  0.46083609  0.59522193  1  0.060111  0.000896  0.101486  0.106106  0.00037  1.041279  0.0
H  H71  1  0.82331850  0.40469471  0.86563675  1  0.056142  0.000902  0.10183  0.10533  0.000368  1.041737  0.0
H  H72  1  0.45420526  0.74393298  0.79324522  1  0.076808  0.000998  0.112193  0.121536  0.000478  0.987398  0.0
H  H73  1  0.66108610  0.20636372  0.95049946  1  0.068763  0.00101  0.11196  0.121436  0.000479  0.987981  0.0
H  H74  1  0.71119738  0.04974177  0.25646228  1  0.097311  0.000988  0.112133  0.12067  0.000478  0.98837  0.0
H  H75  1  0.78811144  0.61250871  0.74591079  1  0.046008  0.000757  0.098261  0.101922  0.000361  1.045845  0.0
H  H76  1  0.04261131  0.25418739  0.86681943  1  0.081065  0.000738  0.098945  0.103053  0.00036  1.045984  0.0
H  H77  1  0.17668400  0.13335826  0.38768433  1  0.090527  0.000739  0.098497  0.101507  0.000362  1.047165  0.0
H  H78  1  0.01399384  0.93547196  0.62200704  1  0.159192  0.00288  0.120851  0.101179  0.001263  1.047811  0.002
H  H79  1  0.39278667  0.37831770  0.31354712  1  0.158071  0.002889  0.120917  0.100838  0.001267  1.048011  0.002
H  H80  1  0.07848815  0.68653992  0.06448684  1  0.168269  0.002867  0.120869  0.100902  0.00126  1.048401  0.002
H  H81  1  0.84664497  0.98911238  0.44675764  1  0.105049  0.002204  0.122721  0.095416  0.000696  0.984349  0.001
H  H82  1  0.39974263  0.55317354  0.54237654  1  0.106373  0.002196  0.122321  0.095199  0.000695  0.984475  0.001
H  H83  1  0.85729251  0.45770617  0.01081120  1  0.096711  0.002201  0.122446  0.09493  0.000694  0.985394  0.001
H  H84  1  0.60453706  0.84129117  0.76711300  1  0.106431  0.001891  0.118266  0.088985  0.000644  1.005304  0.001
H  H85  1  0.83745556  0.23268179  0.07413129  1  0.086424  0.001879  0.118656  0.088807  0.000641  1.005688  0.001
H  H86  1  0.76361641  0.92607669  0.15909635  1  0.088775  0.001904  0.118431  0.088553  0.000649  1.005204  0.001
H  H87  1  0.92072667  0.71394491  0.71787714  1  0.121132  0.001397  0.121905  0.104337  0.000208  0.999143  0.001
H  H88  1  0.20308650  0.28239637  0.99641941  1  0.106515  0.001401  0.121717  0.104112  0.000206  1.000005  0.001
H  H89  1  0.20717927  0.00368486  0.28630487  1  0.140308  0.001393  0.121938  0.104024  0.000203  1.00009  0.001
C  C90  1  0.57389405  0.61660850  0.32422643  1  0.404703  0.003643  -0.001195  -0.026339  0.00203  3.984456  0.003
C  C91  1  0.24946339  0.67576646  0.29241650  1  0.406528  0.003743  -0.000859  -0.024848  0.002068  3.982966  0.003
C  C92  1  0.95790342  0.70796624  0.38355509  1  0.405599  0.00368  0.00047  -0.020003  0.002049  3.979493  0.003
C  C93  1  0.39657747  0.51308636  0.22790098  1  0.936713  0.009987  0.149332  0.113308  0.006164  3.865774  0.008
C  C94  1  0.16817671  0.77214632  0.28550353  1  0.986774  0.009948  0.148054  0.111681  0.006155  3.865372  0.008
C  C95  1  0.88342384  0.71483665  0.48678034  1  0.952243  0.010044  0.149264  0.112923  0.006171  3.869588  0.008
C  C96  1  0.09502058  0.41801906  0.25342532  1  1.586265  -0.001824  0.229413  0.603516  -0.00225  4.153348  -0.001
C  C97  1  0.84103254  0.74650947  0.16467601  1  1.577883  -0.001861  0.226246  0.598031  -0.002225  4.159102  -0.001
C  C98  1  0.67664662  0.83533898  0.58187380  1  1.595217  -0.001841  0.227977  0.601612  -0.002182  4.15396  -0.001
C  C99  1  0.58377363  0.61460968  0.25409123  1  0.269981  0.004999  0.011437  -0.074123  0.00248  3.861677  0.004
C  C100  1  0.32923527  0.74582274  0.36071340  1  0.269884  0.004955  0.011407  -0.0753  0.002452  3.858623  0.004
C  C101  1  0.96956820  0.63973018  0.38539458  1  0.282938  0.004997  0.009541  -0.079877  0.00248  3.861262  0.004
C  C102  1  0.92910317  0.38856060  0.22289797  1  -0.107844  0.006949  -0.002805  -0.038294  0.003332  3.943004  0.005
C  C103  1  0.70539376  0.77685203  0.16567675  1  -0.05695  0.00699  -0.002842  -0.037181  0.003343  3.944916  0.005
C  C104  1  0.54004872  0.83430224  0.61119903  1  -0.115662  0.007031  -0.003641  -0.040608  0.003346  3.946344  0.005
C  C105  1  0.43193068  0.52522471  0.11054463  1  0.230618  5e-06  0.097102  0.170683  -0.000192  3.984312  0.0
C  C106  1  0.32089365  0.88937182  0.41509711  1  0.297398  -4.6e-05  0.097306  0.172918  -0.000232  3.984083  0.0
C  C107  1  0.90652438  0.58530628  0.47450884  1  0.256835  -2e-06  0.098092  0.172781  -0.000194  3.985137  0.0
C  C108  1  0.84458626  0.42365966  0.18837978  1  0.041568  0.004469  -0.014069  -0.05486  0.002277  3.958094  0.003
C  C109  1  0.65534581  0.81130840  0.23526072  1  0.005115  0.004484  -0.013436  -0.053523  0.002265  3.961546  0.003
C  C110  1  0.42027970  0.76475073  0.57600659  1  0.041093  0.004403  -0.013316  -0.053363  0.002238  3.959456  0.003
C  C111  1  0.85776934  0.32866812  0.23617934  1  0.049694  0.002794  -0.087298  -0.111586  0.001371  3.989718  0.002
C  C112  1  0.62071850  0.76354522  0.09248624  1  -0.020137  0.002785  -0.087832  -0.112974  0.001351  3.99231  0.002
C  C113  1  0.52863492  0.90747735  0.67109209  1  0.013461  0.00277  -0.087178  -0.110952  0.001355  3.990202  0.002
C  C114  1  0.28941634  0.47700963  0.06103533  1  0.044175  0.001069  -0.08495  -0.143412  0.000439  3.950501  0.001
C  C115  1  0.22804673  0.93893283  0.41631877  1  -0.084309  0.001064  -0.085343  -0.145751  0.000433  3.952786  0.001
C  C116  1  0.81236717  0.58406653  0.52278812  1  0.029841  0.001068  -0.084341  -0.143317  0.000436  3.951576  0.001
C  C117  1  0.53736851  0.55169108  0.07935004  1  -0.014224  0.001104  -0.090585  -0.148241  0.000564  3.979809  0.001
C  C118  1  0.45768582  0.92055018  0.47269200  1  -0.054044  0.001128  -0.091216  -0.150454  0.000575  3.982114  0.001
C  C119  1  0.98542072  0.52760625  0.44801904  1  0.020559  0.001098  -0.091907  -0.151394  0.000565  3.983187  0.001
C  C120  1  0.91977981  0.48627746  0.17216269  1  1.540162  0.001512  0.200669  0.554683  0.001319  4.220801  -0.001
C  C121  1  0.74694119  0.82773800  0.31415073  1  1.507499  0.00154  0.19963  0.551225  0.001352  4.223996  -0.001
C  C122  1  0.43277276  0.68590083  0.51341292  1  1.541173  0.001574  0.200874  0.555645  0.001342  4.221206  -0.001
C  C123  1  0.68915813  0.39796848  0.16756854  1  -0.079421  0.003126  -0.075499  -0.100631  0.00164  3.915787  0.002
C  C124  1  0.52059118  0.83196948  0.23032367  1  0.001676  0.003125  -0.075109  -0.101649  0.001663  3.917177  0.002
C  C125  1  0.29053470  0.76968189  0.60167120  1  -0.037902  0.003147  -0.075196  -0.100341  0.001667  3.918258  0.002
C  C126  1  0.70319116  0.30477299  0.21667003  1  -0.043911  0.002208  -0.07755  -0.082331  0.001192  3.965328  0.001
C  C127  1  0.48560220  0.78298704  0.08806654  1  -0.069609  0.002235  -0.077755  -0.083665  0.001202  3.965651  0.001
C  C128  1  0.39795737  0.91190381  0.69498569  1  -0.086954  0.002277  -0.077941  -0.083334  0.001216  3.962581  0.001
C  C129  1  0.25525243  0.45448992  0.98016336  1  -0.046774  -0.000307  -0.095316  -0.158969  -0.000404  4.006636  0.0
C  C130  1  0.27508360  0.01984580  0.47452387  1  0.06698  -0.00034  -0.095841  -0.159479  -0.000441  4.003507  0.0
C  C131  1  0.80085721  0.52575895  0.54537772  1  -0.010567  -0.000312  -0.095292  -0.15906  -0.00041  4.006165  0.0
C  C132  1  0.50241369  0.52925789  0.99855942  1  -0.025733  -0.000487  -0.097068  -0.161061  -0.000571  4.005407  0.0
C  C133  1  0.50382756  0.00139042  0.53087376  1  0.012809  -0.000457  -0.09652  -0.159756  -0.00054  4.004498  0.0
C  C134  1  0.97303610  0.46930286  0.47052938  1  -0.007626  -0.000416  -0.096664  -0.160639  -0.000501  4.005512  0.0
C  C135  1  0.61795153  0.33921104  0.18217029  1  0.010953  0.0036  -0.0154  -0.026177  0.001842  3.980761  0.002
C  C136  1  0.43480078  0.81739114  0.15695655  1  -0.063455  0.003607  -0.01611  -0.024121  0.001827  3.979136  0.002
C  C137  1  0.27819068  0.84302348  0.66050811  1  -0.000755  0.003579  -0.016327  -0.026124  0.001826  3.978552  0.002
C  C138  1  0.36141421  0.47979121  0.94807186  1  0.338128  0.000945  0.084218  0.159409  0.000452  4.061711  0.001
C  C139  1  0.41351113  0.05193879  0.53180411  1  0.300661  0.000942  0.084305  0.160214  0.00045  4.06  0.001
C  C140  1  0.88173419  0.46836117  0.52010191  1  0.271696  0.00094  0.084644  0.160365  0.00045  4.062104  0.001
C  C141  1  0.45234062  0.31389752  0.16300955  1  1.514504  0.000372  0.195614  0.559763  -4.2e-05  4.192781  -0.002
C  C142  1  0.28851473  0.83667896  0.15077365  1  1.56221  0.000343  0.195055  0.556267  -4.7e-05  4.198219  -0.002
C  C143  1  0.13806681  0.84919587  0.68600090  1  1.544858  0.000339  0.194589  0.55636  -4.9e-05  4.196576  -0.002
C  C144  1  0.26091593  0.37221361  0.80912265  1  0.308681  -0.001803  0.097436  0.18688  -0.001995  4.039767  -0.001
C  C145  1  0.45208232  0.19082756  0.56293149  1  0.307059  -0.001848  0.096906  0.186614  -0.002039  4.039209  -0.001
C  C146  1  0.88903457  0.43707581  0.62776196  1  0.323785  -0.001839  0.097257  0.185512  -0.002041  4.040773  -0.001
C  C147  1  0.38989136  0.50637893  0.83949535  1  0.331464  -0.003577  0.092981  0.181336  -0.003899  4.03543  -0.002
C  C148  1  0.55073608  0.16058940  0.66688669  1  0.308416  -0.003584  0.092727  0.182607  -0.003902  4.035887  -0.002
C  C149  1  0.88396081  0.33326660  0.49365367  1  0.35163  -0.003606  0.093074  0.182003  -0.003935  4.039004  -0.002
C  C150  1  0.15438001  0.34792053  0.73712823  1  0.011229  0.000592  -0.099263  -0.180692  0.000217  3.993285  0.0
C  C151  1  0.41760654  0.26281532  0.61063373  1  -0.010159  0.00061  -0.098221  -0.179932  0.000226  3.994104  0.0
C  C152  1  0.80668362  0.38937312  0.65199776  1  -0.025034  0.000612  -0.098994  -0.180427  0.000224  3.992739  0.0
C  C153  1  0.29923945  0.31284326  0.82465948  1  0.021419  0.00046  -0.094478  -0.177586  0.000176  3.988  0.0
C  C154  1  0.47455863  0.17523980  0.48796622  1  0.017577  0.000478  -0.095173  -0.179186  0.000188  3.988616  0.0
C  C155  1  0.98671547  0.51195094  0.68718482  1  -0.055504  0.000461  -0.094393  -0.177381  0.00018  3.989635  0.0
C  C156  1  0.38204383  0.58640191  0.87529522  1  -0.020491  0.001153  -0.09076  -0.167706  0.000483  3.997288  0.001
C  C157  1  0.50688965  0.12477435  0.71106392  1  -0.004983  0.001093  -0.090778  -0.168406  0.000444  3.997309  0.001
C  C158  1  0.79613236  0.28895279  0.41360248  1  -0.047154  0.001158  -0.090471  -0.167957  0.000482  3.995544  0.001
C  C159  1  0.46943563  0.48022359  0.78152369  1  -0.033161  0.001004  -0.09983  -0.179478  0.000371  4.003161  0.001
C  C160  1  0.68830655  0.21855663  0.69877263  1  0.011419  0.001069  -0.100028  -0.178675  0.000404  4.003059  0.001
C  C161  1  0.98989498  0.30159175  0.51991146  1  -0.040815  0.001042  -0.100343  -0.179407  0.000387  4.007143  0.001
C  C162  1  0.08751914  0.26690881  0.68336298  1  -0.070076  -0.00158  -0.090433  -0.111554  -0.001658  3.99265  -0.001
C  C163  1  0.40433012  0.31654187  0.58335153  1  -0.088762  -0.001616  -0.089765  -0.110593  -0.001702  3.992136  -0.001
C  C164  1  0.82071940  0.41658111  0.73299558  1  -0.098018  -0.001636  -0.090564  -0.111542  -0.001723  3.992012  -0.001
C  C165  1  0.23316092  0.23204612  0.76986511  1  -0.07801  -0.001582  -0.08458  -0.106258  -0.001643  3.99551  -0.001
C  C166  1  0.46308463  0.23000169  0.46191882  1  -0.040858  -0.001601  -0.084266  -0.103525  -0.001668  3.995767  -0.001
C  C167  1  0.00132680  0.53791670  0.76798157  1  -0.048088  -0.001567  -0.084346  -0.105982  -0.001635  3.997163  -0.001
C  C168  1  0.45077246  0.63831115  0.85261053  1  -0.018508  -0.003062  -0.081647  -0.104279  -0.003243  3.966375  -0.002
C  C169  1  0.59827826  0.14735440  0.78563400  1  -0.033705  -0.003062  -0.082192  -0.103671  -0.003231  3.965288  -0.002
C  C170  1  0.81328329  0.21442481  0.36179442  1  -0.098808  -0.003087  -0.082268  -0.104727  -0.003256  3.964049  -0.002
C  C171  1  0.53875999  0.53265980  0.75958436  1  -0.077262  -0.003366  -0.092121  -0.116169  -0.00355  3.998812  -0.002
C  C172  1  0.77951234  0.24040538  0.77315645  1  -0.053104  -0.003372  -0.0928  -0.118764  -0.003551  4.002222  -0.002
C  C173  1  0.00706449  0.22726431  0.46755521  1  -0.047408  -0.003403  -0.092514  -0.118325  -0.003585  4.004513  -0.002
C  C174  1  0.12506139  0.20667619  0.69784981  1  -0.061519  0.000667  -0.018783  0.031968  0.000112  4.009396  0.001
C  C175  1  0.42710693  0.30202071  0.50858264  1  -0.006952  0.000707  -0.019147  0.029892  0.000132  4.011634  0.001
C  C176  1  0.91847640  0.49126812  0.79329057  1  0.041612  0.000651  -0.019148  0.031674  9.5e-05  4.008696  0.001
C  C177  1  0.53049614  0.61272549  0.79422918  1  0.032066  0.001173  -0.013259  0.049317  0.000161  4.001213  0.001
C  C178  1  0.73650857  0.20566111  0.81848761  1  -0.057586  0.001072  -0.012836  0.04895  0.000117  4.000665  0.001
C  C179  1  0.91881705  0.18175367  0.38746274  1  -0.019996  0.001141  -0.013582  0.048298  0.000154  4.002233  0.001
C  C180  1  0.05585123  0.12096131  0.64028198  1  0.06133  -0.00683  0.009884  0.111178  -0.007451  3.986411  -0.004
C  C181  1  0.41553151  0.35964960  0.48050248  1  -0.018693  -0.006928  0.009741  0.112314  -0.007539  3.988124  -0.005
C  C182  1  0.93485677  0.51935927  0.87899155  1  -0.052148  -0.006877  0.009901  0.111918  -0.0075  3.985089  -0.005
C  C183  1  0.60818578  0.66898240  0.77299880  1  -0.047646  -0.015032  0.006499  0.097675  -0.016036  4.017215  -0.01
C  C184  1  0.83542176  0.22684169  0.89597936  1  0.005908  -0.014983  0.007391  0.101158  -0.01601  4.016843  -0.01
C  C185  1  0.94022807  0.10423288  0.33129526  1  0.024868  -0.015059  0.006618  0.099535  -0.016104  4.01753  -0.01
C  C186  1  0.06932637  0.06142853  0.66096820  1  0.012893  0.004879  -0.08007  -0.167785  0.002094  3.919275  0.004
C  C187  1  0.40863805  0.33912919  0.40036183  1  0.014187  0.00495  -0.079652  -0.166579  0.002114  3.919444  0.004
C  C188  1  0.00791559  0.59955106  0.93855063  1  0.014902  0.004986  -0.079961  -0.167904  0.002139  3.918877  0.004
C  C189  1  0.97316775  0.09304583  0.56095082  1  0.025812  0.00478  -0.090656  -0.186821  0.002268  3.956892  0.004
C  C190  1  0.41198271  0.43891422  0.53195318  1  -0.024708  0.00495  -0.090179  -0.18754  0.002282  3.956988  0.004
C  C191  1  0.87992613  0.46797109  0.90688807  1  -0.01284  0.004768  -0.090112  -0.185043  0.002202  3.955227  0.004
C  C192  1  0.55767448  0.73459195  0.77755335  1  0.029722  0.006721  -0.083276  -0.178081  0.003091  3.95694  0.006
C  C193  1  0.78029174  0.22217048  0.95696309  1  0.014947  0.006713  -0.084495  -0.181743  0.003079  3.960309  0.005
C  C194  1  0.82393213  0.04324090  0.26573256  1  -0.0696  0.006777  -0.083538  -0.178447  0.0031  3.959012  0.006
C  C195  1  0.74031859  0.66100702  0.74954943  1  0.00218  0.006225  -0.088119  -0.176891  0.002814  3.954564  0.005
C  C196  1  0.99105839  0.25043776  0.91158162  1  -0.117099  0.006217  -0.088448  -0.179582  0.002803  3.954983  0.005
C  C197  1  0.08023419  0.08859996  0.33923963  1  -0.050772  0.00622  -0.087022  -0.175188  0.002806  3.953717  0.005
C  C198  1  0.00479262  0.98100300  0.60516584  1  0.394622  1.1e-05  0.049319  0.104784  -0.00104  3.917599  0.001
C  C199  1  0.40009350  0.39503760  0.37585261  1  0.46303  -0.000112  0.049504  0.105306  -0.001089  3.918555  0.0
C  C200  1  0.02374174  0.62416632  0.01898087  1  0.460672  -0.00011  0.049667  0.105018  -0.001102  3.91805  0.0
C  C201  1  0.91039143  0.01156064  0.50830595  1  0.350501  -0.002682  0.046415  0.096597  -0.003375  3.958895  -0.001
C  C202  1  0.40205213  0.49167105  0.50323073  1  0.436342  -0.002865  0.045878  0.095294  -0.003435  3.960452  -0.001
C  C203  1  0.89866306  0.49678778  0.98837169  1  0.424329  -0.002741  0.04581  0.095231  -0.00336  3.961281  -0.001
C  C204  1  0.64048645  0.78921125  0.76241058  1  0.434201  -0.008979  0.049343  0.100172  -0.00977  3.960867  -0.005
C  C205  1  0.87820362  0.23739954  0.02678730  1  0.480908  -0.008819  0.048732  0.100708  -0.009763  3.959038  -0.005
C  C206  1  0.85181365  0.97338968  0.21113560  1  0.501341  -0.009032  0.048328  0.099604  -0.009779  3.9601  -0.005
C  C207  1  0.81658634  0.71763137  0.73478480  1  0.475271  -0.00948  0.048639  0.105701  -0.010331  3.92602  -0.006
C  C208  1  0.08202857  0.26528953  0.98304700  1  0.527776  -0.009472  0.047588  0.10492  -0.010296  3.925533  -0.006
C  C209  1  0.09952596  0.01708878  0.28263093  1  0.466262  -0.009525  0.047289  0.103454  -0.010379  3.924602  -0.006
N  N210  1  0.92485477  0.95546279  0.52952675  1  -1.239061  0.071231  -0.350513  -0.267597  0.036619  3.663548  0.046
N  N211  1  0.39565328  0.47061632  0.42598433  1  -1.24744  0.071201  -0.350172  -0.267106  0.036617  3.662283  0.046
N  N212  1  0.96933995  0.57406558  0.04450549  1  -1.239408  0.070855  -0.349996  -0.266563  0.036476  3.663877  0.046
N  N213  1  0.45681172  0.55323531  0.30739812  1  -1.248998  0.069653  -0.375511  -0.32489  0.035821  3.667135  0.041
N  N214  1  0.14916488  0.69268235  0.24594664  1  -1.247591  0.069522  -0.376403  -0.325628  0.035713  3.667467  0.041
N  N215  1  0.90387972  0.75436576  0.44683966  1  -1.235293  0.069441  -0.376101  -0.326802  0.035774  3.667402  0.041
N  N216  1  0.47000861  0.54899057  0.19344538  1  -1.241635  0.007422  -0.217589  0.017782  0.003256  3.772925  0.005
N  N217  1  0.27597182  0.80649863  0.35591063  1  -1.272498  0.007423  -0.216407  0.019246  0.003253  3.768513  0.005
N  N218  1  0.92098183  0.64450091  0.45082752  1  -1.251352  0.007415  -0.216703  0.019757  0.003252  3.77241  0.005
N  N219  1  0.76938862  0.78197777  0.74211660  1  -1.211349  0.060478  -0.337071  -0.269686  0.032289  3.620699  0.049
N  N220  1  0.02743604  0.25785927  0.03999417  1  -1.201671  0.060335  -0.336113  -0.267511  0.032303  3.617981  0.049
N  N221  1  0.98783454  0.96016711  0.21830233  1  -1.233168  0.060505  -0.336788  -0.268103  0.032348  3.617618  0.049
N  N222  1  0.05424312  0.13886330  0.17713523  1  0.497266  -0.002457  -0.057147  0.200323  -0.008872  3.447103  -0.005
N  N223  1  0.87658595  0.82283110  0.96190196  1  0.501293  -0.002452  -0.057336  0.199938  -0.008865  3.447918  -0.005
N  N224  1  0.91522882  0.03813300  0.86101791  1  0.499445  -0.002484  -0.056787  0.200965  -0.008881  3.447888  -0.005
N  N225  1  0.32613621  0.45422031  0.86484481  1  -1.238858  -0.000299  -0.256757  -0.156325  -0.000219  3.682287  0.0
N  N226  1  0.46178383  0.13518770  0.58931442  1  -1.237497  -0.000267  -0.256298  -0.157654  -0.000195  3.680656  0.0
N  N227  1  0.87219471  0.41075535  0.54573615  1  -1.228323  -0.000141  -0.255771  -0.155887  -0.000112  3.683214  0.0
O  O228  1  0.84727654  0.53764410  0.17220642  1  -1.129545  0.113677  -0.323843  -0.535387  0.057288  2.338309  0.088
O  O229  1  0.67453413  0.82772204  0.36551309  1  -1.12685  0.113863  -0.323355  -0.533521  0.057401  2.339592  0.089
O  O230  1  0.30892945  0.63468174  0.46192911  1  -1.124597  0.113695  -0.322753  -0.534149  0.057342  2.338359  0.089
O  O231  1  0.14559550  0.49032126  0.31295264  1  -1.156647  0.093644  -0.308028  -0.52823  0.047588  2.410718  0.075
O  O232  1  0.83239126  0.68697836  0.17744474  1  -1.14785  0.093681  -0.307345  -0.527366  0.047617  2.413257  0.075
O  O233  1  0.65507212  0.82235263  0.50949227  1  -1.146498  0.093687  -0.307633  -0.527152  0.047602  2.409718  0.075
O  O234  1  0.17749797  0.37262083  0.22657490  1  -1.171665  0.064385  -0.29567  -0.556224  0.034803  2.431621  0.053
O  O235  1  0.95025414  0.77348493  0.14614912  1  -1.16915  0.064424  -0.293555  -0.552315  0.034786  2.431174  0.053
O  O236  1  0.80444163  0.85399305  0.62742906  1  -1.173575  0.06426  -0.294548  -0.554321  0.034711  2.430208  0.053
O  O237  1  0.05106097  0.20269561  0.17330934  1  -0.633219  0.088043  -0.191163  -0.405467  0.045616  2.409248  0.078
O  O238  1  0.87715331  0.82702007  0.02970532  1  -0.635273  0.088199  -0.19191  -0.406446  0.045739  2.41053  0.078
O  O239  1  0.84788969  0.97037361  0.79737068  1  -0.639347  0.088315  -0.191748  -0.405735  0.045779  2.410245  0.078
O  O240  1  0.21635003  0.15608696  0.04566996  1  -1.235032  0.069941  -0.585597  -0.762663  0.035877  2.145462  0.058
O  O241  1  0.17043062  0.95425398  0.11050199  1  -1.270251  0.070235  -0.585496  -0.763306  0.035935  2.144457  0.058
O  O242  1  0.06003369  0.88935080  0.84389424  1  -1.255901  0.069997  -0.585156  -0.762437  0.035931  2.145738  0.058
O  O243  1  0.37193123  0.32912238  0.11531341  1  -1.159052  0.065454  -0.318066  -0.559731  0.033845  2.194563  0.055
O  O244  1  0.25589433  0.88440578  0.21369377  1  -1.160345  0.065872  -0.317463  -0.55841  0.034096  2.197974  0.055
O  O245  1  0.04258366  0.78627858  0.67086463  1  -1.159851  0.065511  -0.318025  -0.558401  0.03392  2.196876  0.055
O  O246  1  0.39363458  0.27751118  0.19631637  1  -1.145586  0.07185  -0.318884  -0.541379  0.037367  2.200967  0.06
O  O247  1  0.19651912  0.80349874  0.08108286  1  -1.150066  0.071793  -0.318615  -0.540072  0.037349  2.202509  0.06
O  O248  1  0.11581659  0.91887935  0.72249075  1  -1.146147  0.071633  -0.317282  -0.539119  0.037227  2.201745  0.059
O  O249  1  0.04599011  0.48868790  0.15948081  1  -1.163204  0.036018  -0.305516  -0.550153  0.017619  2.179804  0.029
O  O250  1  0.88589815  0.84063403  0.32930037  1  -1.129886  0.036269  -0.305253  -0.548808  0.017726  2.180541  0.03
O  O251  1  0.55646980  0.67062212  0.51114718  1  -1.164462  0.036495  -0.306325  -0.552042  0.017842  2.180477  0.03
O  O252  1  0.14588834  0.10239733  0.14528602  1  -0.626676  -0.003393  -0.16457  -0.355707  -0.007292  2.222021  -0.003
O  O253  1  0.00023295  0.85437595  0.95717402  1  -0.62726  -0.003488  -0.164274  -0.354991  -0.007365  2.221324  -0.003
O  O254  1  0.04364465  0.04281390  0.89723643  1  -0.622003  -0.0035  -0.164661  -0.356449  -0.00739  2.221448  -0.003
