# generated using pymatgen
data_NdFeH18C16(N4O3)2
_symmetry_space_group_name_H-M   'P 1'
_cell_length_a   9.42060339
_cell_length_b   9.73085753
_cell_length_c   15.06659074
_cell_angle_alpha   77.88133688
_cell_angle_beta   71.76899843
_cell_angle_gamma   61.03376672
_symmetry_Int_Tables_number   1
_chemical_formula_structural   NdFeH18C16(N4O3)2
_chemical_formula_sum   'Nd2 Fe2 H36 C32 N16 O12'
_cell_volume   1144.88864811
_cell_formula_units_Z   2
loop_
 _symmetry_equiv_pos_site_id
 _symmetry_equiv_pos_as_xyz
  1  'x, y, z'
loop_
 _atom_site_type_symbol
 _atom_site_label
 _atom_site_symmetry_multiplicity
 _atom_site_fract_x
 _atom_site_fract_y
 _atom_site_fract_z
 _atom_site_occupancy
 _atom_site_hle17_ddec_charge
 _atom_site_hle17_ddec_spin_density
 _atom_site_hle17_ddec_sum_bond_order
 _atom_site_hle17_magmom
 _atom_site_hse06_10hf_ddec_charge
 _atom_site_hse06_10hf_ddec_spin_density
 _atom_site_hse06_10hf_ddec_sum_bond_order
 _atom_site_hse06_10hf_magmom
 _atom_site_hse06_ddec_charge
 _atom_site_hse06_ddec_spin_density
 _atom_site_hse06_ddec_sum_bond_order
 _atom_site_hse06_magmom
 _atom_site_pbe_cm5_charge
 _atom_site_pbe_ddec_charge
 _atom_site_pbe_ddec_spin_density
 _atom_site_pbe_ddec_sum_bond_order
 _atom_site_pbe_magmom
Nd  Nd0  1  0.38998736  0.75001299  0.24999202  1  2.300217  -6.3e-05  1.667197  0.0  2.144002  -6.5e-05  2.144575  0.0  2.230358  -2.9e-05  2.00692  0.0  1.508439  2.115229  1e-06  2.178997  0.0
Nd  Nd1  1  0.61001356  0.24998715  0.75000846  1  2.30019  -6.4e-05  1.667167  0.0  2.143984  -6.4e-05  2.144515  0.0  2.230325  -2.9e-05  2.006886  0.0  1.508422  2.115196  1e-06  2.17895  0.0
Fe  Fe2  1  0.50000201  0.00000305  0.49999990  1  0.076341  -1.424138  4.588222  -1.078  0.174633  -1.190031  4.947001  -0.965  0.191072  -1.256129  4.911977  -1.021  0.521174  0.164855  -1.117157  4.97243  -0.897
Fe  Fe3  1  0.00000071  0.49999993  0.00000274  1  0.074771  1.423472  4.590364  1.077  0.173314  1.189553  4.948931  0.965  0.190141  1.255872  4.913206  1.021  0.520491  0.163608  1.117058  4.974464  0.897
H  H4  1  0.63736705  0.93198897  0.02692660  1  0.1214  5e-06  0.934201  0.0  0.127104  2e-05  0.998941  0.0  0.129951  -2.1e-05  0.996822  0.0  0.136534  0.125218  5.9e-05  1.000045  0.0
H  H5  1  0.59629174  0.56835860  0.47284021  1  0.121124  2e-06  0.934722  0.0  0.126936  -9e-06  0.999108  0.0  0.129808  2.7e-05  0.996954  0.0  0.136897  0.124999  -5.8e-05  1.000298  0.0
H  H6  1  0.36262891  0.06800883  0.97307334  1  0.121382  8e-06  0.93432  0.0  0.127093  2e-05  0.999034  0.0  0.129944  -2.1e-05  0.9969  0.0  0.136521  0.125208  5.9e-05  1.000139  0.0
H  H7  1  0.40370841  0.43163800  0.52716063  1  0.121144  -1e-06  0.934728  0.0  0.12695  -9e-06  0.9991  0.0  0.129822  2.7e-05  0.996946  0.0  0.136901  0.125013  -5.8e-05  1.000288  0.0
H  H8  1  0.81827962  0.06940059  0.98766846  1  0.122902  1.6e-05  0.943102  0.0  0.133258  7e-06  0.996961  0.0  0.136526  1.4e-05  0.995684  0.0  0.120382  0.131045  -0.0  0.997891  0.0
H  H9  1  0.87541861  0.43117353  0.51206539  1  0.124011  -4e-06  0.943275  0.0  0.133931  -4e-06  0.997682  0.0  0.137098  -1e-05  0.996569  0.0  0.120669  0.131791  -0.0  0.998489  0.0
H  H10  1  0.18171830  0.93059724  0.01232948  1  0.122879  1.4e-05  0.9432  0.0  0.133238  7e-06  0.99705  0.0  0.136504  1.4e-05  0.995775  0.0  0.120363  0.131024  -0.0  0.997985  0.0
H  H11  1  0.12458211  0.56882189  0.48793550  1  0.124049  -5e-06  0.943221  0.0  0.133964  -4e-06  0.997639  0.0  0.13713  -1e-05  0.996524  0.0  0.120677  0.131824  -0.0  0.99845  0.0
H  H12  1  0.75332936  0.27232974  0.09233655  1  0.100794  0.000104  0.968529  0.0  0.110953  0.000117  1.029884  0.0  0.112771  5.8e-05  1.029429  0.0  0.107744  0.109723  0.000175  1.029946  0.0
H  H13  1  0.11825772  0.22812104  0.40749584  1  0.100969  -0.0001  0.969092  0.0  0.11032  -0.000106  1.03136  0.0  0.112187  -5.3e-05  1.030843  0.0  0.107528  0.10915  -0.000176  1.031335  0.0
H  H14  1  0.24667012  0.72766809  0.90766095  1  0.100804  0.000102  0.968511  0.0  0.110966  0.000117  1.029855  0.0  0.112783  5.8e-05  1.029402  0.0  0.107744  0.109737  0.000175  1.029918  0.0
H  H15  1  0.88174161  0.77187676  0.59250408  1  0.100972  -0.000103  0.9691  0.0  0.110328  -0.000106  1.031365  0.0  0.112195  -5.3e-05  1.030847  0.0  0.107547  0.109158  -0.000176  1.031343  0.0
H  H16  1  0.51072771  0.32477854  0.23597150  1  0.111926  -1.6e-05  0.973161  0.0  0.115496  -2e-06  1.042631  0.0  0.119536  -5e-06  1.040459  0.0  0.116376  0.11252  4e-06  1.04455  0.0
H  H17  1  0.07181833  0.17522495  0.26400358  1  0.112153  1.7e-05  0.972576  0.0  0.11514  -4e-06  1.042639  0.0  0.119275  1e-06  1.040336  0.0  0.115805  0.112078  -5e-06  1.044747  0.0
H  H18  1  0.48927188  0.67522282  0.76402629  1  0.111902  -1.7e-05  0.973229  0.0  0.115472  -1e-06  1.042708  0.0  0.119512  -5e-06  1.040535  0.0  0.116356  0.112496  4e-06  1.044623  0.0
H  H19  1  0.92818158  0.82477167  0.73599638  1  0.112107  1.7e-05  0.97267  0.0  0.11514  -3e-06  1.04268  0.0  0.119276  1e-06  1.040376  0.0  0.115816  0.112076  -5e-06  1.044793  0.0
H  H20  1  0.34102886  0.17838824  0.26380544  1  0.112622  -6.3e-05  0.942667  0.0  0.121546  -6.2e-05  1.004559  0.0  0.123682  -3.9e-05  1.003178  0.0  0.135186  0.1201  -8.1e-05  1.005266  0.0
H  H21  1  0.78345383  0.32126779  0.23626111  1  0.111708  6.4e-05  0.94155  0.0  0.121092  5.9e-05  1.003143  0.0  0.123216  3.8e-05  1.001775  0.0  0.135073  0.119574  8.1e-05  1.004042  0.0
H  H22  1  0.65897090  0.82161192  0.73619394  1  0.112672  -6.7e-05  0.942589  0.0  0.121592  -6.2e-05  1.004489  0.0  0.123724  -3.9e-05  1.003121  0.0  0.135195  0.120145  -8.1e-05  1.005191  0.0
H  H23  1  0.21654534  0.67873121  0.76373722  1  0.111735  5.6e-05  0.941559  0.0  0.121129  5.9e-05  1.00313  0.0  0.123253  3.8e-05  1.001763  0.0  0.135101  0.11961  8.1e-05  1.00403  0.0
H  H24  1  0.18917767  0.58073923  0.23940781  1  0.431938  -4.2e-05  0.836576  0.0  0.409281  -2.6e-05  0.894066  0.0  0.417894  -2e-06  0.881662  0.0  0.313611  0.403374  -4e-05  0.902658  0.0
H  H25  1  0.00925813  0.91926802  0.26055899  1  0.434838  3.9e-05  0.834075  0.0  0.41217  2.2e-05  0.890267  0.0  0.420787  -1e-06  0.877861  0.0  0.31568  0.406192  3.9e-05  0.898998  0.0
H  H26  1  0.81082911  0.41925743  0.76058968  1  0.431961  -4.1e-05  0.836477  0.0  0.409276  -2.6e-05  0.894063  0.0  0.417896  -2e-06  0.881647  0.0  0.313585  0.403366  -4e-05  0.902657  0.0
H  H27  1  0.99074251  0.08072979  0.73943960  1  0.434832  4e-05  0.834104  0.0  0.412166  2.2e-05  0.890282  0.0  0.420782  -1e-06  0.877876  0.0  0.315676  0.40619  3.9e-05  0.899008  0.0
H  H28  1  0.25700899  0.49434751  0.33066820  1  0.425687  0.000186  0.882691  0.0  0.387635  6.3e-05  0.958542  0.0  0.399208  4.6e-05  0.941743  0.0  0.291813  0.379396  9.1e-05  0.970605  0.0
H  H29  1  0.08201015  0.00568205  0.16931480  1  0.426867  -0.000194  0.881266  0.0  0.388379  -7.1e-05  0.957742  0.0  0.399935  -5.1e-05  0.940966  0.0  0.292217  0.380165  -9.2e-05  0.969769  0.0
H  H30  1  0.74299266  0.50565383  0.66933090  1  0.425681  0.000187  0.882698  0.0  0.387617  6.3e-05  0.958569  0.0  0.39919  4.6e-05  0.94177  0.0  0.291798  0.379379  9.1e-05  0.970629  0.0
H  H31  1  0.91799083  0.99431694  0.83068396  1  0.426879  -0.000194  0.881241  0.0  0.388392  -7.1e-05  0.957717  0.0  0.399948  -5.1e-05  0.940941  0.0  0.29222  0.380178  -9.2e-05  0.969744  0.0
H  H32  1  0.37629769  0.58466205  0.09634723  1  0.430295  -0.000128  0.878652  0.0  0.392647  -5.2e-05  0.953439  0.0  0.40368  -3.3e-05  0.937512  0.0  0.292375  0.384924  -6.7e-05  0.964642  0.0
H  H33  1  0.05727080  0.91519890  0.40370346  1  0.42978  0.000129  0.879198  0.0  0.392789  5.2e-05  0.953032  0.0  0.403811  3.2e-05  0.937096  0.0  0.292706  0.384982  6.5e-05  0.964429  0.0
H  H34  1  0.62370070  0.41533924  0.90365519  1  0.430391  -0.000128  0.878493  0.0  0.392778  -5.2e-05  0.953236  0.0  0.40381  -3.3e-05  0.93731  0.0  0.292432  0.385057  -6.6e-05  0.964438  0.0
H  H35  1  0.94273259  0.08480124  0.59629678  1  0.429726  0.000128  0.879269  0.0  0.392741  5.2e-05  0.953093  0.0  0.403761  3.2e-05  0.937159  0.0  0.292677  0.384933  6.5e-05  0.964492  0.0
H  H36  1  0.54911986  0.59688801  0.05435608  1  0.4387  2.2e-05  0.833187  0.0  0.413921  -5e-06  0.892676  0.0  0.42115  -1.8e-05  0.882688  0.0  0.316402  0.408991  3e-06  0.899565  0.0
H  H37  1  0.20042268  0.90297447  0.44559655  1  0.440601  -2.2e-05  0.831344  0.0  0.415141  2e-06  0.891249  0.0  0.422365  1.6e-05  0.881281  0.0  0.316786  0.41015  -4e-06  0.898281  0.0
H  H38  1  0.45087922  0.40310980  0.94564295  1  0.438707  2.1e-05  0.833164  0.0  0.413928  -5e-06  0.892666  0.0  0.421155  -1.8e-05  0.88268  0.0  0.316399  0.408999  3e-06  0.899553  0.0
H  H39  1  0.79958330  0.09702214  0.55440403  1  0.440629  -2.6e-05  0.831345  0.0  0.415169  2e-06  0.891221  0.0  0.422393  1.5e-05  0.881252  0.0  0.316787  0.410174  -4e-06  0.898256  0.0
C  C40  1  0.51484522  0.90333722  0.39835108  1  0.124391  0.032662  3.498497  0.044  0.088107  0.013984  3.806171  0.022  0.094995  0.017392  3.816987  0.027  0.04047  0.082912  0.011144  3.80138  0.018
C  C41  1  0.81634248  0.59678478  0.10156895  1  0.126907  -0.032267  3.496079  -0.043  0.090806  -0.013907  3.803579  -0.022  0.097687  -0.017294  3.814189  -0.027  0.043186  0.0858  -0.011129  3.798239  -0.018
C  C42  1  0.48515827  0.09666645  0.60164945  1  0.124496  0.032659  3.49844  0.044  0.088214  0.013981  3.806115  0.022  0.095103  0.01739  3.816928  0.027  0.040501  0.083015  0.011143  3.80132  0.018
C  C43  1  0.18365577  0.40322004  0.89843290  1  0.126907  -0.032242  3.496085  -0.043  0.090806  -0.013909  3.803581  -0.022  0.097686  -0.017294  3.81419  -0.027  0.04318  0.085797  -0.011129  3.798238  -0.018
C  C44  1  0.28331458  0.01329247  0.55817872  1  0.097516  0.032823  3.487762  0.044  0.055713  0.013773  3.793064  0.022  0.061744  0.017139  3.802237  0.027  0.032342  0.050268  0.010939  3.787831  0.018
C  C45  1  0.85507538  0.48640179  0.94174391  1  0.096311  -0.032977  3.487214  -0.045  0.054408  -0.013767  3.792486  -0.022  0.060345  -0.017167  3.801647  -0.027  0.03123  0.048646  -0.010934  3.788016  -0.018
C  C46  1  0.71668959  0.98671355  0.44182215  1  0.097426  0.032823  3.488056  0.044  0.055623  0.013774  3.793353  0.022  0.061654  0.01714  3.802525  0.027  0.032312  0.050179  0.010938  3.788125  0.018
C  C47  1  0.14491379  0.51359716  0.05825779  1  0.096285  -0.033009  3.486627  -0.045  0.05433  -0.013783  3.791991  -0.022  0.060317  -0.017185  3.801093  -0.027  0.031217  0.04856  -0.010946  3.787523  -0.018
C  C48  1  0.60768699  0.79919835  0.56181691  1  0.081102  0.038542  3.471407  0.053  0.038121  0.015161  3.78599  0.026  0.041823  0.019184  3.798105  0.031  0.032776  0.035553  0.011565  3.776675  0.021
C  C49  1  0.96851997  0.70078613  0.93816179  1  0.081184  -0.038631  3.468857  -0.053  0.037779  -0.015213  3.783768  -0.026  0.041366  -0.019282  3.795831  -0.031  0.031565  0.035192  -0.01157  3.774874  -0.022
C  C50  1  0.39231534  0.20080534  0.43818253  1  0.081204  0.038547  3.471456  0.053  0.038226  0.015163  3.78604  0.026  0.041927  0.019184  3.798158  0.031  0.032815  0.035661  0.011565  3.776719  0.021
C  C51  1  0.03148063  0.29921517  0.06183952  1  0.081267  -0.038631  3.468817  -0.053  0.037874  -0.015215  3.783704  -0.026  0.04146  -0.019284  3.795772  -0.031  0.03161  0.035288  -0.011572  3.774811  -0.022
C  C52  1  0.61630901  0.02067294  0.06917817  1  0.02144  0.000439  3.564373  0.001  -0.02161  0.000304  3.823066  0.0  -0.014278  0.000157  3.835525  0.0  0.054046  -0.025579  0.000612  3.813737  0.001
C  C53  1  0.70628264  0.47962485  0.43064120  1  0.022424  -0.000265  3.563811  0.0  -0.020211  -0.000202  3.821972  0.0  -0.012776  -9.6e-05  3.834337  0.0  0.054412  -0.024298  -0.000605  3.812922  -0.001
C  C54  1  0.38369041  0.97932604  0.93082104  1  0.021374  0.000416  3.564603  0.0  -0.021661  0.000305  3.823263  0.0  -0.014326  0.000157  3.835723  0.0  0.054003  -0.025632  0.000611  3.813938  0.001
C  C55  1  0.29371794  0.52037412  0.56935910  1  0.022268  -0.000258  3.563958  0.0  -0.020325  -0.000205  3.822081  0.0  -0.012891  -9.7e-05  3.834447  0.0  0.054359  -0.024409  -0.000605  3.813027  -0.001
C  C56  1  0.71405097  0.09828386  0.04953140  1  -0.076742  -0.000292  3.730699  0.0  -0.085985  -0.000138  3.980353  0.0  -0.091267  -7e-05  3.998452  0.0  -0.066881  -0.082597  -8e-05  3.967401  0.0
C  C57  1  0.86202631  0.40211384  0.45026048  1  -0.078686  2.6e-05  3.729677  0.0  -0.088113  -9e-06  3.979746  0.0  -0.09341  -2.1e-05  3.997929  0.0  -0.068011  -0.084896  7.2e-05  3.966957  0.0
C  C58  1  0.28594789  0.90171630  0.95046777  1  -0.076699  -0.000274  3.730908  0.0  -0.08595  -0.000137  3.980532  0.0  -0.091232  -6.9e-05  3.998632  0.0  -0.066846  -0.082565  -8e-05  3.967586  0.0
C  C59  1  0.13797523  0.59788397  0.54973833  1  -0.078686  2e-05  3.72957  0.0  -0.088127  -1e-05  3.979631  0.0  -0.093422  -2.1e-05  3.997811  0.0  -0.067986  -0.084913  7.2e-05  3.966848  0.0
C  C60  1  0.67756406  0.21031858  0.10828626  1  -0.026475  0.000685  3.715932  0.001  -0.053217  0.000552  3.969705  0.001  -0.048328  0.000326  3.98597  0.0  -0.074132  -0.055236  0.001092  3.957181  0.001
C  C61  1  0.99641233  0.29001650  0.39154060  1  -0.02378  -0.000416  3.715029  0.0  -0.04954  -0.000401  3.968281  0.0  -0.044602  -0.000245  3.984513  0.0  -0.071107  -0.051651  -0.001086  3.955893  -0.001
C  C62  1  0.32243446  0.78968040  0.89171274  1  -0.026459  0.000674  3.715999  0.001  -0.053193  0.00055  3.969757  0.001  -0.048304  0.000325  3.986025  0.0  -0.074079  -0.055212  0.001092  3.957233  0.001
C  C63  1  0.00358797  0.70998014  0.60845781  1  -0.023744  -0.000404  3.714908  0.0  -0.049509  -0.000398  3.968184  0.0  -0.044569  -0.000244  3.98441  0.0  -0.071114  -0.051619  -0.001086  3.955799  -0.001
C  C64  1  0.54363099  0.23995235  0.18712354  1  -0.091646  0.000145  3.75603  0.0  -0.102847  0.000216  4.010928  0.0  -0.109375  0.000164  4.030783  0.0  -0.07374  -0.098703  0.000257  3.996888  0.0
C  C65  1  0.97095746  0.26010474  0.31281148  1  -0.095382  -0.000347  3.756119  0.0  -0.105772  -0.000319  4.011186  0.0  -0.112376  -0.000221  4.031  0.0  -0.07571  -0.10146  -0.000274  3.997202  0.0
C  C66  1  0.45636843  0.76004663  0.81287567  1  -0.091628  0.000163  3.756059  0.0  -0.10284  0.000216  4.010964  0.0  -0.109366  0.000164  4.030816  0.0  -0.07374  -0.098698  0.000256  3.996919  0.0
C  C67  1  0.02904304  0.73989662  0.68718653  1  -0.095358  -0.000352  3.756154  0.0  -0.105786  -0.000318  4.011227  0.0  -0.112388  -0.000221  4.031037  0.0  -0.075723  -0.10147  -0.000274  3.997237  0.0
C  C68  1  0.44775543  0.16103718  0.20452439  1  0.024831  2.9e-05  3.580964  0.0  -0.015886  -3.5e-05  3.833219  0.0  -0.009308  -3.5e-05  3.848444  0.0  0.050682  -0.019558  -2.6e-05  3.822333  0.0
C  C69  1  0.81351841  0.33887152  0.29545180  1  0.027968  3.9e-05  3.577417  0.0  -0.013474  5.3e-05  3.829877  0.0  -0.006802  4.3e-05  3.845012  0.0  0.05263  -0.017137  2.7e-05  3.818828  0.0
C  C70  1  0.55224399  0.83896180  0.79547482  1  0.024776  1.7e-05  3.580845  0.0  -0.015945  -3.5e-05  3.833108  0.0  -0.009368  -3.5e-05  3.848329  0.0  0.050656  -0.019611  -2.6e-05  3.822218  0.0
C  C71  1  0.18647971  0.66112744  0.70454874  1  0.02795  5.8e-05  3.577426  0.0  -0.013507  4.8e-05  3.829914  0.0  -0.006836  4.1e-05  3.845049  0.0  0.052609  -0.017171  2.7e-05  3.818865  0.0
N  N72  1  0.51258466  0.84247645  0.33962830  1  -0.544984  -0.021062  2.94312  -0.028  -0.496584  -0.014082  3.234155  -0.02  -0.515354  -0.013716  3.2433  -0.019  -0.44435  -0.488948  -0.015052  3.227565  -0.021
N  N73  1  0.69451669  0.65780414  0.16030300  1  -0.547733  0.020373  2.941368  0.027  -0.499545  0.013675  3.23279  0.019  -0.518211  0.013393  3.241849  0.019  -0.446929  -0.491555  0.014971  3.225799  0.021
N  N74  1  0.48741416  0.15752720  0.66037359  1  -0.545114  -0.02106  2.943098  -0.028  -0.49672  -0.014081  3.234135  -0.02  -0.515488  -0.013716  3.243277  -0.019  -0.444417  -0.48908  -0.015053  3.227543  -0.021
N  N75  1  0.30548113  0.34219833  0.83969938  1  -0.5477  0.020349  2.941335  0.027  -0.499504  0.013675  3.232734  0.019  -0.518167  0.013391  3.241793  0.019  -0.446904  -0.491509  0.01497  3.225737  0.021
N  N76  1  0.14795617  0.02298560  0.58977119  1  -0.466926  -0.020762  2.855823  -0.028  -0.403754  -0.013374  3.107957  -0.018  -0.418395  -0.012961  3.119302  -0.018  -0.348121  -0.393855  -0.014467  3.100408  -0.02
N  N77  1  0.76115554  0.47669648  0.91006562  1  -0.465498  0.021099  2.855312  0.028  -0.40191  0.013536  3.107448  0.019  -0.41657  0.013084  3.118891  0.018  -0.346887  -0.392144  0.014492  3.099979  0.02
N  N78  1  0.85204522  0.97702158  0.41023076  1  -0.466848  -0.020762  2.856163  -0.028  -0.403675  -0.013375  3.108301  -0.018  -0.418317  -0.012962  3.119648  -0.018  -0.348078  -0.393775  -0.014467  3.100754  -0.02
N  N79  1  0.23884744  0.52330466  0.08994691  1  -0.465467  0.021141  2.854461  0.028  -0.401852  0.013563  3.106565  0.019  -0.416535  0.013109  3.118016  0.018  -0.346861  -0.392082  0.014522  3.099091  0.02
N  N80  1  0.67751572  0.67570433  0.59927690  1  -0.42275  -0.032866  2.855439  -0.045  -0.366871  -0.021025  3.118597  -0.03  -0.38251  -0.019043  3.133617  -0.027  -0.331116  -0.355718  -0.024326  3.107096  -0.034
N  N81  1  0.95234493  0.82429776  0.90074720  1  -0.422909  0.033237  2.850732  0.045  -0.36665  0.02135  3.113892  0.03  -0.382277  0.019347  3.12896  0.028  -0.330495  -0.355736  0.024423  3.102849  0.034
N  N82  1  0.32248199  0.32429818  0.40072218  1  -0.422819  -0.032872  2.855474  -0.045  -0.366948  -0.021029  3.118627  -0.03  -0.382588  -0.019043  3.13365  -0.027  -0.331141  -0.355796  -0.024329  3.107125  -0.034
N  N83  1  0.04765760  0.17570124  0.09925111  1  -0.422983  0.03324  2.850658  0.046  -0.366725  0.021355  3.113829  0.03  -0.382352  0.01935  3.128896  0.028  -0.330535  -0.35581  0.02443  3.102787  0.034
N  N84  1  0.48384877  0.05423652  0.14546413  1  0.294944  -0.000172  3.702632  0.0  0.352072  -9.3e-05  3.957834  0.0  0.350707  -9.1e-05  3.981235  0.0  -0.103914  0.351898  -7.8e-05  3.943232  0.0
N  N85  1  0.68370237  0.44578500  0.35446410  1  0.294082  0.000106  3.70384  0.0  0.351346  0.000104  3.959412  0.0  0.349953  0.000103  3.982833  0.0  -0.1054  0.351275  8.8e-05  3.94462  0.0
N  N86  1  0.51615000  0.94576245  0.85453575  1  0.294966  -0.000156  3.702654  0.0  0.352081  -9.3e-05  3.957857  0.0  0.350716  -9.1e-05  3.981255  0.0  -0.103925  0.351906  -7.8e-05  3.943255  0.0
N  N87  1  0.31629665  0.55421396  0.64553666  1  0.294144  9.9e-05  3.703878  0.0  0.351397  0.000108  3.959442  0.0  0.350003  0.000104  3.982863  0.0  -0.105407  0.351322  8.7e-05  3.944652  0.0
O  O88  1  0.38646993  0.98433914  0.16175225  1  -0.672327  0.000537  1.848061  0.001  -0.635404  0.000439  2.110092  0.001  -0.66562  0.000245  2.106371  0.0  -0.33824  -0.61742  0.001591  2.110152  0.003
O  O89  1  0.53269113  0.51566223  0.33816890  1  -0.673395  -0.000323  1.850893  0.0  -0.636614  -0.000297  2.112772  0.0  -0.666929  -0.000184  2.109173  0.0  -0.339062  -0.618393  -0.001606  2.112974  -0.003
O  O90  1  0.61352762  0.01566100  0.83824824  1  -0.672292  0.000542  1.84806  0.001  -0.635378  0.000438  2.110108  0.001  -0.665595  0.000243  2.106396  0.0  -0.338211  -0.617393  0.00159  2.110167  0.003
O  O91  1  0.46730863  0.48433793  0.66183048  1  -0.673398  -0.00032  1.850877  0.0  -0.636619  -0.000297  2.112752  0.0  -0.666931  -0.000184  2.109154  0.0  -0.339057  -0.618387  -0.001606  2.112941  -0.003
O  O92  1  0.22244367  0.59600809  0.29049042  1  -0.892184  0.000233  1.829017  0.001  -0.838909  6.7e-05  2.016967  0.0  -0.861723  7.8e-05  1.981968  0.0  -0.631512  -0.826595  4.2e-05  2.039057  0.0
O  O93  1  0.10890467  0.90401333  0.20947615  1  -0.89643  -0.000203  1.826031  0.0  -0.842969  -3.2e-05  2.01373  0.0  -0.865814  -5.9e-05  1.978605  0.0  -0.63396  -0.830481  -3.5e-05  2.035717  0.0
O  O94  1  0.77755675  0.40399208  0.70950830  1  -0.892192  0.000232  1.828918  0.001  -0.838887  6.6e-05  2.016916  0.0  -0.861708  7.9e-05  1.981912  0.0  -0.631463  -0.826574  4.2e-05  2.039004  0.0
O  O95  1  0.89109600  0.09598683  0.79052344  1  -0.896436  -0.000206  1.826047  0.0  -0.842974  -3.3e-05  2.013701  0.0  -0.865818  -5.9e-05  1.97859  0.0  -0.633961  -0.83049  -3.5e-05  2.035687  0.0
O  O96  1  0.44996251  0.62449959  0.10652162  1  -0.933925  -2.6e-05  1.886326  0.0  -0.88355  4.4e-05  2.09034  0.0  -0.907787  2.2e-05  2.057755  0.0  -0.643042  -0.871132  0.000123  2.110282  0.0
O  O97  1  0.18104013  0.87510965  0.39354413  1  -0.935442  4e-06  1.885206  0.0  -0.88468  -6.7e-05  2.088345  0.0  -0.908787  -3.3e-05  2.055612  0.0  -0.643809  -0.872306  -0.000122  2.109053  0.0
O  O98  1  0.55003784  0.37550173  0.89347881  1  -0.934005  -2.3e-05  1.886231  0.0  -0.883645  4.4e-05  2.090175  0.0  -0.907881  2.2e-05  2.057595  0.0  -0.643062  -0.871229  0.000123  2.110118  0.0
O  O99  1  0.81896495  0.12488697  0.60645623  1  -0.93541  1.1e-05  1.885275  0.0  -0.884653  -6.7e-05  2.088391  0.0  -0.908758  -3.3e-05  2.055661  0.0  -0.643779  -0.872278  -0.000122  2.1091  0.0
