# generated using pymatgen
data_CuH3C2SN4
_symmetry_space_group_name_H-M   'P 1'
_cell_length_a   4.90859321
_cell_length_b   8.63417541
_cell_length_c   11.64821811
_cell_angle_alpha   110.39726706
_cell_angle_beta   90.00010489
_cell_angle_gamma   89.99994977
_symmetry_Int_Tables_number   1
_chemical_formula_structural   CuH3C2SN4
_chemical_formula_sum   'Cu4 H12 C8 S4 N16'
_cell_volume   462.71691829
_cell_formula_units_Z   4
loop_
 _symmetry_equiv_pos_site_id
 _symmetry_equiv_pos_as_xyz
  1  'x, y, z'
loop_
 _atom_site_type_symbol
 _atom_site_label
 _atom_site_symmetry_multiplicity
 _atom_site_fract_x
 _atom_site_fract_y
 _atom_site_fract_z
 _atom_site_occupancy
 _atom_site_hle17_bader_spin_density
 _atom_site_hle17_ddec_charge
 _atom_site_hle17_ddec_spin_density
 _atom_site_hle17_ddec_sum_bond_order
 _atom_site_hle17_magmom
 _atom_site_hse06_10hf_bader_spin_density
 _atom_site_hse06_10hf_ddec_charge
 _atom_site_hse06_10hf_ddec_spin_density
 _atom_site_hse06_10hf_ddec_sum_bond_order
 _atom_site_hse06_10hf_magmom
 _atom_site_hse06_bader_spin_density
 _atom_site_hse06_ddec_charge
 _atom_site_hse06_ddec_spin_density
 _atom_site_hse06_ddec_sum_bond_order
 _atom_site_hse06_magmom
 _atom_site_pbe_bader_spin_density
 _atom_site_pbe_cm5_charge
 _atom_site_pbe_ddec_charge
 _atom_site_pbe_ddec_spin_density
 _atom_site_pbe_ddec_sum_bond_order
 _atom_site_pbe_magmom
Cu  Cu0  1  0.50588176  0.32820732  0.84422041  1  0  0.334127  0  2.167953  0  0  0.23551  0  2.690565  0  0  0.230829  0  2.646697  0  0  0.438875  0.241325  0  2.718703  0
Cu  Cu1  1  0.00588485  0.17179340  0.65577823  1  0  0.334077  0  2.168023  0  0  0.235457  0  2.690646  0  0  0.230798  0  2.646792  0  0  0.438875  0.241264  0  2.718804  0
Cu  Cu2  1  0.49411289  0.67179320  0.15577912  1  0  0.334097  0  2.168015  0  0  0.235479  0  2.690654  0  0  0.23083  0  2.646812  0  0  0.438904  0.241294  0  2.718866  0
Cu  Cu3  1  0.99411998  0.82820587  0.34421927  1  0  0.334069  0  2.168019  0  0  0.235437  0  2.69064  0  0  0.230758  0  2.646778  0  0  0.438878  0.241269  0  2.718871  0
H  H4  1  0.65451232  0.58805696  0.64781253  1  0  0.108631  0  0.971778  0  0  0.121177  0  1.051489  0  0  0.121715  0  1.051055  0  0  0.101076  0.120499  0  1.051448  0
H  H5  1  0.15451386  0.91194328  0.85218893  1  0  0.108653  0  0.971777  0  0  0.12119  0  1.051495  0  0  0.121729  0  1.051064  0  0  0.101077  0.120511  0  1.051456  0
H  H6  1  0.34548437  0.41194481  0.35218903  1  0  0.108703  0  0.971713  0  0  0.121215  0  1.051461  0  0  0.121755  0  1.051021  0  0  0.101092  0.120542  0  1.051421  0
H  H7  1  0.84549097  0.08805725  0.14781232  1  0  0.108616  0  0.971785  0  0  0.121164  0  1.051505  0  0  0.121701  0  1.051071  0  0  0.101077  0.120488  0  1.051465  0
H  H8  1  0.89133368  0.75845611  0.68436930  1  0  0.114511  0  0.95676  0  0  0.134006  0  1.020079  0  0  0.134256  0  1.021083  0  0  0.104796  0.133654  0  1.018806  0
H  H9  1  0.39133125  0.74154286  0.81563202  1  0  0.114538  0  0.956736  0  0  0.134034  0  1.020048  0  0  0.134284  0  1.021054  0  0  0.104806  0.13368  0  1.018775  0
H  H10  1  0.10866504  0.24154443  0.31563195  1  0  0.114473  0  0.956821  0  0  0.134012  0  1.02008  0  0  0.134267  0  1.021082  0  0  0.104792  0.13366  0  1.018808  0
H  H11  1  0.60866951  0.25845768  0.18437009  1  0  0.114489  0  0.95677  0  0  0.133986  0  1.020096  0  0  0.134235  0  1.0211  0  0  0.104794  0.133634  0  1.018824  0
H  H12  1  0.86497560  0.61416942  0.53089574  1  0  0.115197  0  0.960697  0  0  0.131063  0  1.033311  0  0  0.131353  0  1.033416  0  0  0.107662  0.130574  0  1.032926  0
H  H13  1  0.36497158  0.88582832  0.96910612  1  0  0.115216  0  0.960692  0  0  0.131048  0  1.033351  0  0  0.131337  0  1.033459  0  0  0.107667  0.130558  0  1.032963  0
H  H14  1  0.13502515  0.38582865  0.46910575  1  0  0.115211  0  0.960679  0  0  0.131052  0  1.033321  0  0  0.131341  0  1.033425  0  0  0.107663  0.130562  0  1.032936  0
H  H15  1  0.63502510  0.11417100  0.03089654  1  0  0.115202  0  0.96065  0  0  0.131076  0  1.03326  0  0  0.131366  0  1.033363  0  0  0.107658  0.130584  0  1.032873  0
C  C16  1  0.50055347  0.94910457  0.64936047  1  0  0.274421  0  3.761124  0  0  0.233845  0  4.045514  0  0  0.258554  0  4.059816  0  0  0.213546  0.223915  0  4.036268  0
C  C17  1  0.00054945  0.55089443  0.85063713  1  0  0.274434  0  3.761075  0  0  0.23389  0  4.045449  0  0  0.258566  0  4.059754  0  0  0.213535  0.223957  0  4.036203  0
C  C18  1  0.49945136  0.05089716  0.35063679  1  0  0.27441  0  3.760993  0  0  0.233827  0  4.045426  0  0  0.258568  0  4.059727  0  0  0.213513  0.223899  0  4.036201  0
C  C19  1  0.99944724  0.44910608  0.14936154  1  0  0.274352  0  3.761175  0  0  0.233796  0  4.045548  0  0  0.258513  0  4.059857  0  0  0.213501  0.223867  0  4.036317  0
C  C20  1  0.75318607  0.67902188  0.61523895  1  0  -0.191105  0  3.628338  0  0  -0.308852  0  3.874389  0  0  -0.296625  0  3.888389  0  0  -0.135856  -0.309845  0  3.868417  0
C  C21  1  0.25318382  0.82097834  0.88476173  1  0  -0.191179  0  3.628345  0  0  -0.308897  0  3.874415  0  0  -0.296699  0  3.888404  0  0  -0.135881  -0.309888  0  3.868441  0
C  C22  1  0.24681469  0.32097989  0.38476176  1  0  -0.191165  0  3.628345  0  0  -0.308887  0  3.874421  0  0  -0.296636  0  3.88844  0  0  -0.135863  -0.309881  0  3.868452  0
C  C23  1  0.74681490  0.17902220  0.11524038  1  0  -0.191032  0  3.628242  0  0  -0.308805  0  3.874335  0  0  -0.296568  0  3.888338  0  0  -0.135833  -0.309798  0  3.868362  0
S  S24  1  0.69591383  0.07605848  0.76715063  1  0  -0.380793  0  2.661923  0  0  -0.369565  0  3.167809  0  0  -0.372073  0  3.133298  0  0  -0.234129  -0.368383  0  3.188784  0
S  S25  1  0.19591280  0.42394343  0.73284759  1  0  -0.380781  0  2.661973  0  0  -0.369556  0  3.167832  0  0  -0.372064  0  3.133332  0  0  -0.234136  -0.368376  0  3.188813  0
S  S26  1  0.30408693  0.92394202  0.23284717  1  0  -0.380786  0  2.661943  0  0  -0.369561  0  3.167859  0  0  -0.372075  0  3.133348  0  0  -0.234132  -0.368382  0  3.1889  0
S  S27  1  0.80408592  0.57605708  0.26715108  1  0  -0.380748  0  2.661961  0  0  -0.369506  0  3.167807  0  0  -0.372021  0  3.133306  0  0  -0.2341  -0.368333  0  3.18885  0
N  N28  1  0.28239509  0.98554119  0.59272322  1  0  -0.281467  0  3.196529  0  0  -0.23777  0  3.525225  0  0  -0.24674  0  3.525134  0  0  -0.267123  -0.232246  0  3.523199  0
N  N29  1  0.78239275  0.51445777  0.90727545  1  0  -0.281535  0  3.196489  0  0  -0.237841  0  3.525138  0  0  -0.246805  0  3.525045  0  0  -0.26715  -0.232319  0  3.523104  0
N  N30  1  0.71760770  0.01445685  0.40727483  1  0  -0.281499  0  3.196487  0  0  -0.237767  0  3.525127  0  0  -0.246727  0  3.52501  0  0  -0.26712  -0.23225  0  3.523128  0
N  N31  1  0.21760393  0.48554276  0.09272494  1  0  -0.281462  0  3.196525  0  0  -0.237766  0  3.525202  0  0  -0.246742  0  3.52512  0  0  -0.267131  -0.232247  0  3.523188  0
N  N32  1  0.21404140  0.84415262  0.49954097  1  0  -0.03603  0  3.225698  0  0  -0.003698  0  3.559779  0  0  0.002474  0  3.554426  0  0  -0.127352  -0.008193  0  3.561798  0
N  N33  1  0.71403708  0.65584775  0.00045924  1  0  -0.036118  0  3.225668  0  0  -0.003768  0  3.559734  0  0  0.002396  0  3.554406  0  0  -0.127361  -0.00826  0  3.561737  0
N  N34  1  0.78596139  0.15584666  0.50045738  1  0  -0.036075  0  3.225721  0  0  -0.003733  0  3.559805  0  0  0.002433  0  3.554453  0  0  -0.127341  -0.008223  0  3.561801  0
N  N35  1  0.28595756  0.34415278  0.99954115  1  0  -0.036085  0  3.225725  0  0  -0.003771  0  3.559847  0  0  0.002405  0  3.554489  0  0  -0.127382  -0.008262  0  3.561833  0
N  N36  1  0.37243514  0.72232919  0.49726326  1  0  -0.086614  0  2.856687  0  0  -0.087932  0  3.123461  0  0  -0.074403  0  3.134978  0  0  -0.072599  -0.090874  0  3.120211  0
N  N37  1  0.87242861  0.77767115  0.00273708  1  0  -0.086536  0  2.856627  0  0  -0.087816  0  3.123354  0  0  -0.074313  0  3.13486  0  0  -0.072594  -0.090761  0  3.120098  0
N  N38  1  0.62756969  0.27767009  0.50273596  1  0  -0.086564  0  2.856644  0  0  -0.08787  0  3.123437  0  0  -0.074311  0  3.134971  0  0  -0.072599  -0.09081  0  3.120172  0
N  N39  1  0.12756604  0.22233062  0.99726363  1  0  -0.08661  0  2.856716  0  0  -0.087909  0  3.123486  0  0  -0.074372  0  3.135006  0  0  -0.072592  -0.090853  0  3.120216  0
N  N40  1  0.55020313  0.78466399  0.59004786  1  0  0.02917  0  3.521138  0  0  0.15226  0  3.704574  0  0  0.110695  0  3.765522  0  0  -0.128893  0.159622  0  3.689285  0
N  N41  1  0.05019911  0.71533626  0.90995181  1  0  0.029166  0  3.521093  0  0  0.152205  0  3.704569  0  0  0.110725  0  3.765425  0  0  -0.12888  0.159563  0  3.68928  0
N  N42  1  0.44979762  0.21533653  0.40995167  1  0  0.029229  0  3.521  0  0  0.152266  0  3.70451  0  0  0.110607  0  3.765568  0  0  -0.128862  0.159627  0  3.689223  0
N  N43  1  0.94979757  0.28466427  0.09004858  1  0  0.029195  0  3.521094  0  0  0.152277  0  3.704529  0  0  0.110684  0  3.765512  0  0  -0.128878  0.159637  0  3.689237  0
