# generated using pymatgen
data_ZnH11C10N4ClO4
_symmetry_space_group_name_H-M   'P 1'
_cell_length_a   7.58038030
_cell_length_b   7.87491594
_cell_length_c   10.94282891
_cell_angle_alpha   95.79917292
_cell_angle_beta   88.48431818
_cell_angle_gamma   105.64333211
_symmetry_Int_Tables_number   1
_chemical_formula_structural   ZnH11C10N4ClO4
_chemical_formula_sum   'Zn2 H22 C20 N8 Cl2 O8'
_cell_volume   625.81473299
_cell_formula_units_Z   2
loop_
 _symmetry_equiv_pos_site_id
 _symmetry_equiv_pos_as_xyz
  1  'x, y, z'
loop_
 _atom_site_type_symbol
 _atom_site_label
 _atom_site_symmetry_multiplicity
 _atom_site_fract_x
 _atom_site_fract_y
 _atom_site_fract_z
 _atom_site_occupancy
 _atom_site_hle17_bader_spin_density
 _atom_site_hle17_ddec_charge
 _atom_site_hle17_ddec_spin_density
 _atom_site_hle17_ddec_sum_bond_order
 _atom_site_hle17_magmom
 _atom_site_hse06_10hf_bader_spin_density
 _atom_site_hse06_10hf_ddec_charge
 _atom_site_hse06_10hf_ddec_spin_density
 _atom_site_hse06_10hf_ddec_sum_bond_order
 _atom_site_hse06_10hf_magmom
 _atom_site_hse06_bader_spin_density
 _atom_site_hse06_ddec_charge
 _atom_site_hse06_ddec_spin_density
 _atom_site_hse06_ddec_sum_bond_order
 _atom_site_hse06_magmom
 _atom_site_pbe_bader_spin_density
 _atom_site_pbe_cm5_charge
 _atom_site_pbe_ddec_charge
 _atom_site_pbe_ddec_spin_density
 _atom_site_pbe_ddec_sum_bond_order
 _atom_site_pbe_magmom
Zn  Zn0  1  0.30057596  0.33191730  0.22345562  1  0  1.018227  0  1.899577  0  0  0.835695  0  2.392204  0  0  0.881953  0  2.334573  0  0  0.627852  0.803308  0  2.431871  0
Zn  Zn1  1  0.69942294  0.66807411  0.77654798  1  0  1.018243  0  1.899573  0  0  0.835706  0  2.392167  0  0  0.881968  0  2.334534  0  0  0.627858  0.803318  0  2.431833  0
H  H2  1  0.38799245  0.08831952  0.71143778  1  0  0.335314  0  0.828763  0  0  0.317306  0  0.882758  0  0  0.324964  0  0.876835  0  0  0.344364  0.311828  0  0.887165  0
H  H3  1  0.61202124  0.91173105  0.28858278  1  0  0.335431  0  0.828643  0  0  0.317482  0  0.882571  0  0  0.325134  0  0.876647  0  0  0.344349  0.312012  0  0.886975  0
H  H4  1  0.02495168  0.13622583  0.58794268  1  0  0.132775  0  0.914398  0  0  0.151822  0  0.96387  0  0  0.15381  0  0.963616  0  0  0.114097  0.150394  0  0.964173  0
H  H5  1  0.97503892  0.86378853  0.41207280  1  0  0.1327  0  0.914584  0  0  0.151842  0  0.96396  0  0  0.153833  0  0.963694  0  0  0.114104  0.150411  0  0.96426  0
H  H6  1  0.04843285  0.36280681  0.58988834  1  0  0.121367  0  0.932967  0  0  0.131995  0  0.998425  0  0  0.134224  0  0.997179  0  0  0.102201  0.130413  0  0.999342  0
H  H7  1  0.95156843  0.63720634  0.41009879  1  0  0.121441  0  0.932917  0  0  0.132049  0  0.998424  0  0  0.134276  0  0.997181  0  0  0.102196  0.130463  0  0.999342  0
H  H8  1  0.70960165  0.05242122  0.74022693  1  0  0.141786  0  0.99898  0  0  0.145352  0  1.063312  0  0  0.149745  0  1.060524  0  0  0.124748  0.141995  0  1.065667  0
H  H9  1  0.29040507  0.94760207  0.25977665  1  0  0.141895  0  0.998863  0  0  0.14534  0  1.063353  0  0  0.149777  0  1.060507  0  0  0.124732  0.141987  0  1.065691  0
H  H10  1  0.36817450  0.25447306  0.52176236  1  0  0.114624  0  0.981368  0  0  0.118236  0  1.050267  0  0  0.122073  0  1.045947  0  0  0.139158  0.115372  0  1.053326  0
H  H11  1  0.63182828  0.74555769  0.47824912  1  0  0.114643  0  0.98133  0  0  0.118213  0  1.050333  0  0  0.122042  0  1.046012  0  0  0.139191  0.115354  0  1.053393  0
H  H12  1  0.67724063  0.32163103  0.42574935  1  0  0.310125  0  0.914621  0  0  0.286301  0  0.98572  0  0  0.294556  0  0.979212  0  0  0.294617  0.280408  0  0.990473  0
H  H13  1  0.32275157  0.67838651  0.57425269  1  0  0.310115  0  0.914612  0  0  0.286322  0  0.985714  0  0  0.29458  0  0.979202  0  0  0.294623  0.280425  0  0.990477  0
H  H14  1  0.13404717  0.84663023  0.88130184  1  0  0.134132  0  0.950761  0  0  0.143583  0  1.018655  0  0  0.146857  0  1.015884  0  0  0.10476  0.141177  0  1.020731  0
H  H15  1  0.86596102  0.15336218  0.11868363  1  0  0.134221  0  0.950705  0  0  0.143676  0  1.018585  0  0  0.146947  0  1.015818  0  0  0.104789  0.141267  0  1.020666  0
H  H16  1  0.36714968  0.87971272  0.90602871  1  0  0.129316  0  0.926727  0  0  0.145345  0  0.982865  0  0  0.147375  0  0.98274  0  0  0.106501  0.14387  0  0.983036  0
H  H17  1  0.63285152  0.12027398  0.09396171  1  0  0.129246  0  0.926721  0  0  0.145322  0  0.982815  0  0  0.147349  0  0.982692  0  0  0.106484  0.143849  0  0.982982  0
H  H18  1  0.45329506  0.64281759  0.05152500  1  0  0.118958  0  0.978351  0  0  0.125265  0  1.045584  0  0  0.128315  0  1.043964  0  0  0.112025  0.123018  0  1.046901  0
H  H19  1  0.54669964  0.35715888  0.94848738  1  0  0.119076  0  0.978104  0  0  0.125344  0  1.045385  0  0  0.128397  0  1.043764  0  0  0.112029  0.123096  0  1.046708  0
H  H20  1  0.93066738  0.46568965  0.21269448  1  0  0.089577  0  0.988969  0  0  0.097213  0  1.05744  0  0  0.099506  0  1.054841  0  0  0.119308  0.095421  0  1.059474  0
H  H21  1  0.06932665  0.53431353  0.78730639  1  0  0.089691  0  0.988761  0  0  0.097335  0  1.057227  0  0  0.099621  0  1.054638  0  0  0.119367  0.095539  0  1.059266  0
H  H22  1  0.92071877  0.72035356  0.08717533  1  0  0.324856  0  0.911098  0  0  0.304458  0  0.973774  0  0  0.312858  0  0.967175  0  0  0.311275  0.298546  0  0.978425  0
H  H23  1  0.07929059  0.27966155  0.91283858  1  0  0.324889  0  0.910906  0  0  0.304493  0  0.973633  0  0  0.312894  0  0.967036  0  0  0.311254  0.298579  0  0.978289  0
C  C24  1  0.02356904  0.22811516  0.40879785  1  0  0.690807  0  3.879057  0  0  0.645175  0  4.180804  0  0  0.677569  0  4.174273  0  0  0.199943  0.623179  0  4.184458  0
C  C25  1  0.97642624  0.77185519  0.59120213  1  0  0.690937  0  3.878764  0  0  0.645245  0  4.180589  0  0  0.677637  0  4.174057  0  0  0.199983  0.623245  0  4.184242  0
C  C26  1  0.97148036  0.23311524  0.54538739  1  0  -0.327175  0  3.707098  0  0  -0.367071  0  3.949154  0  0  -0.372812  0  3.957015  0  0  -0.156629  -0.363112  0  3.943859  0
C  C27  1  0.02851564  0.76689063  0.45461372  1  0  -0.327201  0  3.70707  0  0  -0.367191  0  3.949156  0  0  -0.372922  0  3.956997  0  0  -0.156653  -0.363214  0  3.94384  0
C  C28  1  0.77250494  0.19964283  0.57243886  1  0  0.201443  0  3.70554  0  0  0.193273  0  3.967999  0  0  0.196284  0  3.991442  0  0  0.089755  0.191064  0  3.952373  0
C  C29  1  0.22749271  0.80036969  0.42756190  1  0  0.201613  0  3.705524  0  0  0.193525  0  3.96796  0  0  0.196536  0  3.991405  0  0  0.089881  0.191314  0  3.95233  0
C  C30  1  0.67114510  0.11717755  0.66594307  1  0  -0.050848  0  3.598504  0  0  -0.102378  0  3.870131  0  0  -0.102064  0  3.888303  0  0  0.011279  -0.102424  0  3.858227  0
C  C31  1  0.32885731  0.88284427  0.33406034  1  0  -0.050853  0  3.598479  0  0  -0.102281  0  3.870108  0  0  -0.102014  0  3.88824  0  0  0.011335  -0.102309  0  3.85821  0
C  C32  1  0.48662362  0.22270059  0.55776756  1  0  0.252406  0  3.580755  0  0  0.178052  0  3.860664  0  0  0.194981  0  3.868307  0  0  0.170829  0.167168  0  3.855299  0
C  C33  1  0.51337834  0.77731983  0.44223756  1  0  0.252637  0  3.580559  0  0  0.178237  0  3.860711  0  0  0.195174  0  3.868329  0  0  0.170772  0.16735  0  3.855369  0
C  C34  1  0.25108884  0.06677056  0.00980905  1  0  0.721303  0  3.827916  0  0  0.671975  0  4.129193  0  0  0.704841  0  4.122065  0  0  0.214483  0.649609  0  4.13326  0
C  C35  1  0.74891552  0.93321354  0.99018393  1  0  0.721099  0  3.828415  0  0  0.671779  0  4.129679  0  0  0.704641  0  4.122555  0  0  0.214483  0.649413  0  4.133744  0
C  C36  1  0.23769427  0.87752696  0.95466674  1  0  -0.344798  0  3.718926  0  0  -0.383419  0  3.955651  0  0  -0.38981  0  3.963508  0  0  -0.163933  -0.378852  0  3.950194  0
C  C37  1  0.76230680  0.12245968  0.04532550  1  0  -0.344853  0  3.718941  0  0  -0.383537  0  3.955716  0  0  -0.389927  0  3.963576  0  0  -0.163979  -0.378971  0  3.950256  0
C  C38  1  0.20278657  0.73679508  0.03981692  1  0  0.196964  0  3.735248  0  0  0.18958  0  3.994747  0  0  0.193115  0  4.01799  0  0  0.080411  0.187048  0  3.979169  0
C  C39  1  0.79721241  0.26319407  0.96017642  1  0  0.196852  0  3.735394  0  0  0.189511  0  3.994913  0  0  0.193048  0  4.01816  0  0  0.080389  0.186982  0  3.979333  0
C  C40  1  0.31147343  0.63515001  0.07438953  1  0  -0.07081  0  3.701928  0  0  -0.113674  0  3.973259  0  0  -0.11318  0  3.993477  0  0  -0.01247  -0.113958  0  3.95965  0
C  C41  1  0.68852319  0.36483096  0.92560951  1  0  -0.070937  0  3.701871  0  0  -0.113755  0  3.973196  0  0  -0.113258  0  3.993402  0  0  -0.012502  -0.114032  0  3.959576  0
C  C42  1  0.04510886  0.54150405  0.16231262  1  0  0.215602  0  3.694145  0  0  0.15197  0  3.968495  0  0  0.166621  0  3.98141  0  0  0.13668  0.142491  0  3.959498  0
C  C43  1  0.95487958  0.45848823  0.83769277  1  0  0.215423  0  3.69434  0  0  0.151828  0  3.968757  0  0  0.166486  0  3.981684  0  0  0.136571  0.142355  0  3.959751  0
N  N44  1  0.49543637  0.13375590  0.65444441  1  0  -0.253566  0  3.440966  0  0  -0.188147  0  3.689482  0  0  -0.202836  0  3.702173  0  0  -0.358854  -0.178524  0  3.680984  0
N  N45  1  0.50456603  0.86626706  0.34556367  1  0  -0.253954  0  3.441111  0  0  -0.188527  0  3.689547  0  0  -0.203192  0  3.702217  0  0  -0.358867  -0.178936  0  3.681076  0
N  N46  1  0.65324716  0.26306708  0.50726416  1  0  -0.312726  0  3.439901  0  0  -0.24888  0  3.673262  0  0  -0.26535  0  3.68758  0  0  -0.363054  -0.237944  0  3.663643  0
N  N47  1  0.34675017  0.73694412  0.49273649  1  0  -0.312965  0  3.439916  0  0  -0.249251  0  3.673453  0  0  -0.265727  0  3.687766  0  0  -0.363183  -0.238308  0  3.663839  0
N  N48  1  0.21153772  0.51407150  0.15060792  1  0  -0.413242  0  3.375879  0  0  -0.329999  0  3.687989  0  0  -0.351259  0  3.700337  0  0  -0.374579  -0.315594  0  3.679348  0
N  N49  1  0.78845630  0.48591583  0.84939437  1  0  -0.413253  0  3.376055  0  0  -0.330046  0  3.688181  0  0  -0.351306  0  3.700523  0  0  -0.374552  -0.315644  0  3.679543  0
N  N50  1  0.03590871  0.67518720  0.09717342  1  0  -0.326684  0  3.40217  0  0  -0.257152  0  3.627696  0  0  -0.274197  0  3.643031  0  0  -0.371704  -0.245741  0  3.617301  0
N  N51  1  0.96409046  0.32480963  0.90282606  1  0  -0.326398  0  3.402028  0  0  -0.256991  0  3.62766  0  0  -0.274043  0  3.642995  0  0  -0.371605  -0.245577  0  3.617259  0
Cl  Cl52  1  0.60523434  0.43802421  0.26783551  1  0  -0.574274  0  0.922689  0  0  -0.510381  0  1.197921  0  0  -0.526094  0  1.173398  0  0  -0.288218  -0.499019  0  1.214858  0
Cl  Cl53  1  0.39476830  0.56196078  0.73216759  1  0  -0.574285  0  0.922692  0  0  -0.510389  0  1.197896  0  0  -0.526103  0  1.173376  0  0  -0.288247  -0.499025  0  1.214839  0
O  O54  1  0.19776467  0.29176287  0.39143214  1  0  -0.666683  0  2.070836  0  0  -0.590735  0  2.346537  0  0  -0.62014  0  2.332664  0  0  -0.338704  -0.570138  0  2.355349  0
O  O55  1  0.80222607  0.70824284  0.60856799  1  0  -0.666717  0  2.070795  0  0  -0.590692  0  2.346451  0  0  -0.620098  0  2.332582  0  0  -0.3387  -0.570096  0  2.355265  0
O  O56  1  0.90539566  0.16928387  0.32697897  1  0  -0.615547  0  1.905854  0  0  -0.573018  0  2.132049  0  0  -0.593591  0  2.12247  0  0  -0.32389  -0.558649  0  2.138193  0
O  O57  1  0.09460668  0.83063002  0.67302464  1  0  -0.615716  0  1.905824  0  0  -0.573093  0  2.131957  0  0  -0.593675  0  2.122392  0  0  -0.323898  -0.558718  0  2.13809  0
O  O58  1  0.26404540  0.09691511  0.12802035  1  0  -0.661553  0  2.093705  0  0  -0.579615  0  2.367268  0  0  -0.608203  0  2.350885  0  0  -0.32596  -0.559637  0  2.377933  0
O  O59  1  0.73594973  0.90308338  0.87196550  1  0  -0.661582  0  2.093405  0  0  -0.579649  0  2.366971  0  0  -0.608228  0  2.350582  0  0  -0.326018  -0.55966  0  2.377632  0
O  O60  1  0.25269208  0.18047969  0.93700280  1  0  -0.631673  0  1.940501  0  0  -0.588084  0  2.170317  0  0  -0.610081  0  2.160613  0  0  -0.326245  -0.57269  0  2.176524  0
O  O61  1  0.74732144  0.81951061  0.06297341  1  0  -0.631442  0  1.941195  0  0  -0.587891  0  2.171048  0  0  -0.609882  0  2.16135  0  0  -0.326229  -0.572494  0  2.177243  0
