# generated using pymatgen
data_CdH13C18N11
_symmetry_space_group_name_H-M   'P 1'
_cell_length_a   6.54968260
_cell_length_b   11.95002832
_cell_length_c   11.94987489
_cell_angle_alpha   100.51549853
_cell_angle_beta   91.34586375
_cell_angle_gamma   91.34571688
_symmetry_Int_Tables_number   1
_chemical_formula_structural   CdH13C18N11
_chemical_formula_sum   'Cd2 H26 C36 N22'
_cell_volume   918.97488636
_cell_formula_units_Z   2
loop_
 _symmetry_equiv_pos_site_id
 _symmetry_equiv_pos_as_xyz
  1  'x, y, z'
loop_
 _atom_site_type_symbol
 _atom_site_label
 _atom_site_symmetry_multiplicity
 _atom_site_fract_x
 _atom_site_fract_y
 _atom_site_fract_z
 _atom_site_occupancy
 _atom_site_hle17_bader_spin_density
 _atom_site_hle17_ddec_charge
 _atom_site_hle17_ddec_spin_density
 _atom_site_hle17_ddec_sum_bond_order
 _atom_site_hle17_magmom
 _atom_site_hse06_10hf_bader_spin_density
 _atom_site_hse06_10hf_ddec_charge
 _atom_site_hse06_10hf_ddec_spin_density
 _atom_site_hse06_10hf_ddec_sum_bond_order
 _atom_site_hse06_10hf_magmom
 _atom_site_hse06_bader_spin_density
 _atom_site_hse06_ddec_charge
 _atom_site_hse06_ddec_spin_density
 _atom_site_hse06_ddec_sum_bond_order
 _atom_site_hse06_magmom
 _atom_site_pbe_bader_spin_density
 _atom_site_pbe_cm5_charge
 _atom_site_pbe_ddec_charge
 _atom_site_pbe_ddec_spin_density
 _atom_site_pbe_ddec_sum_bond_order
 _atom_site_pbe_magmom
Cd  Cd0  1  0.28969637  0.03319692  0.14018274  1  0  1.041398  0  1.824884  0  0  0.847927  0  2.290621  0  0  0.895518  0  2.252162  0  0  0.788095  0.814635  0  2.316512  0
Cd  Cd1  1  0.78969030  0.14018452  0.03319638  1  0  1.041447  0  1.824933  0  0  0.847944  0  2.290714  0  0  0.895551  0  2.252224  0  0  0.788109  0.814652  0  2.316608  0
H  H2  1  0.04976400  0.69502974  0.31935894  1  0  0.061624  0  0.968619  0  0  0.066405  0  1.041225  0  0  0.068754  0  1.039509  0  0  0.106577  0.06471  0  1.042499  0
H  H3  1  0.54976279  0.31935778  0.69502441  1  0  0.061642  0  0.968587  0  0  0.066427  0  1.04119  0  0  0.068776  0  1.039476  0  0  0.106604  0.064732  0  1.042469  0
H  H4  1  0.05897975  0.57965045  0.47405256  1  0  0.093179  0  0.963314  0  0  0.104398  0  1.024804  0  0  0.106922  0  1.024752  0  0  0.10248  0.102594  0  1.02495  0
H  H5  1  0.55898804  0.47404678  0.57964602  1  0  0.093277  0  0.963326  0  0  0.104523  0  1.024776  0  0  0.107029  0  1.024742  0  0  0.102484  0.102718  0  1.024927  0
H  H6  1  0.87934519  0.38637638  0.43837517  1  0  0.092245  0  0.950447  0  0  0.102181  0  1.01235  0  0  0.10457  0  1.011507  0  0  0.104741  0.100464  0  1.012989  0
H  H7  1  0.37935269  0.43837991  0.38636832  1  0  0.092286  0  0.950283  0  0  0.102227  0  1.012193  0  0  0.104619  0  1.011347  0  0  0.104749  0.100516  0  1.012811  0
H  H8  1  0.69480482  0.32175738  0.25023404  1  0  0.103228  0  0.99559  0  0  0.107785  0  1.067449  0  0  0.110503  0  1.067542  0  0  0.105413  0.10584  0  1.067537  0
H  H9  1  0.19480125  0.25023783  0.32175476  1  0  0.103178  0  0.995555  0  0  0.107729  0  1.067444  0  0  0.110446  0  1.067536  0  0  0.105374  0.105789  0  1.067519  0
H  H10  1  0.80925118  0.69188905  0.02543062  1  0  0.129536  0  0.942022  0  0  0.135133  0  1.006971  0  0  0.138824  0  1.004724  0  0  0.116867  0.132417  0  1.008832  0
H  H11  1  0.30924202  0.02543614  0.69188902  1  0  0.129555  0  0.942061  0  0  0.135161  0  1.007051  0  0  0.138881  0  1.004758  0  0  0.116875  0.13244  0  1.008922  0
H  H12  1  0.69283357  0.89127126  0.08750763  1  0  0.077327  0  0.993397  0  0  0.078735  0  1.069546  0  0  0.081181  0  1.068302  0  0  0.112691  0.076916  0  1.070567  0
H  H13  1  0.19282213  0.08751358  0.89127511  1  0  0.077128  0  0.993381  0  0  0.078585  0  1.069517  0  0  0.081031  0  1.068277  0  0  0.112657  0.076769  0  1.070534  0
H  H14  1  0.11263299  0.77865361  0.15404438  1  0  0.083751  0  0.958666  0  0  0.085584  0  1.035486  0  0  0.088654  0  1.032176  0  0  0.116257  0.083216  0  1.038132  0
H  H15  1  0.61262364  0.15403532  0.77865050  1  0  0.083778  0  0.95864  0  0  0.08559  0  1.035493  0  0  0.088657  0  1.032186  0  0  0.116231  0.083236  0  1.038127  0
H  H16  1  0.20769462  0.57355525  0.09906772  1  0  0.129604  0  0.974365  0  0  0.13154  0  1.045832  0  0  0.135406  0  1.043753  0  0  0.111638  0.128774  0  1.047422  0
H  H17  1  0.70767727  0.09906017  0.57354865  1  0  0.129619  0  0.974283  0  0  0.131591  0  1.045729  0  0  0.135456  0  1.043647  0  0  0.111703  0.128825  0  1.04732  0
H  H18  1  0.14478661  0.31105360  0.84439378  1  0  0.098519  0  0.966875  0  0  0.106436  0  1.032217  0  0  0.108995  0  1.031798  0  0  0.101501  0.104635  0  1.032539  0
H  H19  1  0.64476126  0.84439491  0.31105714  1  0  0.098532  0  0.966821  0  0  0.106461  0  1.032182  0  0  0.10901  0  1.031775  0  0  0.101536  0.104665  0  1.032481  0
H  H20  1  0.88196788  0.36044874  0.70942507  1  0  0.081923  0  0.972962  0  0  0.092643  0  1.035779  0  0  0.094849  0  1.035766  0  0  0.095155  0.091071  0  1.035882  0
H  H21  1  0.38195612  0.70942030  0.36047361  1  0  0.081892  0  0.972926  0  0  0.092687  0  1.035695  0  0  0.094896  0  1.035676  0  0  0.095163  0.091115  0  1.035798  0
H  H22  1  0.90817434  0.54703580  0.64424227  1  0  0.076241  0  0.978334  0  0  0.087081  0  1.043602  0  0  0.089366  0  1.042975  0  0  0.095539  0.085432  0  1.044124  0
H  H23  1  0.40820940  0.64424119  0.54706883  1  0  0.076121  0  0.97823  0  0  0.086985  0  1.043534  0  0  0.089271  0  1.042909  0  0  0.095544  0.085332  0  1.044061  0
H  H24  1  0.20181812  0.68132161  0.71243288  1  0  0.097849  0  0.950991  0  0  0.107376  0  1.013139  0  0  0.110163  0  1.011491  0  0  0.104446  0.105361  0  1.014436  0
H  H25  1  0.70188903  0.71243410  0.68133059  1  0  0.097749  0  0.951062  0  0  0.1073  0  1.013205  0  0  0.110093  0  1.011543  0  0  0.104422  0.105283  0  1.014504  0
H  H26  1  0.46906491  0.62873795  0.83839497  1  0  0.097669  0  0.956614  0  0  0.108064  0  1.01822  0  0  0.110625  0  1.017653  0  0  0.10288  0.106216  0  1.018671  0
H  H27  1  0.96911721  0.83839336  0.62872696  1  0  0.097818  0  0.956496  0  0  0.108327  0  1.017955  0  0  0.110877  0  1.017402  0  0  0.103023  0.106476  0  1.018406  0
C  C28  1  0.78879877  0.47208635  0.18683722  1  0  0.148603  0  3.815462  0  0  0.152531  0  4.065327  0  0  0.156388  0  4.083598  0  0  0.118633  0.149888  0  4.053006  0
C  C29  1  0.28879454  0.18684164  0.47208236  1  0  0.148553  0  3.815657  0  0  0.152601  0  4.065383  0  0  0.156437  0  4.083649  0  0  0.118628  0.149969  0  4.053064  0
C  C30  1  0.97622575  0.61059831  0.30664832  1  0  0.124305  0  3.744944  0  0  0.100817  0  4.00353  0  0  0.105742  0  4.021286  0  0  0.045077  0.097632  0  3.991421  0
C  C31  1  0.47622668  0.30664187  0.61059119  1  0  0.124319  0  3.745234  0  0  0.100831  0  4.003799  0  0  0.105757  0  4.021549  0  0  0.045021  0.097643  0  3.991694  0
C  C32  1  0.98073860  0.54621602  0.39304301  1  0  -0.122036  0  3.741638  0  0  -0.135808  0  3.98993  0  0  -0.141397  0  4.012038  0  0  -0.085177  -0.132175  0  3.975022  0
C  C33  1  0.48075075  0.39303895  0.54621503  1  0  -0.12221  0  3.741744  0  0  -0.136016  0  3.990051  0  0  -0.141591  0  4.012166  0  0  -0.085142  -0.132385  0  3.975146  0
C  C34  1  0.88140704  0.43975797  0.37352049  1  0  -0.010337  0  3.734542  0  0  -0.0264  0  3.983032  0  0  -0.024875  0  4.003122  0  0  -0.069768  -0.027156  0  3.969269  0
C  C35  1  0.38140699  0.37352233  0.43975943  1  0  -0.010393  0  3.734366  0  0  -0.026477  0  3.982885  0  0  -0.024952  0  4.002969  0  0  -0.069814  -0.027231  0  3.969126  0
C  C36  1  0.78109052  0.40213874  0.26883309  1  0  -0.128979  0  3.699499  0  0  -0.15126  0  3.946891  0  0  -0.156584  0  3.968223  0  0  -0.08245  -0.14782  0  3.932643  0
C  C37  1  0.28108703  0.26883263  0.40213866  1  0  -0.128766  0  3.699658  0  0  -0.151064  0  3.947004  0  0  -0.156388  0  3.968341  0  0  -0.082312  -0.147623  0  3.932755  0
C  C38  1  0.68329036  0.43446078  0.07631393  1  0  0.270083  0  3.697977  0  0  0.229489  0  3.96992  0  0  0.244349  0  3.981509  0  0  0.238877  0.219624  0  3.961955  0
C  C39  1  0.18327735  0.07631768  0.43445383  1  0  0.270236  0  3.697982  0  0  0.229501  0  3.970019  0  0  0.244428  0  3.981524  0  0  0.238966  0.219599  0  3.962098  0
C  C40  1  0.47527467  0.43107179  0.92833464  1  0  0.270437  0  3.73623  0  0  0.236467  0  4.011993  0  0  0.250023  0  4.024992  0  0  0.231046  0.227509  0  4.003061  0
C  C41  1  0.97527883  0.92833579  0.43106873  1  0  0.270349  0  3.736242  0  0  0.236333  0  4.012016  0  0  0.249884  0  4.025032  0  0  0.231023  0.227374  0  4.003078  0
C  C42  1  0.51584215  0.61905372  0.05854732  1  0  0.238956  0  3.74603  0  0  0.227887  0  3.993145  0  0  0.236312  0  4.013343  0  0  0.115358  0.222284  0  3.979566  0
C  C43  1  0.01582011  0.05854416  0.61904562  1  0  0.238957  0  3.745657  0  0  0.227649  0  3.993154  0  0  0.236083  0  4.013352  0  0  0.115278  0.222053  0  3.979565  0
C  C44  1  0.65525426  0.70789314  0.05495239  1  0  -0.165355  0  3.682096  0  0  -0.188801  0  3.940373  0  0  -0.194882  0  3.957448  0  0  -0.071744  -0.185037  0  3.929344  0
C  C45  1  0.15524374  0.05495377  0.70788984  1  0  -0.165231  0  3.681925  0  0  -0.188698  0  3.940325  0  0  -0.194799  0  3.957399  0  0  -0.071658  -0.184933  0  3.929289  0
C  C46  1  0.58922373  0.81859371  0.08793780  1  0  0.138202  0  3.693528  0  0  0.10854  0  3.946023  0  0  0.11475  0  3.964233  0  0  0.045445  0.104421  0  3.933862  0
C  C47  1  0.08921080  0.08794312  0.81859111  1  0  0.138377  0  3.693593  0  0  0.108651  0  3.946084  0  0  0.114865  0  3.964305  0  0  0.045412  0.10453  0  3.933925  0
C  C48  1  0.26487357  0.75532718  0.12475496  1  0  0.141093  0  3.694745  0  0  0.110224  0  3.948924  0  0  0.116912  0  3.96677  0  0  0.048152  0.105804  0  3.937015  0
C  C49  1  0.76485959  0.12474687  0.75532238  1  0  0.14116  0  3.694497  0  0  0.11029  0  3.94863  0  0  0.116978  0  3.966477  0  0  0.048197  0.105858  0  3.936718  0
C  C50  1  0.31780058  0.64196895  0.09446301  1  0  -0.183506  0  3.679987  0  0  -0.202206  0  3.930689  0  0  -0.209832  0  3.95063  0  0  -0.077712  -0.19733  0  3.917513  0
C  C51  1  0.81778627  0.09445674  0.64196639  1  0  -0.183453  0  3.680018  0  0  -0.202138  0  3.930808  0  0  -0.209765  0  3.950744  0  0  -0.077726  -0.197256  0  3.917614  0
C  C52  1  0.32453602  0.46535235  0.84978127  1  0  -0.017247  0  3.820915  0  0  0.004379  0  4.054078  0  0  0.001046  0  4.077186  0  0  -0.011194  0.006525  0  4.038397  0
C  C53  1  0.82455045  0.84978252  0.46535575  1  0  -0.017161  0  3.820893  0  0  0.004445  0  4.054134  0  0  0.001113  0  4.077234  0  0  -0.011213  0.006593  0  4.038451  0
C  C54  1  0.15724303  0.39083888  0.81313115  1  0  -0.077473  0  3.710684  0  0  -0.101722  0  3.956975  0  0  -0.102513  0  3.977125  0  0  -0.085325  -0.100975  0  3.943156  0
C  C55  1  0.65726049  0.81312960  0.39084842  1  0  -0.077354  0  3.710591  0  0  -0.101607  0  3.956864  0  0  -0.102392  0  3.977022  0  0  -0.085259  -0.100856  0  3.943044  0
C  C56  1  0.00971975  0.41951061  0.73822939  1  0  -0.06513  0  3.765349  0  0  -0.075571  0  4.008681  0  0  -0.078091  0  4.03055  0  0  -0.093948  -0.073816  0  3.993712  0
C  C57  1  0.50971666  0.73823412  0.41953108  1  0  -0.065274  0  3.765256  0  0  -0.075814  0  4.008645  0  0  -0.07833  0  4.030506  0  0  -0.094036  -0.074061  0  3.993677  0
C  C58  1  0.02574055  0.52349037  0.70098417  1  0  -0.067616  0  3.762896  0  0  -0.081511  0  4.006465  0  0  -0.082971  0  4.028146  0  0  -0.090232  -0.080321  0  3.991588  0
C  C59  1  0.52576594  0.70098663  0.52350632  1  0  -0.067368  0  3.762278  0  0  -0.081283  0  4.005852  0  0  -0.082741  0  4.02753  0  0  -0.090112  -0.080102  0  3.991003  0
C  C60  1  0.19076291  0.59839707  0.73783378  1  0  -0.06232  0  3.771585  0  0  -0.074328  0  4.022257  0  0  -0.07687  0  4.04393  0  0  -0.087011  -0.072655  0  4.007519  0
C  C61  1  0.69081686  0.73783348  0.59840848  1  0  -0.062066  0  3.77123  0  0  -0.074127  0  4.021984  0  0  -0.076668  0  4.043649  0  0  -0.087019  -0.072456  0  4.007246  0
C  C62  1  0.34094217  0.56939009  0.81116814  1  0  -0.092687  0  3.720513  0  0  -0.115265  0  3.96338  0  0  -0.116967  0  3.985119  0  0  -0.084659  -0.113845  0  3.948514  0
C  C63  1  0.84097859  0.81116549  0.56939463  1  0  -0.093122  0  3.720764  0  0  -0.115774  0  3.963646  0  0  -0.117483  0  3.98541  0  0  -0.08487  -0.114355  0  3.948784  0
N  N64  1  0.88419812  0.57508236  0.20486796  1  0  -0.330715  0  3.087112  0  0  -0.29732  0  3.349607  0  0  -0.307957  0  3.365605  0  0  -0.311783  -0.289816  0  3.338594  0
N  N65  1  0.38418724  0.20487359  0.57507913  1  0  -0.330778  0  3.087433  0  0  -0.297396  0  3.349875  0  0  -0.308039  0  3.365885  0  0  -0.311835  -0.289892  0  3.338858  0
N  N66  1  0.66551914  0.32808447  0.01879938  1  0  -0.292073  0  3.111841  0  0  -0.23769  0  3.407215  0  0  -0.253176  0  3.422449  0  0  -0.224911  -0.226979  0  3.396544  0
N  N67  1  0.16551923  0.01880599  0.32808246  1  0  -0.292275  0  3.112168  0  0  -0.237876  0  3.407598  0  0  -0.253377  0  3.422808  0  0  -0.225036  -0.227157  0  3.39694  0
N  N68  1  0.53704381  0.32579114  0.92606368  1  0  -0.257516  0  2.927009  0  0  -0.243695  0  3.216562  0  0  -0.252384  0  3.230791  0  0  -0.218022  -0.237668  0  3.206738  0
N  N69  1  0.03704902  0.92607261  0.32578980  1  0  -0.25735  0  2.927112  0  0  -0.243495  0  3.216639  0  0  -0.252184  0  3.230875  0  0  -0.217977  -0.237468  0  3.206807  0
N  N70  1  0.56884271  0.50305184  0.01986558  1  0  -0.194815  0  3.470154  0  0  -0.111294  0  3.684397  0  0  -0.128355  0  3.70358  0  0  -0.20465  -0.099947  0  3.671251  0
N  N71  1  0.06883171  0.01986487  0.50304587  1  0  -0.19497  0  3.470215  0  0  -0.111286  0  3.68449  0  0  -0.128369  0  3.703665  0  0  -0.204666  -0.099931  0  3.67135  0
N  N72  1  0.39783796  0.84208263  0.12147910  1  0  -0.329641  0  3.239351  0  0  -0.254039  0  3.500949  0  0  -0.272349  0  3.519648  0  0  -0.326861  -0.241545  0  3.488032  0
N  N73  1  0.89783177  0.12147937  0.84208900  1  0  -0.329824  0  3.239158  0  0  -0.254104  0  3.500637  0  0  -0.272416  0  3.519333  0  0  -0.326851  -0.241612  0  3.487733  0
N  N74  1  0.60659556  0.12289679  0.20049477  1  0  -0.624353  0  2.755676  0  0  -0.570618  0  3.063654  0  0  -0.597745  0  3.069791  0  0  -0.330173  -0.551917  0  3.059136  0
N  N75  1  0.10659713  0.20050078  0.12289112  1  0  -0.624058  0  2.756493  0  0  -0.570306  0  3.064419  0  0  -0.597418  0  3.070558  0  0  -0.32995  -0.551604  0  3.05988  0
N  N76  1  0.68231063  0.13648184  0.29533970  1  0  0.403909  0  4.223077  0  0  0.436797  0  4.502574  0  0  0.452972  0  4.531761  0  0  0.082043  0.425899  0  4.482828  0
N  N77  1  0.18230116  0.29532916  0.13647631  1  0  0.403889  0  4.223097  0  0  0.436804  0  4.502552  0  0  0.452978  0  4.531746  0  0  0.082044  0.425907  0  4.482805  0
N  N78  1  0.75512465  0.15275809  0.38690885  1  0  -0.364567  0  2.421976  0  0  -0.365261  0  2.655731  0  0  -0.371756  0  2.667929  0  0  -0.182212  -0.360726  0  2.647672  0
N  N79  1  0.25512495  0.38691495  0.15275568  1  0  -0.364903  0  2.421126  0  0  -0.365643  0  2.654912  0  0  -0.372155  0  2.667119  0  0  -0.18249  -0.361096  0  2.646848  0
N  N80  1  0.99003748  0.96629267  0.03583488  1  0  -0.630583  0  2.720321  0  0  -0.580355  0  3.021489  0  0  -0.607386  0  3.029279  0  0  -0.332371  -0.561541  0  3.015792  0
N  N81  1  0.49003724  0.03583451  0.96629007  1  0  -0.630693  0  2.720378  0  0  -0.580506  0  3.021594  0  0  -0.607545  0  3.029388  0  0  -0.332438  -0.561688  0  3.015898  0
N  N82  1  0.98674648  0.88870257  0.95480280  1  0  0.393559  0  4.232224  0  0  0.424884  0  4.514039  0  0  0.44025  0  4.545339  0  0  0.073302  0.414555  0  4.492673  0
N  N83  1  0.48674289  0.95480008  0.88869493  1  0  0.393692  0  4.232354  0  0  0.425034  0  4.51416  0  0  0.440398  0  4.545462  0  0  0.07339  0.414703  0  4.492798  0
N  N84  1  0.97835296  0.81319934  0.87768024  1  0  -0.376285  0  2.375032  0  0  -0.380106  0  2.602734  0  0  -0.38694  0  2.614958  0  0  -0.192014  -0.375105  0  2.594486  0
N  N85  1  0.47835040  0.87768354  0.81319479  1  0  -0.376308  0  2.375178  0  0  -0.380117  0  2.60286  0  0  -0.386947  0  2.615087  0  0  -0.192021  -0.375117  0  2.594613  0
