# generated using pymatgen
data_NiH13C11(NO2)3
_symmetry_space_group_name_H-M   'P 1'
_cell_length_a   7.85282292
_cell_length_b   12.51380866
_cell_length_c   14.24170000
_cell_angle_alpha   90.00000000
_cell_angle_beta   90.00000000
_cell_angle_gamma   95.72834206
_symmetry_Int_Tables_number   1
_chemical_formula_structural   NiH13C11(NO2)3
_chemical_formula_sum   'Ni4 H52 C44 N12 O24'
_cell_volume   1392.52495296
_cell_formula_units_Z   4
loop_
 _symmetry_equiv_pos_site_id
 _symmetry_equiv_pos_as_xyz
  1  'x, y, z'
loop_
 _atom_site_type_symbol
 _atom_site_label
 _atom_site_symmetry_multiplicity
 _atom_site_fract_x
 _atom_site_fract_y
 _atom_site_fract_z
 _atom_site_occupancy
 _atom_site_hle17_ddec_charge
 _atom_site_hle17_ddec_spin_density
 _atom_site_hle17_ddec_sum_bond_order
 _atom_site_hle17_magmom
 _atom_site_hse06_10hf_ddec_charge
 _atom_site_hse06_10hf_ddec_spin_density
 _atom_site_hse06_10hf_ddec_sum_bond_order
 _atom_site_hse06_10hf_magmom
 _atom_site_hse06_ddec_charge
 _atom_site_hse06_ddec_spin_density
 _atom_site_hse06_ddec_sum_bond_order
 _atom_site_hse06_magmom
 _atom_site_pbe_cm5_charge
 _atom_site_pbe_ddec_charge
 _atom_site_pbe_ddec_spin_density
 _atom_site_pbe_ddec_sum_bond_order
 _atom_site_pbe_magmom
Ni  Ni0  1  0.18605438  0.75981671  0.68594550  1  0.876428  1.764021  1.908276  1.502  0.889677  1.821825  2.294746  1.633  0.983372  1.876518  2.218414  1.721  0.61476  0.818904  1.771766  2.352297  1.556
Ni  Ni1  1  0.31394947  0.74018345  0.18594760  1  0.876439  1.764007  1.908237  1.502  0.889695  1.821817  2.294693  1.633  0.983399  1.876519  2.218347  1.721  0.614757  0.81893  1.77176  2.352229  1.556
Ni  Ni2  1  0.81394612  0.24018259  0.31405169  1  0.876411  1.764019  1.90836  1.502  0.889686  1.821813  2.294791  1.633  0.983401  1.87651  2.218422  1.721  0.614765  0.818911  1.771759  2.352361  1.556
Ni  Ni3  1  0.68605001  0.25981746  0.81405380  1  0.876431  1.764023  1.908329  1.502  0.889685  1.821821  2.294784  1.633  0.983376  1.87651  2.218439  1.721  0.614745  0.81889  1.771761  2.35235  1.556
H  H4  1  0.48992226  0.52178409  0.68204147  1  0.118661  -0.001035  0.925485  -0.001  0.129012  -6.3e-05  0.982986  0.0  0.133004  -7.8e-05  0.979938  0.0  0.111066  0.126054  -4.6e-05  0.985413  0.0
H  H5  1  0.01006147  0.97820964  0.18203655  1  0.118705  -0.00103  0.925483  -0.001  0.129004  -6.3e-05  0.98304  0.0  0.133004  -7.8e-05  0.979982  0.0  0.111064  0.126047  -4.7e-05  0.985466  0.0
H  H6  1  0.51007951  0.47822324  0.31795853  1  0.118709  -0.001026  0.925499  -0.001  0.129055  -6.3e-05  0.982995  0.0  0.133049  -7.8e-05  0.979943  0.0  0.111086  0.126098  -4.3e-05  0.985422  0.0
H  H7  1  0.98992655  0.02178323  0.81795853  1  0.118677  -0.001026  0.925536  -0.001  0.129013  -6.3e-05  0.983067  0.0  0.133014  -7.8e-05  0.980007  0.0  0.111084  0.126054  -4.9e-05  0.985492  0.0
H  H8  1  0.23783517  0.28221750  0.49900574  1  0.100514  -0.000761  0.960311  -0.001  0.106397  0.000208  1.030801  0.0  0.110859  0.000116  1.026701  0.0  0.100537  0.103145  0.000309  1.03387  0.0
H  H9  1  0.26216056  0.21777774  0.99900714  1  0.100464  -0.000764  0.960271  -0.001  0.106376  0.000208  1.030746  0.0  0.110822  0.000116  1.026664  0.0  0.100535  0.103124  0.000307  1.033815  0.0
H  H10  1  0.76216826  0.71778421  0.50099637  1  0.100567  -0.000762  0.960253  -0.001  0.106426  0.000208  1.030764  0.0  0.110904  0.000116  1.026644  0.0  0.100559  0.103174  0.00031  1.033838  0.0
H  H11  1  0.73783663  0.78221675  0.00099286  1  0.10051  -0.000758  0.960255  -0.001  0.106398  0.000208  1.030732  0.0  0.110862  0.000116  1.02663  0.0  0.100551  0.103148  0.00031  1.033803  0.0
H  H12  1  0.18100217  0.61553320  0.45151702  1  0.104459  -0.001098  0.948916  -0.001  0.113043  -8.7e-05  1.015335  0.0  0.116556  -9e-05  1.012949  0.0  0.106624  0.110428  -8.2e-05  1.017303  0.0
H  H13  1  0.31900372  0.88446375  0.95152053  1  0.104425  -0.001095  0.948932  -0.001  0.113004  -8.7e-05  1.015382  0.0  0.116517  -9e-05  1.012996  0.0  0.106622  0.110391  -8.3e-05  1.017349  0.0
H  H14  1  0.81900227  0.38446691  0.54847806  1  0.104531  -0.001077  0.948865  -0.001  0.113104  -8.7e-05  1.015292  0.0  0.116617  -8.9e-05  1.012906  0.0  0.106657  0.110494  -8e-05  1.017258  0.0
H  H15  1  0.68100187  0.11553555  0.04847947  1  0.104477  -0.001086  0.948943  -0.001  0.113066  -8.7e-05  1.015362  0.0  0.11658  -9e-05  1.012976  0.0  0.106637  0.110449  -8.7e-05  1.017328  0.0
H  H16  1  0.33635869  0.00981984  0.68791085  1  0.095086  9.1e-05  0.973628  0.001  0.103065  8.3e-05  1.036773  0.0  0.106018  4e-05  1.033252  0.0  0.132699  0.100651  0.000123  1.039695  0.001
H  H17  1  0.16364047  0.49018101  0.18791156  1  0.095084  9.4e-05  0.973642  0.001  0.103058  8.3e-05  1.036795  0.0  0.106013  4e-05  1.033273  0.0  0.132691  0.100643  0.000124  1.039718  0.001
H  H18  1  0.66364372  0.99018347  0.31209266  1  0.095154  9.2e-05  0.973662  0.001  0.103143  8.3e-05  1.036791  0.0  0.106069  4e-05  1.033305  0.0  0.132752  0.100728  0.000123  1.039714  0.001
H  H19  1  0.83636206  0.50981508  0.81209687  1  0.095132  0.000104  0.973688  0.001  0.103104  8.3e-05  1.036845  0.0  0.106037  4e-05  1.033347  0.0  0.132726  0.100689  0.000123  1.039768  0.001
H  H20  1  0.20068918  0.02531298  0.40032580  1  0.124106  0.000467  0.931605  0.0  0.138524  0.000512  0.979458  0.0  0.141817  0.000362  0.977073  0.0  0.128015  0.135864  0.00066  0.981643  0.0
H  H21  1  0.29931164  0.47469028  0.90032651  1  0.124146  0.000469  0.931642  0.0  0.138567  0.000512  0.97949  0.0  0.141859  0.000362  0.977105  0.0  0.128057  0.135908  0.000661  0.981673  0.0
H  H22  1  0.79931692  0.97468953  0.59967630  1  0.124133  0.000467  0.931668  0.0  0.138556  0.000512  0.979505  0.0  0.141845  0.000362  0.977125  0.0  0.12804  0.135897  0.000661  0.981691  0.0
H  H23  1  0.70067459  0.52530741  0.09967841  1  0.124154  0.000467  0.93174  0.0  0.138572  0.000512  0.97957  0.0  0.141862  0.000362  0.977187  0.0  0.128047  0.135912  0.000661  0.981757  0.0
H  H24  1  0.08724829  0.82353285  0.47267672  1  0.096225  0.000125  0.957097  0.001  0.10645  0.000233  1.018093  0.001  0.109126  0.000153  1.015958  0.0  0.113668  0.104276  0.000318  1.0201  0.001
H  H25  1  0.41275850  0.67646971  0.97267953  1  0.096226  0.000128  0.957105  0.001  0.106411  0.000233  1.018151  0.001  0.109083  0.000153  1.016023  0.0  0.113667  0.10426  0.000318  1.02013  0.001
H  H26  1  0.91274470  0.17646725  0.52732539  1  0.096188  0.000125  0.95717  0.001  0.106395  0.000232  1.018176  0.001  0.109067  0.000153  1.016045  0.0  0.113647  0.104249  0.000318  1.020148  0.001
H  H27  1  0.58722736  0.32353360  0.02732188  1  0.096163  0.000126  0.957277  0.001  0.106379  0.000232  1.018283  0.001  0.109054  0.000153  1.016147  0.0  0.113608  0.104197  0.000318  1.020298  0.001
H  H28  1  0.39174421  0.73923736  0.53776164  1  0.313674  -0.001886  0.899894  -0.002  0.299953  -0.000714  0.965552  -0.001  0.306903  -0.00073  0.961138  -0.001  0.298424  0.295034  -0.000662  0.968551  -0.001
H  H29  1  0.10825760  0.76075798  0.03776375  1  0.313741  -0.001886  0.8998  -0.002  0.300022  -0.000714  0.965468  -0.001  0.306971  -0.000731  0.961045  -0.001  0.298449  0.295102  -0.000662  0.968468  -0.001
H  H30  1  0.60826074  0.26076595  0.46223485  1  0.313643  -0.001887  0.899866  -0.002  0.299926  -0.000714  0.965529  -0.001  0.306876  -0.00073  0.961121  -0.001  0.298406  0.295006  -0.00066  0.968526  -0.001
H  H31  1  0.89174124  0.23923892  0.96223485  1  0.313609  -0.001884  0.899917  -0.002  0.299881  -0.000714  0.965588  -0.001  0.306831  -0.000731  0.961181  -0.001  0.298406  0.294961  -0.000661  0.968587  -0.001
H  H32  1  0.47897795  0.70357046  0.63787329  1  0.315546  -0.002169  0.863548  -0.002  0.312988  -0.000823  0.908324  -0.001  0.318437  -0.000847  0.905741  -0.001  0.311865  0.309032  -0.000745  0.910196  -0.001
H  H33  1  0.02102247  0.79642408  0.13787329  1  0.315538  -0.002168  0.863573  -0.002  0.31296  -0.000823  0.908375  -0.001  0.318407  -0.000846  0.905797  -0.001  0.311848  0.309002  -0.000746  0.910247  -0.001
H  H34  1  0.52102459  0.29643366  0.36212461  1  0.31556  -0.00217  0.863515  -0.002  0.313021  -0.000823  0.908271  -0.001  0.318466  -0.000846  0.90569  -0.001  0.311899  0.309063  -0.000745  0.910142  -0.001
H  H35  1  0.97897612  0.20357121  0.86212250  1  0.315589  -0.002172  0.863485  -0.002  0.313037  -0.000823  0.908246  -0.001  0.318483  -0.000847  0.905665  -0.001  0.311895  0.30908  -0.000746  0.910117  -0.001
H  H36  1  0.35403615  0.12530801  0.54434794  1  0.305213  0.00033  0.926527  0.001  0.286944  0.000276  0.986089  0.0  0.29548  0.000213  0.979143  0.0  0.310545  0.280795  0.000337  0.991254  0.001
H  H37  1  0.14596315  0.37469365  0.04434864  1  0.305251  0.000331  0.926586  0.001  0.286943  0.000276  0.986154  0.0  0.295486  0.000213  0.979209  0.0  0.310524  0.280793  0.000337  0.99132  0.001
H  H38  1  0.64596741  0.87469450  0.45565417  1  0.305212  0.000331  0.926585  0.001  0.286835  0.000276  0.986269  0.0  0.29538  0.000213  0.979323  0.0  0.310485  0.280687  0.000337  0.991436  0.001
H  H39  1  0.85403251  0.62529923  0.95565909  1  0.305224  0.000333  0.926625  0.001  0.286904  0.000276  0.986218  0.0  0.295455  0.000213  0.979267  0.0  0.310551  0.28076  0.000337  0.991385  0.001
H  H40  1  0.11030011  0.57554145  0.74362962  1  0.408091  -0.001071  0.900794  -0.001  0.377132  -0.000398  0.969092  0.0  0.389309  -0.000499  0.951757  0.0  0.283516  0.368513  -0.000262  0.981293  0.0
H  H41  1  0.38970375  0.92445871  0.24362892  1  0.408082  -0.001075  0.900847  -0.001  0.37713  -0.000398  0.969102  0.0  0.38931  -0.000499  0.951763  0.0  0.283495  0.368511  -0.000262  0.981304  0.0
H  H42  1  0.88970001  0.42445544  0.25636757  1  0.408042  -0.001071  0.900881  -0.001  0.377056  -0.000398  0.96921  0.0  0.389234  -0.000499  0.951873  0.0  0.283459  0.368437  -0.000262  0.981409  0.0
H  H43  1  0.61030363  0.07554381  0.75636687  1  0.408071  -0.001072  0.900848  -0.001  0.37709  -0.000398  0.96916  0.0  0.389267  -0.000499  0.951824  0.0  0.283488  0.36847  -0.000261  0.981361  0.0
H  H44  1  0.11725536  0.65546632  0.83150326  1  0.398103  -0.000968  0.919182  -0.001  0.363578  -0.000308  0.994062  0.0  0.37555  -0.000411  0.977181  0.0  0.278202  0.355125  -0.000177  1.005916  0.0
H  H45  1  0.38274111  0.84453545  0.33150396  1  0.398079  -0.000967  0.919222  -0.001  0.363532  -0.000308  0.99413  0.0  0.375506  -0.000411  0.977247  0.0  0.278169  0.35508  -0.000177  1.005983  0.0
H  H46  1  0.88274310  0.34452817  0.16849463  1  0.398137  -0.000967  0.91918  -0.001  0.36364  -0.000308  0.993973  0.0  0.375613  -0.000411  0.977092  0.0  0.278213  0.355188  -0.000177  1.005826  0.0
H  H47  1  0.61725914  0.15547028  0.66849393  1  0.398171  -0.000967  0.919105  -0.001  0.36366  -0.000308  0.993941  0.0  0.375631  -0.000411  0.97706  0.0  0.278216  0.355208  -0.000177  1.005794  0.0
H  H48  1  0.42610910  0.88821837  0.80017063  1  0.431797  -0.000107  0.869055  0.0  0.399291  0.000217  0.936284  0.0  0.411748  8.7e-05  0.918329  0.0  0.290268  0.390465  0.000352  0.948942  0.0
H  H49  1  0.07389590  0.61178098  0.30017203  1  0.431916  -0.000111  0.868907  0.0  0.39931  0.000217  0.936283  0.0  0.411767  8.7e-05  0.918327  0.0  0.290261  0.390483  0.00035  0.948941  0.0
H  H50  1  0.57389865  0.11177852  0.19982867  1  0.431938  -0.000109  0.868876  0.0  0.399329  0.000217  0.936257  0.0  0.411787  8.7e-05  0.918301  0.0  0.290266  0.390503  0.000351  0.948914  0.0
H  H51  1  0.92610167  0.38822394  0.69982797  1  0.431918  -0.000109  0.868894  0.0  0.399312  0.000217  0.936273  0.0  0.411768  8.7e-05  0.918319  0.0  0.290258  0.390486  0.000352  0.948931  0.0
H  H52  1  0.40653217  0.76188476  0.81859750  1  0.416481  -0.000845  0.835462  -0.001  0.402148  -0.000253  0.890303  0.0  0.410827  -0.000337  0.880862  0.0  0.313689  0.395817  -0.000139  0.897196  0.0
H  H53  1  0.09347270  0.73811379  0.31860031  1  0.416477  -0.000849  0.835522  -0.001  0.402143  -0.000253  0.890359  0.0  0.410824  -0.000337  0.880917  0.0  0.313699  0.395813  -0.000138  0.897254  0.0
H  H54  1  0.59347062  0.23811293  0.18140180  1  0.416513  -0.000848  0.835437  -0.001  0.402182  -0.000253  0.890269  0.0  0.410862  -0.000337  0.880829  0.0  0.313714  0.395851  -0.000138  0.897162  0.0
H  H55  1  0.90652958  0.26188873  0.68140180  1  0.416506  -0.000849  0.835346  -0.001  0.402164  -0.000253  0.890216  0.0  0.410845  -0.000337  0.880767  0.0  0.313663  0.395829  -0.000138  0.897118  0.0
C  C56  1  0.33898312  0.58150387  0.56979574  1  0.277476  -0.021369  3.788056  -0.016  0.282108  -0.006139  4.043622  -0.005  0.288712  -0.007029  4.067237  -0.005  0.0895  0.277049  -0.004521  4.027719  -0.004
C  C57  1  0.16101360  0.91849147  0.06979504  1  0.277277  -0.021371  3.788233  -0.016  0.281945  -0.006141  4.043781  -0.005  0.288546  -0.007031  4.067395  -0.005  0.089497  0.276885  -0.004522  4.027882  -0.004
C  C58  1  0.66102451  0.41850025  0.43020496  1  0.277449  -0.021357  3.787937  -0.016  0.282104  -0.006139  4.043488  -0.005  0.288705  -0.007029  4.067101  -0.005  0.089574  0.277041  -0.004517  4.027584  -0.004
C  C59  1  0.83898473  0.08150221  0.93020426  1  0.277297  -0.021359  3.788242  -0.016  0.282102  -0.00614  4.043594  -0.005  0.288704  -0.007029  4.067209  -0.005  0.089536  0.277042  -0.004521  4.027692  -0.004
C  C60  1  0.40652728  0.50149949  0.62213640  1  -0.133182  0.017233  3.652751  0.02  -0.167231  0.005606  3.900803  0.007  -0.168479  0.004494  3.918562  0.005  -0.078666  -0.166225  0.006789  3.888986  0.008
C  C61  1  0.09346307  0.99849585  0.12213430  1  -0.133194  0.017228  3.652823  0.02  -0.167196  0.005607  3.900873  0.007  -0.168459  0.004494  3.918645  0.005  -0.078703  -0.166181  0.006789  3.889037  0.008
C  C62  1  0.59347207  0.49850864  0.37786149  1  -0.133104  0.017221  3.652691  0.02  -0.167202  0.005606  3.900661  0.007  -0.168456  0.004494  3.918431  0.005  -0.078685  -0.166194  0.006783  3.888841  0.008
C  C63  1  0.90653258  0.00149703  0.87786219  1  -0.13309  0.017219  3.652701  0.02  -0.167182  0.005607  3.900755  0.007  -0.168444  0.004495  3.918523  0.005  -0.078699  -0.166167  0.006791  3.888922  0.008
C  C64  1  0.37479139  0.39386672  0.59562974  1  -0.049544  -0.011149  3.786523  -0.006  -0.025088  0.000368  4.022735  0.001  -0.031853  -0.001163  4.044237  0.0  -0.020237  -0.020653  0.001753  4.00845  0.002
C  C65  1  0.12520421  0.10612771  0.09563114  1  -0.049519  -0.011166  3.786513  -0.006  -0.02509  0.000367  4.022762  0.001  -0.031852  -0.001163  4.044256  0.0  -0.02021  -0.020654  0.001752  4.008483  0.002
C  C66  1  0.62521280  0.60613981  0.40437237  1  -0.049893  -0.011156  3.787074  -0.006  -0.025224  0.00037  4.022991  0.001  -0.031989  -0.001161  4.044494  0.0  -0.020314  -0.020791  0.001757  4.008712  0.002
C  C67  1  0.87479387  0.89386436  0.90436956  1  -0.049643  -0.011159  3.786479  -0.006  -0.025226  0.000367  4.022778  0.001  -0.03199  -0.001163  4.044277  0.0  -0.020253  -0.020789  0.00175  4.008497  0.002
C  C68  1  0.26622000  0.36564320  0.52011838  1  -0.099127  0.018594  3.731945  0.021  -0.144832  0.006979  3.996193  0.007  -0.143106  0.005329  4.013487  0.006  -0.094622  -0.146023  0.008985  3.984807  0.009
C  C69  1  0.23378095  0.13435284  0.02012049  1  -0.09916  0.018611  3.731664  0.021  -0.144863  0.00698  3.995955  0.007  -0.143125  0.00533  4.013255  0.006  -0.094606  -0.146051  0.008992  3.984571  0.009
C  C70  1  0.73378382  0.63436092  0.47988162  1  -0.099028  0.018599  3.732013  0.021  -0.144752  0.006977  3.996167  0.007  -0.143036  0.005328  4.013451  0.006  -0.094578  -0.145943  0.008985  3.984788  0.009
C  C71  1  0.76621891  0.86564245  0.97987810  1  -0.099114  0.018602  3.731576  0.021  -0.144786  0.006979  3.995835  0.007  -0.143061  0.005329  4.013125  0.006  -0.094614  -0.14598  0.008987  3.984458  0.009
C  C72  1  0.19470935  0.44536889  0.46868983  1  -0.057668  -0.008881  3.787191  -0.005  -0.03464  0.000697  4.031257  0.001  -0.042458  -0.00089  4.054389  0.0  -0.022006  -0.029412  0.002157  4.015886  0.003
C  C73  1  0.30529108  0.05462393  0.96869264  1  -0.057518  -0.008882  3.787018  -0.005  -0.03456  0.000698  4.03122  0.001  -0.042377  -0.00089  4.054348  0.0  -0.022106  -0.029334  0.002152  4.015851  0.003
C  C74  1  0.80529254  0.55463121  0.53131017  1  -0.057528  -0.008881  3.787036  -0.005  -0.034537  0.000698  4.031135  0.001  -0.042355  -0.000889  4.05427  0.0  -0.021988  -0.029313  0.002157  4.015765  0.003
C  C75  1  0.69471285  0.94537296  0.03130876  1  -0.057619  -0.008885  3.787032  -0.005  -0.034614  0.000697  4.031144  0.001  -0.042433  -0.00089  4.054278  0.0  -0.022057  -0.029387  0.002152  4.015775  0.003
C  C76  1  0.23422514  0.55330123  0.49233167  1  -0.147312  0.017229  3.676365  0.02  -0.18455  0.006206  3.933406  0.007  -0.186869  0.00495  3.95349  0.006  -0.086655  -0.182926  0.007548  3.920144  0.009
C  C77  1  0.26577833  0.94669651  0.99233238  1  -0.147126  0.017228  3.676417  0.02  -0.184349  0.006205  3.933456  0.007  -0.186667  0.004949  3.953541  0.006  -0.086555  -0.182728  0.007549  3.920195  0.009
C  C78  1  0.76578338  0.44670048  0.50766341  1  -0.147473  0.017201  3.676602  0.02  -0.184694  0.006205  3.933631  0.007  -0.187017  0.004948  3.953719  0.006  -0.086731  -0.183073  0.007544  3.920371  0.009
C  C79  1  0.73422471  0.05330279  0.00766833  1  -0.147308  0.017218  3.676635  0.02  -0.184591  0.006204  3.933619  0.007  -0.18691  0.004949  3.953705  0.006  -0.086653  -0.182962  0.007552  3.920351  0.009
C  C80  1  0.47219959  0.31283514  0.64442307  1  0.649088  -0.006279  3.882365  -0.004  0.605248  -0.001584  4.176384  -0.001  0.641927  -0.001327  4.168139  0.0  0.211933  0.579526  -0.002067  4.181443  -0.001
C  C81  1  0.02779397  0.18716251  0.14442377  1  0.649173  -0.006284  3.882288  -0.004  0.605378  -0.001584  4.176234  -0.001  0.642057  -0.001328  4.167987  0.0  0.211963  0.579651  -0.00207  4.181299  -0.001
C  C82  1  0.52779938  0.68717059  0.35557483  1  0.648945  -0.006257  3.882825  -0.004  0.605047  -0.001584  4.176832  -0.001  0.641726  -0.001326  4.168586  0.0  0.211859  0.579325  -0.002062  4.181893  -0.001
C  C83  1  0.97220066  0.81283198  0.85557412  1  0.649243  -0.00627  3.882348  -0.004  0.60543  -0.001583  4.176339  -0.001  0.642108  -0.001325  4.168089  0.0  0.211999  0.579706  -0.002069  4.181404  -0.001
C  C84  1  0.07529941  0.41248322  0.38934678  1  0.6476  -0.005999  3.884444  -0.004  0.600977  -0.001019  4.18225  0.0  0.637715  -0.000801  4.175446  0.0  0.213278  0.575137  -0.001503  4.186084  -0.001
C  C85  1  0.42470293  0.08751362  0.88934959  1  0.647497  -0.005997  3.884307  -0.004  0.600903  -0.00102  4.182107  0.0  0.637644  -0.0008  4.175301  0.0  0.213294  0.575064  -0.001503  4.185943  -0.001
C  C86  1  0.92470261  0.58751769  0.61064761  1  0.647536  -0.006001  3.884391  -0.004  0.600957  -0.001019  4.182149  0.0  0.637694  -0.000801  4.175342  0.0  0.213221  0.57512  -0.001492  4.185989  -0.001
C  C87  1  0.57529692  0.91248166  0.11064761  1  0.647486  -0.005999  3.884378  -0.004  0.600897  -0.001019  4.182166  0.0  0.637635  -0.000801  4.17536  0.0  0.213223  0.575059  -0.0015  4.186004  -0.001
C  C88  1  0.28317800  0.98506755  0.62011838  1  0.202833  -0.013626  3.660736  -0.008  0.150772  -0.004073  3.93022  -0.002  0.165829  -0.004688  3.94329  -0.002  0.133703  0.14055  -0.003753  3.921598  -0.001
C  C89  1  0.21682191  0.51493180  0.12011909  1  0.202845  -0.013622  3.660768  -0.008  0.150734  -0.004072  3.930227  -0.002  0.165797  -0.004686  3.943303  -0.002  0.133717  0.140512  -0.00376  3.921603  -0.001
C  C90  1  0.71681741  0.01493175  0.37988232  1  0.20275  -0.013619  3.66071  -0.008  0.15063  -0.004074  3.93017  -0.002  0.165718  -0.00469  3.943255  -0.002  0.133661  0.14041  -0.003758  3.921546  -0.001
C  C91  1  0.78317999  0.48506830  0.87988372  1  0.202838  -0.013708  3.660677  -0.008  0.150715  -0.004075  3.930127  -0.002  0.165809  -0.004691  3.943208  -0.002  0.133702  0.140498  -0.003757  3.921507  -0.001
C  C92  1  0.21307245  0.99162750  0.46972482  1  -0.001399  0.004528  3.692845  0.005  -0.039651  0.001722  3.953178  0.002  -0.036965  0.001463  3.970133  0.002  0.002766  -0.041421  0.002063  3.942262  0.002
C  C93  1  0.28692262  0.50837346  0.96972552  1  -0.001392  0.004526  3.692953  0.005  -0.039703  0.001722  3.95326  0.002  -0.037005  0.001463  3.970218  0.002  0.002758  -0.041474  0.00206  3.942345  0.002
C  C94  1  0.78692830  0.00837341  0.53027939  1  -0.001496  0.004534  3.692834  0.005  -0.039804  0.001722  3.953135  0.002  -0.037104  0.001464  3.970093  0.002  0.002729  -0.041578  0.002061  3.942236  0.002
C  C95  1  0.71306629  0.49162504  0.03028080  1  -0.001483  0.004529  3.692985  0.005  -0.03979  0.001722  3.953276  0.002  -0.037081  0.001464  3.97024  0.002  0.002743  -0.041559  0.002058  3.942369  0.002
C  C96  1  0.15898075  0.89189991  0.50566856  1  -0.014169  -0.004681  3.744281  -0.003  -0.042947  -0.001066  4.019725  0.0  -0.040117  -0.001645  4.03977  -0.001  -0.009458  -0.045224  -0.00065  4.006741  0.0
C  C97  1  0.34102081  0.60810186  0.00567067  1  -0.014177  -0.004695  3.744251  -0.003  -0.042924  -0.001066  4.019716  0.0  -0.040092  -0.001645  4.039758  -0.001  -0.009452  -0.045222  -0.000653  4.006723  0.0
C  C98  1  0.84102714  0.10810582  0.49433424  1  -0.014168  -0.004695  3.74381  -0.003  -0.042925  -0.001065  4.019288  0.0  -0.040092  -0.001645  4.03933  -0.001  -0.009493  -0.045227  -0.00065  4.006294  0.0
C  C99  1  0.65896351  0.39189182  0.99433354  1  -0.014147  -0.004671  3.744093  -0.003  -0.042934  -0.001066  4.019561  0.0  -0.040101  -0.001645  4.039603  -0.001  -0.00943  -0.045207  -0.000651  4.006575  0.0
N  N100  1  0.37351245  0.69077503  0.59584741  1  -0.624532  0.053248  3.160187  0.085  -0.617562  0.030764  3.419543  0.049  -0.648338  0.02266  3.42221  0.039  -0.590084  -0.594561  0.037367  3.417226  0.056
N  N101  1  0.12648707  0.80922192  0.09584811  1  -0.624562  0.053252  3.160343  0.085  -0.617585  0.030763  3.419696  0.049  -0.64836  0.022658  3.422361  0.039  -0.590088  -0.59459  0.037364  3.417395  0.056
N  N102  1  0.62649123  0.30922829  0.40414698  1  -0.624484  0.053251  3.159961  0.085  -0.617553  0.030763  3.419331  0.049  -0.648326  0.022659  3.421998  0.039  -0.590149  -0.594566  0.037363  3.417039  0.056
N  N103  1  0.87350909  0.19077417  0.90414908  1  -0.62446  0.053246  3.160226  0.085  -0.617527  0.030763  3.419516  0.049  -0.648296  0.02266  3.422172  0.039  -0.590104  -0.594534  0.037365  3.417225  0.056
N  N104  1  0.20393414  0.88882634  0.59942703  1  -0.353781  0.052176  3.312872  0.081  -0.31713  0.033194  3.621385  0.053  -0.347746  0.026287  3.641384  0.044  -0.359775  -0.295646  0.03844  3.608033  0.058
N  N105  1  0.29606946  0.61117221  0.09942844  1  -0.353757  0.052179  3.313041  0.081  -0.317106  0.033195  3.62155  0.053  -0.347722  0.026286  3.641547  0.044  -0.359804  -0.295621  0.038445  3.608201  0.058
N  N106  1  0.79606572  0.11117698  0.40057507  1  -0.353661  0.052181  3.312536  0.081  -0.317034  0.033197  3.621077  0.053  -0.347652  0.026289  3.641071  0.044  -0.359728  -0.295548  0.038445  3.607729  0.058
N  N107  1  0.70392544  0.38882388  0.90057367  1  -0.353704  0.052184  3.312562  0.081  -0.317045  0.033196  3.621081  0.053  -0.347659  0.026289  3.641071  0.044  -0.359754  -0.295551  0.038444  3.607714  0.058
N  N108  1  0.29060311  0.04896991  0.54322096  1  -0.287401  0.000468  3.48265  0.002  -0.221103  0.000447  3.719422  0.001  -0.236781  0.000222  3.733214  0.001  -0.38349  -0.21075  0.000655  3.710372  0.002
N  N109  1  0.20939797  0.45103496  0.04322167  1  -0.287505  0.000462  3.483012  0.002  -0.221056  0.000448  3.719671  0.001  -0.236764  0.000222  3.733486  0.001  -0.38348  -0.210701  0.000659  3.710618  0.002
N  N110  1  0.70940070  0.95103421  0.45678325  1  -0.28738  0.000462  3.48308  0.002  -0.220885  0.000447  3.719746  0.001  -0.236596  0.000222  3.733559  0.001  -0.383428  -0.210539  0.000657  3.7107  0.002
N  N111  1  0.79060024  0.54896595  0.95678536  1  -0.287435  0.000474  3.483003  0.002  -0.220959  0.000447  3.719618  0.001  -0.236699  0.000222  3.733451  0.001  -0.383512  -0.210625  0.000659  3.710583  0.002
O  O112  1  0.52836901  0.33786943  0.72572937  1  -0.591349  0.042715  2.074383  0.072  -0.567773  0.028619  2.339551  0.05  -0.605102  0.020958  2.329117  0.039  -0.307937  -0.539913  0.035723  2.345995  0.06
O  O113  1  0.97161297  0.16212178  0.22572656  1  -0.591426  0.042717  2.074317  0.072  -0.567859  0.02862  2.339442  0.05  -0.605192  0.020959  2.32901  0.039  -0.307998  -0.540001  0.035726  2.345889  0.06
O  O114  1  0.47163671  0.66213870  0.27427203  1  -0.591279  0.042704  2.074635  0.072  -0.56771  0.028614  2.339826  0.05  -0.605034  0.020955  2.329389  0.039  -0.307923  -0.539852  0.035717  2.346266  0.06
O  O115  1  0.02837402  0.83786467  0.77427273  1  -0.591381  0.042711  2.074538  0.072  -0.56781  0.028616  2.339692  0.05  -0.605138  0.020955  2.329262  0.039  -0.307921  -0.539952  0.03572  2.346134  0.06
O  O116  1  0.49883457  0.22678401  0.59954921  1  -0.661231  -0.003225  2.005532  -0.002  -0.600234  -0.001919  2.224152  -0.001  -0.62598  -0.00201  2.21428  -0.001  -0.320777  -0.582215  -0.001781  2.230755  -0.001
O  O117  1  0.00116957  0.27321604  0.09955342  1  -0.66123  -0.003215  2.005611  -0.002  -0.600251  -0.001918  2.224214  -0.001  -0.625994  -0.002009  2.214331  -0.001  -0.320748  -0.582236  -0.001781  2.23084  -0.001
O  O118  1  0.50116721  0.77322332  0.40045219  1  -0.661081  -0.003237  2.005639  -0.002  -0.600026  -0.001918  2.224241  -0.001  -0.625791  -0.002009  2.214408  -0.001  -0.320684  -0.582003  -0.001777  2.230841  -0.001
O  O119  1  0.99882622  0.72677764  0.90044728  1  -0.661315  -0.00323  2.005385  -0.002  -0.600305  -0.001918  2.223998  -0.001  -0.62606  -0.002009  2.214141  -0.001  -0.320829  -0.582284  -0.001781  2.230607  -0.001
O  O120  1  0.01499621  0.31407035  0.38950196  1  -0.59359  0.049083  2.081461  0.083  -0.568755  0.030389  2.353738  0.054  -0.607882  0.021665  2.344858  0.041  -0.308218  -0.538876  0.038975  2.358595  0.066
O  O121  1  0.48500372  0.18592729  0.88950547  1  -0.593547  0.049088  2.081478  0.083  -0.56871  0.03039  2.353761  0.054  -0.607835  0.021666  2.34488  0.041  -0.308173  -0.538824  0.038977  2.358612  0.066
O  O122  1  0.98500900  0.68592654  0.61049383  1  -0.593557  0.049092  2.081499  0.083  -0.568735  0.030388  2.353785  0.054  -0.607862  0.021665  2.344912  0.041  -0.308171  -0.538857  0.03897  2.358642  0.066
O  O123  1  0.51499589  0.81407442  0.11049173  1  -0.593509  0.049078  2.081544  0.083  -0.568696  0.030387  2.353832  0.054  -0.607818  0.021664  2.344951  0.041  -0.308167  -0.53882  0.038972  2.358689  0.066
O  O124  1  0.03956326  0.48187346  0.32828806  1  -0.645259  -0.002587  2.036705  -0.001  -0.578732  -0.001243  2.250367  0.0  -0.606247  -0.001488  2.240804  -0.001  -0.308842  -0.559548  -0.000949  2.256721  0.0
O  O125  1  0.46043921  0.01812418  0.82829086  1  -0.645254  -0.002599  2.03667  -0.001  -0.578779  -0.001243  2.250323  0.0  -0.606295  -0.001489  2.240758  -0.001  -0.308903  -0.559592  -0.000947  2.256677  0.0
O  O126  1  0.96043876  0.51812745  0.67170703  1  -0.645244  -0.0026  2.036628  -0.001  -0.578769  -0.001243  2.250305  0.0  -0.606272  -0.001489  2.240732  -0.001  -0.308842  -0.559581  -0.00095  2.256666  0.0
O  O127  1  0.53956638  0.98187512  0.17170914  1  -0.64522  -0.002589  2.036557  -0.001  -0.578742  -0.001242  2.250227  0.0  -0.60625  -0.001488  2.240658  -0.001  -0.308835  -0.559553  -0.000949  2.256581  0.0
O  O128  1  0.19006590  0.62807564  0.78022989  1  -0.820963  0.04083  1.935302  0.067  -0.788097  0.028762  2.139139  0.048  -0.820255  0.021419  2.106044  0.038  -0.58515  -0.763618  0.035342  2.161792  0.056
O  O129  1  0.30993706  0.87192692  0.28022848  1  -0.820936  0.040833  1.935377  0.067  -0.788082  0.028761  2.139227  0.048  -0.820241  0.021418  2.106127  0.038  -0.58509  -0.7636  0.035341  2.16187  0.056
O  O130  1  0.80993421  0.37192125  0.21976801  1  -0.820929  0.040825  1.935383  0.067  -0.788088  0.02876  2.1392  0.048  -0.820248  0.021418  2.106101  0.038  -0.585092  -0.763591  0.03534  2.161819  0.056
O  O131  1  0.69006586  0.12807961  0.71976871  1  -0.820978  0.040824  1.935339  0.067  -0.78812  0.02876  2.139168  0.048  -0.820276  0.021418  2.106076  0.038  -0.585103  -0.763626  0.035339  2.161798  0.056
O  O132  1  0.41766054  0.81580596  0.76914624  1  -0.800925  0.026618  1.856339  0.043  -0.769002  0.02259  2.039265  0.037  -0.795027  0.017103  2.0085  0.03  -0.569151  -0.749375  0.027684  2.061092  0.043
O  O133  1  0.08234446  0.68419339  0.26914905  1  -0.80103  0.026625  1.856247  0.043  -0.769025  0.02259  2.039269  0.037  -0.795052  0.017103  2.008502  0.03  -0.569157  -0.7494  0.027682  2.061098  0.043
O  O134  1  0.58234454  0.18419013  0.23085306  1  -0.801103  0.026625  1.856172  0.043  -0.769109  0.022592  2.039217  0.037  -0.79514  0.017104  2.008449  0.03  -0.569187  -0.749483  0.027683  2.061046  0.043
O  O135  1  0.91765183  0.31581153  0.73085306  1  -0.801081  0.026623  1.856067  0.043  -0.769085  0.02259  2.039106  0.037  -0.795112  0.017103  2.008339  0.03  -0.569125  -0.749455  0.02768  2.060939  0.043
