# generated using pymatgen
data_Zn2SiH36C51(NO4)2
_symmetry_space_group_name_H-M   'P 1'
_cell_length_a   11.80220163
_cell_length_b   15.63871700
_cell_length_c   16.19373502
_cell_angle_alpha   90.15727286
_cell_angle_beta   89.98635333
_cell_angle_gamma   90.03146228
_symmetry_Int_Tables_number   1
_chemical_formula_structural   Zn2SiH36C51(NO4)2
_chemical_formula_sum   'Zn2 Si1 H36 C51 N2 O8'
_cell_volume   2988.88678938
_cell_formula_units_Z   1
loop_
 _symmetry_equiv_pos_site_id
 _symmetry_equiv_pos_as_xyz
  1  'x, y, z'
loop_
 _atom_site_type_symbol
 _atom_site_label
 _atom_site_symmetry_multiplicity
 _atom_site_fract_x
 _atom_site_fract_y
 _atom_site_fract_z
 _atom_site_occupancy
 _atom_site_pbe_bader_charge
 _atom_site_pbe_bader_spin_density
 _atom_site_pbe_cm5_charge
 _atom_site_pbe_ddec_charge
 _atom_site_pbe_ddec_spin_density
 _atom_site_pbe_ddec_sum_bond_order
 _atom_site_pbe_magmom
Zn  Zn0  1  0.31008967  0.31720439  0.17226363  1  1.281061  0  0.6646  0.814768  0  2.425974  0
Zn  Zn1  1  0.31124879  0.31497273  0.00229408  1  1.290473  0  0.664275  0.813091  0  2.440328  0
Si  Si2  1  0.06291750  0.60000654  0.56070322  1  2.730064  0  0.142605  1.029658  0  3.915224  0
H  H3  1  0.86836685  0.02682854  0.97660036  1  0.05279  0  0.099729  0.101657  0  1.000955  0
H  H4  1  0.86792883  0.60627512  0.19526540  1  0.055664  0  0.09999  0.101902  0  0.999329  0
H  H5  1  0.14851108  0.07013595  0.20204240  1  0.098827  0  0.10241  0.106965  0  1.002035  0
H  H6  1  0.99642391  0.47964885  0.19755222  1  0.097005  0  0.103914  0.107571  0  0.998723  0
H  H7  1  0.14599311  0.55954666  0.96908142  1  0.080377  0  0.101323  0.105561  0  1.002834  0
H  H8  1  0.99729562  0.15350236  0.97545179  1  0.069438  0  0.103292  0.107237  0  0.998  0
H  H9  1  0.46662469  0.06901430  0.98278602  1  0.051569  0  0.101018  0.104875  0  1.006905  0
H  H10  1  0.46568645  0.56418980  0.19302708  1  0.091186  0  0.102704  0.108109  0  0.999982  0
H  H11  1  0.58906958  0.93874277  0.98035770  1  0.063908  0  0.0979  0.098444  0  1.004039  0
H  H12  1  0.58816741  0.69455747  0.19402117  1  0.074831  0  0.098399  0.098938  0  1.003795  0
H  H13  1  0.63174789  0.15477552  0.20381290  1  0.105979  0  0.102787  0.105661  0  0.998286  0
H  H14  1  0.63085320  0.47607883  0.97278567  1  0.092065  0  0.103054  0.106826  0  0.997917  0
H  H15  1  0.60170598  0.81627262  0.08825703  1  0.029958  0  0.100688  0.105069  0  1.009714  0
H  H16  1  0.75927876  0.60274956  0.97625745  1  0.06927  0  0.098914  0.100978  0  1.005688  0
H  H17  1  0.76011623  0.02822535  0.19897485  1  0.062186  0  0.099782  0.102333  0  1.001552  0
H  H18  1  0.01962693  0.81563090  0.08376437  1  0.039398  0  0.100733  0.10702  0  1.006233  0
H  H19  1  0.02606406  0.93953497  0.20073761  1  0.051749  0  0.097944  0.098534  0  1.001576  0
H  H20  1  0.02373689  0.69007547  0.96904204  1  0.037891  0  0.096488  0.096096  0  1.004697  0
H  H21  1  0.21545296  0.43633022  0.29609934  1  0.147557  0  0.131688  0.114565  0  0.981797  0
H  H22  1  0.26929371  0.15896779  0.72712715  1  0.107318  0  0.112731  0.118446  0  0.986044  0
H  H23  1  0.26206277  0.17960424  0.88131841  1  0.1522  0  0.130189  0.105898  0  0.973693  0
H  H24  1  0.29688678  0.40991452  0.58419521  1  0.11375  0  0.107464  0.108278  0  1.012395  0
H  H25  1  0.32584068  0.21423923  0.59171535  1  0.08978  0  0.107854  0.104987  0  0.991902  0
H  H26  1  0.36446164  0.43145590  0.86253491  1  0.144627  0  0.130754  0.106528  0  0.967097  0
H  H27  1  0.41019036  0.22007511  0.46441087  1  0.073445  0  0.113343  0.119881  0  0.989933  0
H  H28  1  0.37280300  0.42371565  0.70817280  1  0.099194  0  0.112735  0.118607  0  0.991775  0
H  H29  1  0.40373519  0.21401062  0.30937605  1  0.178483  0  0.129225  0.108678  0  0.981631  0
H  H30  1  0.04367841  0.61241868  0.71362494  1  0.029236  0  0.095635  0.172265  0  1.01352  0
H  H31  1  0.18380356  0.58227767  0.68581245  1  0.048612  0  0.091834  0.165721  0  1.023373  0
H  H32  1  0.07302288  0.50511956  0.68393270  1  0.034832  0  0.095143  0.172861  0  1.015289  0
H  H33  1  0.05852656  0.75787237  0.57459446  1  0.029213  0  0.094451  0.168655  0  1.018874  0
H  H34  1  0.09330159  0.72791574  0.47155779  1  0.06743  0  0.097153  0.175846  0  1.012283  0
H  H35  1  0.19778653  0.72211574  0.55043843  1  0.037849  0  0.094896  0.171333  0  1.017525  0
H  H36  1  0.85607474  0.62503662  0.57391506  1  0.044495  0  0.094487  0.168542  0  1.018045  0
H  H37  1  0.88441740  0.51631561  0.54809846  1  0.061592  0  0.096319  0.173696  0  1.014635  0
H  H38  1  0.89178236  0.59649809  0.47061279  1  0.055938  0  0.097683  0.176197  0  1.011502  0
C  C39  1  0.93065117  0.03558696  0.02564218  1  -0.071068  0  -0.092893  -0.135423  0  3.993632  0
C  C40  1  0.92981092  0.59677304  0.14604145  1  -0.005903  0  -0.091572  -0.133727  0  3.988751  0
C  C41  1  0.08785627  0.05923745  0.15240478  1  -0.049242  0  -0.088032  -0.089433  0  3.996765  0
C  C42  1  0.00094218  0.52577957  0.14731606  1  -0.071896  0  -0.085729  -0.090261  0  3.988852  0
C  C43  1  0.08581561  0.57122976  0.01887926  1  -0.060676  0  -0.088158  -0.089195  0  3.995542  0
C  C44  1  0.08100838  0.11911236  0.08842168  1  0.004794  0  -0.020242  -0.033961  0  3.971542  0
C  C45  1  0.07961444  0.51234521  0.08377069  1  0.001944  0  -0.020076  -0.033941  0  3.969064  0
C  C46  1  0.00192478  0.10657056  0.02497812  1  -0.00871  0  -0.086561  -0.090786  0  3.992034  0
C  C47  1  0.15872652  0.43749691  0.08565318  1  1.584455  0  0.213624  0.593596  0  4.171106  0
C  C48  1  0.15976599  0.19428239  0.08731646  1  1.57028  0  0.212073  0.592133  0  4.174224  0
C  C49  1  0.46248712  0.19456541  0.09538591  1  1.568383  0  0.212912  0.593779  0  4.171867  0
C  C50  1  0.46178344  0.43743064  0.08104933  1  1.566855  0  0.2124  0.593046  0  4.175547  0
C  C51  1  0.53023087  0.05860954  0.03041677  1  -0.031257  0  -0.088815  -0.090393  0  4.003501  0
C  C52  1  0.52934872  0.57406966  0.14525744  1  -0.041634  0  -0.088096  -0.090561  0  3.996389  0
C  C53  1  0.54019075  0.51274879  0.08251817  1  -0.016709  0  -0.019345  -0.031153  0  3.969159  0
C  C54  1  0.54090653  0.11928348  0.09373010  1  0.017037  0  -0.019616  -0.031858  0  3.969547  0
C  C55  1  0.59877015  0.98634302  0.02926496  1  -0.073871  0  -0.097599  -0.146683  0  4.009514  0
C  C56  1  0.59789597  0.64643185  0.14559009  1  -0.102667  0  -0.097641  -0.146886  0  4.007981  0
C  C57  1  0.62371067  0.10741246  0.15463530  1  -0.081614  0  -0.085968  -0.091425  0  3.988104  0
C  C58  1  0.62297246  0.52398903  0.02144476  1  -0.05373  0  -0.086144  -0.090449  0  3.989428  0
C  C59  1  0.68148184  0.65802056  0.08483385  1  0.040508  0  -0.006814  0.077211  0  4.009466  0
C  C60  1  0.68239697  0.97415129  0.08980965  1  -0.046378  0  -0.006417  0.07786  0  4.008617  0
C  C61  1  0.69418883  0.81611978  0.08729975  1  -0.101936  0  -0.091409  -0.180903  0  3.978015  0
C  C62  1  0.69409054  0.59507261  0.02338724  1  -0.055434  0  -0.092672  -0.135737  0  3.991815  0
C  C63  1  0.69496197  0.03642261  0.15190447  1  -0.02938  0  -0.092298  -0.134388  0  3.984964  0
C  C64  1  0.75047043  0.73725277  0.08547686  1  0.080906  0  -0.007705  0.025862  0  3.987358  0
C  C65  1  0.75110234  0.89480546  0.08804496  1  0.11226  0  -0.007987  0.024891  0  3.987913  0
C  C66  1  0.87076734  0.89458188  0.08732360  1  -0.048671  0  -0.007489  0.025141  0  3.988879  0
C  C67  1  0.87009753  0.73712922  0.08361569  1  -0.058711  0  -0.007596  0.025435  0  3.986963  0
C  C68  1  0.92712194  0.81575024  0.08473071  1  -0.055  0  -0.092132  -0.182311  0  3.978687  0
C  C69  1  0.93972288  0.97391420  0.08821499  1  -0.055549  0  -0.006403  0.077858  0  4.014285  0
C  C70  1  0.93849004  0.65759072  0.08264738  1  -0.016131  0  -0.005979  0.07818  0  4.012528  0
C  C71  1  0.01935068  0.98677519  0.15147754  1  -0.051564  0  -0.096902  -0.14714  0  4.008343  0
C  C72  1  0.01738846  0.64367001  0.01906818  1  -0.069453  0  -0.09732  -0.147901  0  4.009273  0
C  C73  1  0.25608085  0.39976275  0.42255170  1  0.056254  0  0.01064  0.031395  0  4.053664  0
C  C74  1  0.25766847  0.39041190  0.33629780  1  0.584904  0  0.075055  0.070925  0  3.843797  0
C  C75  1  0.29059907  0.22063747  0.75458068  1  -0.121899  0  -0.078667  -0.181442  0  3.941947  0
C  C76  1  0.28670654  0.23112701  0.83971733  1  0.50176  0  0.062557  0.108879  0  3.922825  0
C  C77  1  0.31133037  0.33669247  0.47138229  1  0.103017  0  0.016491  0.107437  0  3.979812  0
C  C78  1  0.32005671  0.29020123  0.70412850  1  0.078915  0  0.009392  0.149659  0  4.038683  0
C  C79  1  0.31166195  0.34528662  0.56075908  1  -0.043414  0  -0.076774  -0.10906  0  3.96517  0
C  C80  1  0.32166149  0.28001452  0.61467102  1  -0.141346  0  -0.077552  -0.120897  0  3.961502  0
C  C81  1  0.34243572  0.37308469  0.82910013  1  0.463005  0  0.061272  0.103356  0  3.926235  0
C  C82  1  0.36449507  0.26879322  0.42985994  1  -0.008413  0  -0.078741  -0.17742  0  3.964417  0
C  C83  1  0.34663357  0.36797501  0.74364880  1  -0.072613  0  -0.077889  -0.17688  0  3.932383  0
C  C84  1  0.36197931  0.26471859  0.34434757  1  0.371553  0  0.059734  0.098664  0  3.919918  0
C  C85  1  0.14572933  0.52478154  0.49721079  1  -0.121694  0  -0.093883  -0.412282  0  3.781936  0
C  C86  1  0.19737146  0.46842861  0.46035619  1  -0.806204  0  -0.037346  0.017209  0  4.163028  0
C  C87  1  0.09377931  0.57233132  0.67129407  1  -0.759833  0  -0.28938  -0.739003  0  3.862276  0
C  C88  1  0.10748515  0.71244440  0.53689303  1  -0.784439  0  -0.288492  -0.740636  0  3.865602  0
C  C89  1  0.90931932  0.58277430  0.53588087  1  -0.806635  0  -0.287898  -0.739236  0  3.859598  0
N  N90  1  0.31259482  0.30592425  0.87624372  1  -1.228133  0  -0.316526  -0.18992  0  3.509762  0
N  N91  1  0.30918958  0.32478612  0.29877520  1  -1.247148  0  -0.3149  -0.183673  0  3.528142  0
O  O92  1  0.21013934  0.41970923  0.01847030  1  -1.170891  0  -0.321419  -0.551195  0  2.330109  0
O  O93  1  0.17255853  0.23358141  0.01913508  1  -1.170972  0  -0.320608  -0.555149  0  2.302848  0
O  O94  1  0.20987238  0.21229267  0.15497875  1  -1.165103  0  -0.321635  -0.54972  0  2.328206  0
O  O95  1  0.17051918  0.39807711  0.15388972  1  -1.169284  0  -0.319664  -0.555369  0  2.30235  0
O  O96  1  0.45043360  0.23517921  0.16314011  1  -1.169092  0  -0.320753  -0.553996  0  2.288768  0
O  O97  1  0.41048686  0.42063907  0.14845901  1  -1.165682  0  -0.321709  -0.554287  0  2.341501  0
O  O98  1  0.45031758  0.39673265  0.01329519  1  -1.167747  0  -0.322154  -0.553432  0  2.288946  0
O  O99  1  0.41158330  0.21141039  0.02788196  1  -1.170344  0  -0.320682  -0.556682  0  2.344211  0
