# generated using pymatgen
data_EuH21C30(N2O3)2
_symmetry_space_group_name_H-M   'P 1'
_cell_length_a   9.19661310
_cell_length_b   10.47190332
_cell_length_c   14.20496182
_cell_angle_alpha   105.45262987
_cell_angle_beta   91.73091648
_cell_angle_gamma   105.60853160
_symmetry_Int_Tables_number   1
_chemical_formula_structural   EuH21C30(N2O3)2
_chemical_formula_sum   'Eu2 H42 C60 N8 O12'
_cell_volume   1262.27197595
_cell_formula_units_Z   2
loop_
 _symmetry_equiv_pos_site_id
 _symmetry_equiv_pos_as_xyz
  1  'x, y, z'
loop_
 _atom_site_type_symbol
 _atom_site_label
 _atom_site_symmetry_multiplicity
 _atom_site_fract_x
 _atom_site_fract_y
 _atom_site_fract_z
 _atom_site_occupancy
 _atom_site_hle17_bader_spin_density
 _atom_site_hle17_ddec_charge
 _atom_site_hle17_ddec_spin_density
 _atom_site_hle17_ddec_sum_bond_order
 _atom_site_hle17_magmom
 _atom_site_hse06_10hf_bader_spin_density
 _atom_site_hse06_10hf_ddec_charge
 _atom_site_hse06_10hf_ddec_spin_density
 _atom_site_hse06_10hf_ddec_sum_bond_order
 _atom_site_hse06_10hf_magmom
 _atom_site_hse06_bader_spin_density
 _atom_site_hse06_ddec_charge
 _atom_site_hse06_ddec_spin_density
 _atom_site_hse06_ddec_sum_bond_order
 _atom_site_hse06_magmom
 _atom_site_pbe_bader_spin_density
 _atom_site_pbe_cm5_charge
 _atom_site_pbe_ddec_charge
 _atom_site_pbe_ddec_spin_density
 _atom_site_pbe_ddec_sum_bond_order
 _atom_site_pbe_magmom
Eu  Eu0  1  0.05048888  0.18468455  0.09830436  1  0  2.181273  0  1.70879  0  0  2.010203  0  2.202131  0  0  2.061908  0  2.158282  0  0  1.497051  1.97064  0  2.23686  0
Eu  Eu1  1  0.94951160  0.81531654  0.90169575  1  0  2.181285  0  1.708783  0  0  2.010207  0  2.202131  0  0  2.06192  0  2.158271  0  0  1.497047  1.970645  0  2.236861  0
H  H2  1  0.34669702  0.37253474  0.32319560  1  0  0.327603  0  0.90755  0  0  0.308781  0  0.97123  0  0  0.317685  0  0.96334  0  0  0.315433  0.302678  0  0.975952  0
H  H3  1  0.65330387  0.62746763  0.67680525  1  0  0.327591  0  0.907568  0  0  0.308724  0  0.971292  0  0  0.317624  0  0.963409  0  0  0.315437  0.302624  0  0.976014  0
H  H4  1  0.10297069  0.10208587  0.31248798  1  0  0.078337  0  0.966738  0  0  0.082191  0  1.038876  0  0  0.085158  0  1.036064  0  0  0.116666  0.082213  0  1.036147  0
H  H5  1  0.89702937  0.89791393  0.68751141  1  0  0.078351  0  0.966728  0  0  0.082212  0  1.03885  0  0  0.085177  0  1.03604  0  0  0.11667  0.08223  0  1.036126  0
H  H6  1  0.99546772  0.07984978  0.46862738  1  0  0.096682  0  0.963091  0  0  0.108885  0  1.019441  0  0  0.1116  0  1.019408  0  0  0.10524  0.106663  0  1.020233  0
H  H7  1  0.00453167  0.92015131  0.53137273  1  0  0.096671  0  0.96307  0  0  0.108862  0  1.019443  0  0  0.111585  0  1.0194  0  0  0.105234  0.106639  0  1.020235  0
H  H8  1  0.74996916  0.13813315  0.50321312  1  0  0.103787  0  0.94995  0  0  0.11525  0  1.009923  0  0  0.117659  0  1.008818  0  0  0.108867  0.112785  0  1.012532  0
H  H9  1  0.25003252  0.86186824  0.49678774  1  0  0.103744  0  0.949992  0  0  0.115219  0  1.009951  0  0  0.117628  0  1.008845  0  0  0.108862  0.112761  0  1.012551  0
H  H10  1  0.47080086  0.42458115  0.18141399  1  0  0.108215  0  0.946387  0  0  0.120204  0  1.002941  0  0  0.122902  0  1.000934  0  0  0.11563  0.118554  0  1.004151  0
H  H11  1  0.52920070  0.57541995  0.81858613  1  0  0.10823  0  0.94638  0  0  0.120215  0  1.002943  0  0  0.122912  0  1.000936  0  0  0.115627  0.118568  0  1.004151  0
H  H12  1  0.63190542  0.46992012  0.04728607  1  0  0.115233  0  0.925141  0  0  0.128807  0  0.974392  0  0  0.132292  0  0.973279  0  0  0.117653  0.126157  0  0.975722  0
H  H13  1  0.36809475  0.53007998  0.95271405  1  0  0.115238  0  0.925132  0  0  0.128811  0  0.974382  0  0  0.132295  0  0.973271  0  0  0.117657  0.126162  0  0.975712  0
H  H14  1  0.85885157  0.38176445  0.02699445  1  0  0.086502  0  0.965926  0  0  0.092095  0  1.035053  0  0  0.095447  0  1.030833  0  0  0.122276  0.08954  0  1.038451  0
H  H15  1  0.14114710  0.61823435  0.97300493  1  0  0.086493  0  0.965919  0  0  0.092103  0  1.035026  0  0  0.095414  0  1.030857  0  0  0.12227  0.089547  0  1.038425  0
H  H16  1  0.21604066  0.46378308  0.44611922  1  0  0.098386  0  0.945703  0  0  0.110336  0  1.006927  0  0  0.113663  0  1.004903  0  0  0.102804  0.107529  0  1.009641  0
H  H17  1  0.78395981  0.53621801  0.55388090  1  0  0.098396  0  0.945697  0  0  0.110318  0  1.006944  0  0  0.113676  0  1.004881  0  0  0.102804  0.107511  0  1.009657  0
H  H18  1  0.04483611  0.51326286  0.57417390  1  0  0.085517  0  0.969508  0  0  0.097871  0  1.029225  0  0  0.100004  0  1.029085  0  0  0.099442  0.096744  0  1.02856  0
H  H19  1  0.95516418  0.48673753  0.42582695  1  0  0.085517  0  0.96952  0  0  0.09787  0  1.02924  0  0  0.100002  0  1.029098  0  0  0.099444  0.096743  0  1.028575  0
H  H20  1  0.03002116  0.41061771  0.71206138  1  0  0.090896  0  0.971137  0  0  0.10252  0  1.03215  0  0  0.104111  0  1.033232  0  0  0.097396  0.101552  0  1.031008  0
H  H21  1  0.96997901  0.58938239  0.28793873  1  0  0.090897  0  0.971134  0  0  0.102522  0  1.032146  0  0  0.104113  0  1.033228  0  0  0.097397  0.101553  0  1.031004  0
H  H22  1  0.35368715  0.19868972  0.59443843  1  0  0.094692  0  0.984659  0  0  0.104074  0  1.052541  0  0  0.106692  0  1.051517  0  0  0.1  0.102746  0  1.052557  0
H  H23  1  0.64631273  0.80130939  0.40556169  1  0  0.09468  0  0.984655  0  0  0.104052  0  1.052554  0  0  0.10667  0  1.051529  0  0  0.099991  0.102725  0  1.052569  0
H  H24  1  0.16963416  0.30752801  0.81671005  1  0  0.115269  0  0.949622  0  0  0.136042  0  1.010881  0  0  0.137093  0  1.011461  0  0  0.09446  0.13573  0  1.009489  0
H  H25  1  0.83036504  0.69247237  0.18329080  1  0  0.11526  0  0.949601  0  0  0.136041  0  1.010849  0  0  0.137092  0  1.011427  0  0  0.094444  0.135729  0  1.009456  0
H  H26  1  0.29043495  0.20883060  0.76060990  1  0  0.105341  0  0.952519  0  0  0.128165  0  1.011948  0  0  0.129055  0  1.012674  0  0  0.089577  0.128455  0  1.009748  0
H  H27  1  0.70956523  0.79116950  0.23939021  1  0  0.105333  0  0.952535  0  0  0.128169  0  1.011949  0  0  0.129057  0  1.012674  0  0  0.089586  0.128458  0  1.009748  0
H  H28  1  0.09066120  0.14087200  0.73488192  1  0  0.10408  0  0.968752  0  0  0.125049  0  1.03355  0  0  0.125064  0  1.03542  0  0  0.088412  0.125389  0  1.03149  0
H  H29  1  0.90933989  0.85912741  0.26511894  1  0  0.104123  0  0.968782  0  0  0.125096  0  1.033567  0  0  0.12511  0  1.035437  0  0  0.088437  0.125435  0  1.031508  0
H  H30  1  0.65105400  0.96690521  0.70190437  1  0  0.096417  0  0.977006  0  0  0.101192  0  1.04873  0  0  0.104416  0  1.047139  0  0  0.100495  0.098581  0  1.05046  0
H  H31  1  0.34894508  0.03309488  0.29809574  1  0  0.096412  0  0.976997  0  0  0.101182  0  1.048733  0  0  0.104405  0  1.047143  0  0  0.100481  0.098574  0  1.050456  0
H  H32  1  0.53746980  0.08707623  0.60240162  1  0  0.091715  0  0.959307  0  0  0.097608  0  1.029099  0  0  0.1015  0  1.026414  0  0  0.098801  0.09506  0  1.030723  0
H  H33  1  0.46253038  0.91292387  0.39759850  1  0  0.091744  0  0.959261  0  0  0.097623  0  1.029067  0  0  0.101515  0  1.02638  0  0  0.098827  0.095074  0  1.030694  0
H  H34  1  0.60574550  0.34268696  0.64975690  1  0  0.098714  0  0.964296  0  0  0.102353  0  1.038704  0  0  0.106373  0  1.035468  0  0  0.100545  0.09918  0  1.041573  0
H  H35  1  0.39425497  0.65731413  0.35024322  1  0  0.098726  0  0.96431  0  0  0.10237  0  1.038708  0  0  0.10639  0  1.035471  0  0  0.100547  0.099197  0  1.041575  0
H  H36  1  0.90809181  0.36097612  0.89313764  1  0  0.114582  0  0.960764  0  0  0.121853  0  1.025814  0  0  0.126013  0  1.02182  0  0  0.114213  0.118643  0  1.029013  0
H  H37  1  0.09190855  0.63902468  0.10686174  1  0  0.114569  0  0.960771  0  0  0.121819  0  1.025853  0  0  0.125983  0  1.021853  0  0  0.114206  0.118609  0  1.02905  0
H  H38  1  0.37286292  0.05826205  0.82867335  1  0  0.133692  0  0.951071  0  0  0.150425  0  1.015837  0  0  0.152274  0  1.016409  0  0  0.098077  0.149159  0  1.015276  0
H  H39  1  0.62713714  0.94173775  0.17132603  1  0  0.133677  0  0.951131  0  0  0.150419  0  1.01588  0  0  0.152269  0  1.016453  0  0  0.098072  0.149153  0  1.015319  0
H  H40  1  0.43941202  0.99962883  0.92213305  1  0  0.141443  0  0.928219  0  0  0.162195  0  0.983484  0  0  0.164438  0  0.983175  0  0  0.104194  0.160613  0  0.98362  0
H  H41  1  0.56058748  0.00037255  0.07786780  1  0  0.141463  0  0.928207  0  0  0.162215  0  0.983478  0  0  0.164458  0  0.983169  0  0  0.104211  0.160634  0  0.983613  0
H  H42  1  0.50716389  0.17900031  0.92775630  1  0  0.13317  0  0.952891  0  0  0.150398  0  1.014465  0  0  0.151884  0  1.015461  0  0  0.095089  0.149477  0  1.013682  0
H  H43  1  0.49283520  0.82099978  0.07224381  1  0  0.133175  0  0.952887  0  0  0.150404  0  1.014461  0  0  0.151891  0  1.015457  0  0  0.09509  0.149483  0  1.013677  0
C  C44  1  0.99826343  0.12841375  0.33035098  1  0  0.137829  0  3.730297  0  0  0.106947  0  3.995172  0  0  0.114592  0  4.010127  0  0  0.051797  0.10341  0  3.979868  0
C  C45  1  0.00173663  0.87158606  0.66964840  1  0  0.137832  0  3.730274  0  0  0.106955  0  3.995137  0  0  0.114602  0  4.010092  0  0  0.051805  0.103422  0  3.979833  0
C  C46  1  0.93543178  0.11345173  0.41699659  1  0  -0.11255  0  3.754429  0  0  -0.123986  0  4.005423  0  0  -0.129986  0  4.026431  0  0  -0.0822  -0.120783  0  3.99233  0
C  C47  1  0.06456731  0.88654836  0.58300352  1  0  -0.112523  0  3.754399  0  0  -0.12396  0  4.005406  0  0  -0.129966  0  4.02641  0  0  -0.082197  -0.120757  0  3.992313  0
C  C48  1  0.80146063  0.14598827  0.43611467  1  0  -0.03033  0  3.676146  0  0  -0.053243  0  3.918449  0  0  -0.050659  0  3.935654  0  0  -0.063271  -0.056745  0  3.910041  0
C  C49  1  0.19853834  0.85401153  0.56388471  1  0  -0.030324  0  3.676065  0  0  -0.053236  0  3.918377  0  0  -0.050654  0  3.935585  0  0  -0.063263  -0.056745  0  3.909965  0
C  C50  1  0.73363894  0.19624804  0.36888794  1  0  -0.021956  0  3.77653  0  0  -0.009412  0  4.007829  0  0  -0.01213  0  4.031331  0  0  0.002765  -0.009496  0  3.993692  0
C  C51  1  0.26636124  0.80375206  0.63111218  1  0  -0.021876  0  3.776402  0  0  -0.009354  0  4.007735  0  0  -0.012072  0  4.031237  0  0  0.002768  -0.009437  0  3.993598  0
C  C52  1  0.59943926  0.23982132  0.38348326  1  0  0.090587  0  3.873372  0  0  0.084036  0  4.13371  0  0  0.084856  0  4.158205  0  0  0.085279  0.082135  0  4.120102  0
C  C53  1  0.40056219  0.76017948  0.61651612  1  0  0.090549  0  3.873341  0  0  0.084002  0  4.133694  0  0  0.084821  0  4.158189  0  0  0.085283  0.082102  0  4.120084  0
C  C54  1  0.54303843  0.29813078  0.31755771  1  0  0.113968  0  3.786342  0  0  0.094741  0  4.042691  0  0  0.098289  0  4.065193  0  0  0.098024  0.09303  0  4.028111  0
C  C55  1  0.45696295  0.70186962  0.68244315  1  0  0.114038  0  3.786292  0  0  0.094796  0  4.042644  0  0  0.098344  0  4.065148  0  0  0.098047  0.093085  0  4.028063  0
C  C56  1  0.61563216  0.31995968  0.23373581  1  0  -0.03357  0  3.785061  0  0  -0.020351  0  4.021905  0  0  -0.023842  0  4.044761  0  0  0.003818  -0.017701  0  4.005689  0
C  C57  1  0.38436843  0.68004170  0.76626504  1  0  -0.033575  0  3.785149  0  0  -0.02035  0  4.021986  0  0  -0.023845  0  4.044853  0  0  0.003847  -0.017692  0  4.005774  0
C  C58  1  0.57181773  0.38963499  0.17064083  1  0  -0.002552  0  3.658343  0  0  -0.030724  0  3.909806  0  0  -0.025705  0  3.92428  0  0  -0.053867  -0.034223  0  3.899744  0
C  C59  1  0.42818244  0.61036511  0.82935929  1  0  -0.002634  0  3.658413  0  0  -0.030824  0  3.909896  0  0  -0.025803  0  3.924371  0  0  -0.0539  -0.034323  0  3.899833  0
C  C60  1  0.65940104  0.41349682  0.09633475  1  0  -0.10868  0  3.720119  0  0  -0.120439  0  3.976583  0  0  -0.126569  0  3.994625  0  0  -0.074523  -0.117071  0  3.965052  0
C  C61  1  0.34059902  0.58650299  0.90366464  1  0  -0.10866  0  3.720132  0  0  -0.120416  0  3.976598  0  0  -0.126542  0  3.994629  0  0  -0.074525  -0.117047  0  3.965067  0
C  C62  1  0.78701957  0.36416270  0.08430648  1  0  0.150871  0  3.699968  0  0  0.117165  0  3.963893  0  0  0.125431  0  3.978961  0  0  0.056978  0.111614  0  3.953993  0
C  C63  1  0.21298031  0.63583640  0.91569364  1  0  0.150913  0  3.699905  0  0  0.117202  0  3.96382  0  0  0.125497  0  3.978901  0  0  0.057005  0.111652  0  3.953918  0
C  C64  1  0.74809095  0.27421090  0.21694312  1  0  0.137792  0  3.764306  0  0  0.130232  0  4.011717  0  0  0.134841  0  4.032793  0  0  0.12164  0.128711  0  3.995791  0
C  C65  1  0.25190911  0.72578890  0.78305627  1  0  0.137823  0  3.764314  0  0  0.130289  0  4.011668  0  0  0.134898  0  4.032745  0  0  0.121621  0.128744  0  3.995782  0
C  C66  1  0.80655160  0.21149158  0.28385204  1  0  0.134962  0  3.753537  0  0  0.129556  0  3.999476  0  0  0.133762  0  4.019573  0  0  0.11982  0.127321  0  3.985373  0
C  C67  1  0.19344846  0.78850822  0.71614734  1  0  0.134944  0  3.753549  0  0  0.129544  0  3.999468  0  0  0.133752  0  4.019565  0  0  0.119861  0.127315  0  3.985368  0
C  C68  1  0.40692449  0.29877424  0.44378373  1  0  0.329178  0  3.75533  0  0  0.298417  0  4.029509  0  0  0.312322  0  4.044511  0  0  0.217573  0.28924  0  4.017543  0
C  C69  1  0.59307568  0.70122586  0.55621638  1  0  0.329159  0  3.755351  0  0  0.29839  0  4.029531  0  0  0.312294  0  4.044532  0  0  0.217561  0.289214  0  4.017562  0
C  C70  1  0.29647953  0.32674116  0.51208294  1  0  -0.009467  0  3.831098  0  0  0.009479  0  4.070443  0  0  0.007226  0  4.093783  0  0  -0.013295  0.011347  0  4.052978  0
C  C71  1  0.70352204  0.67325994  0.48791718  1  0  -0.009498  0  3.831152  0  0  0.009457  0  4.070491  0  0  0.007199  0  4.093843  0  0  -0.013321  0.011323  0  4.053023  0
C  C72  1  0.20810541  0.41519648  0.50561611  1  0  -0.099762  0  3.725347  0  0  -0.128587  0  3.985226  0  0  -0.130138  0  4.005209  0  0  -0.094117  -0.128754  0  3.972522  0
C  C73  1  0.79189477  0.58480362  0.49438400  1  0  -0.09978  0  3.725363  0  0  -0.128586  0  3.985247  0  0  -0.130159  0  4.005221  0  0  -0.094121  -0.128753  0  3.972543  0
C  C74  1  0.11160626  0.44270330  0.57737468  1  0  -0.070663  0  3.801611  0  0  -0.084751  0  4.061555  0  0  -0.086432  0  4.083339  0  0  -0.095695  -0.0836  0  4.046544  0
C  C75  1  0.88839282  0.55729679  0.42262544  1  0  -0.070673  0  3.801597  0  0  -0.084758  0  4.061534  0  0  -0.086439  0  4.083328  0  0  -0.095694  -0.083607  0  4.046523  0
C  C76  1  0.10306221  0.38484494  0.65547373  1  0  -0.119392  0  3.714922  0  0  -0.142126  0  3.960869  0  0  -0.1449  0  3.983497  0  0  -0.093463  -0.138403  0  3.944859  0
C  C77  1  0.89693797  0.61515516  0.34452639  1  0  -0.119386  0  3.714879  0  0  -0.142119  0  3.960822  0  0  -0.144897  0  3.98345  0  0  -0.093459  -0.138397  0  3.94481  0
C  C78  1  0.19057459  0.29645105  0.66350593  1  0  0.138672  0  3.782657  0  0  0.168603  0  4.01622  0  0  0.168737  0  4.041582  0  0  -0.010269  0.168482  0  3.998418  0
C  C79  1  0.80942588  0.70355004  0.33649419  1  0  0.138689  0  3.782651  0  0  0.16862  0  4.016218  0  0  0.168755  0  4.041579  0  0  -0.010264  0.168499  0  3.998413  0
C  C80  1  0.28488663  0.26741270  0.59060303  1  0  -0.165284  0  3.709966  0  0  -0.19168  0  3.947591  0  0  -0.195093  0  3.969348  0  0  -0.093091  -0.188176  0  3.931507  0
C  C81  1  0.71511354  0.73258740  0.40939708  1  0  -0.165231  0  3.709984  0  0  -0.191629  0  3.947602  0  0  -0.195039  0  3.969358  0  0  -0.093066  -0.188123  0  3.931515  0
C  C82  1  0.18545274  0.23587361  0.74847853  1  0  -0.332555  0  3.71929  0  0  -0.4125  0  3.951428  0  0  -0.414811  0  3.962778  0  0  -0.24133  -0.410891  0  3.941352  0
C  C83  1  0.81454785  0.76412778  0.25152232  1  0  -0.332602  0  3.719326  0  0  -0.412568  0  3.951468  0  0  -0.414876  0  3.962817  0  0  -0.241353  -0.410958  0  3.941391  0
C  C84  1  0.85918855  0.09127657  0.86763869  1  0  0.708919  0  3.85371  0  0  0.661665  0  4.143962  0  0  0.697496  0  4.132646  0  0  0.234058  0.637549  0  4.150966  0
C  C85  1  0.14081278  0.90872394  0.13235996  1  0  0.70892  0  3.853657  0  0  0.661651  0  4.143933  0  0  0.697482  0  4.132615  0  0  0.234024  0.637536  0  4.150937  0
C  C86  1  0.78665035  0.15667982  0.80461086  1  0  -0.081453  0  3.757608  0  0  -0.053521  0  3.986114  0  0  -0.063353  0  4.009026  0  0  -0.018517  -0.048186  0  3.971763  0
C  C87  1  0.21334982  0.84332028  0.19538926  1  0  -0.081441  0  3.757584  0  0  -0.053504  0  3.986092  0  0  -0.063336  0  4.009004  0  0  -0.018506  -0.048169  0  3.971741  0
C  C88  1  0.68202047  0.07942585  0.72205216  1  0  -0.052014  0  3.703797  0  0  -0.077055  0  3.948271  0  0  -0.074138  0  3.966897  0  0  -0.078828  -0.078871  0  3.93631  0
C  C89  1  0.31797970  0.92057425  0.27794795  1  0  -0.051992  0  3.703798  0  0  -0.077033  0  3.948264  0  0  -0.074116  0  3.96689  0  0  -0.078807  -0.078848  0  3.936304  0
C  C90  1  0.61781763  0.14725654  0.66723254  1  0  -0.089588  0  3.768076  0  0  -0.099807  0  4.025409  0  0  -0.104894  0  4.045923  0  0  -0.092473  -0.09643  0  4.010377  0
C  C91  1  0.38218285  0.85274455  0.33276757  1  0  -0.089578  0  3.768019  0  0  -0.099787  0  4.025354  0  0  -0.104871  0  4.045867  0  0  -0.0925  -0.096412  0  4.010322  0
C  C92  1  0.65560155  0.29181887  0.69427925  1  0  -0.053727  0  3.706483  0  0  -0.081711  0  3.957413  0  0  -0.078782  0  3.975161  0  0  -0.077406  -0.082863  0  3.944744  0
C  C93  1  0.34439862  0.70818123  0.30572087  1  0  -0.053814  0  3.70652  0  0  -0.081795  0  3.957443  0  0  -0.078866  0  3.97519  0  0  -0.077419  -0.082948  0  3.944776  0
C  C94  1  0.75794339  0.36930632  0.77781525  1  0  -0.075736  0  3.769725  0  0  -0.047858  0  3.998972  0  0  -0.057458  0  4.021895  0  0  -0.020793  -0.041922  0  3.983597  0
C  C95  1  0.24205679  0.63069378  0.22218487  1  0  -0.075715  0  3.769736  0  0  -0.04784  0  3.998974  0  0  -0.05744  0  4.021899  0  0  -0.020798  -0.041905  0  3.983597  0
C  C96  1  0.82388566  0.30056514  0.83090408  1  0  -0.060403  0  3.701006  0  0  -0.097041  0  3.947641  0  0  -0.093748  0  3.965771  0  0  -0.071122  -0.099442  0  3.93603  0
C  C97  1  0.17611560  0.69943497  0.16909604  1  0  -0.060399  0  3.701014  0  0  -0.097027  0  3.947667  0  0  -0.093732  0  3.965789  0  0  -0.071115  -0.099428  0  3.936054  0
C  C98  1  0.80451555  0.52372873  0.81550267  1  0  0.6391  0  3.927555  0  0  0.593745  0  4.21944  0  0  0.627868  0  4.210925  0  0  0.19587  0.570938  0  4.223891  0
C  C99  1  0.19548463  0.47627137  0.18449745  1  0  0.639135  0  3.927492  0  0  0.593795  0  4.219357  0  0  0.627918  0  4.210839  0  0  0.195892  0.570986  0  4.223806  0
C  C100  1  0.27867963  0.11292659  0.96516406  1  0  0.79738  0  3.798458  0  0  0.766711  0  4.075589  0  0  0.801486  0  4.064419  0  0  0.221124  0.742949  0  4.082134  0
C  C101  1  0.72132073  0.88707420  0.03483532  1  0  0.797381  0  3.798502  0  0  0.766702  0  4.075642  0  0  0.801479  0  4.064473  0  0  0.221159  0.74294  0  4.082186  0
C  C102  1  0.40829577  0.08747109  0.90779140  1  0  -0.441907  0  3.630768  0  0  -0.516053  0  3.859018  0  0  -0.523059  0  3.861663  0  0  -0.239038  -0.511109  0  3.856746  0
C  C103  1  0.59170458  0.91252971  0.09220798  1  0  -0.441926  0  3.630833  0  0  -0.516085  0  3.859093  0  0  -0.523091  0  3.86174  0  0  -0.23907  -0.511141  0  3.856819  0
N  N104  1  0.93641592  0.17507239  0.26512721  1  0  -0.423068  0  3.236958  0  0  -0.376402  0  3.509456  0  0  -0.389539  0  3.526049  0  0  -0.36607  -0.366382  0  3.496039  0
N  N105  1  0.06358414  0.82492741  0.73487218  1  0  -0.423094  0  3.236955  0  0  -0.376432  0  3.509452  0  0  -0.389572  0  3.526046  0  0  -0.366097  -0.366411  0  3.49603  0
N  N106  1  0.82913661  0.29468605  0.14143008  1  0  -0.434818  0  3.259271  0  0  -0.384389  0  3.528689  0  0  -0.399265  0  3.547329  0  0  -0.375347  -0.374495  0  3.515487  0
N  N107  1  0.17086357  0.70531405  0.85857004  1  0  -0.434854  0  3.25919  0  0  -0.384432  0  3.528601  0  0  -0.399306  0  3.547225  0  0  -0.37535  -0.37453  0  3.515405  0
N  N108  1  0.51410914  0.24035907  0.46098167  1  0  -0.440976  0  2.967581  0  0  -0.409181  0  3.239382  0  0  -0.423872  0  3.254538  0  0  -0.335664  -0.401327  0  3.231327  0
N  N109  1  0.48589104  0.75964103  0.53901844  1  0  -0.440985  0  2.967615  0  0  -0.409191  0  3.239423  0  0  -0.423879  0  3.254574  0  0  -0.335679  -0.401336  0  3.231365  0
N  N110  1  0.42025245  0.33466669  0.35703852  1  0  -0.364389  0  3.327825  0  0  -0.306083  0  3.562624  0  0  -0.323241  0  3.574848  0  0  -0.365682  -0.2938  0  3.551319  0
N  N111  1  0.57974761  0.66533312  0.64296087  1  0  -0.364385  0  3.327809  0  0  -0.306022  0  3.562643  0  0  -0.323179  0  3.574874  0  0  -0.365694  -0.293745  0  3.551338  0
O  O112  1  0.94232707  0.17379461  0.94449290  1  0  -0.720478  0  2.099392  0  0  -0.667856  0  2.357391  0  0  -0.693722  0  2.34804  0  0  -0.395873  -0.649488  0  2.362981  0
O  O113  1  0.05767329  0.82620619  0.05550649  1  0  -0.720504  0  2.099369  0  0  -0.667873  0  2.357369  0  0  -0.693745  0  2.348034  0  0  -0.395866  -0.649505  0  2.362959  0
O  O114  1  0.83343611  0.96006488  0.84072325  1  0  -0.722235  0  2.020408  0  0  -0.671422  0  2.274761  0  0  -0.695808  0  2.263434  0  0  -0.38962  -0.654881  0  2.281904  0
O  O115  1  0.16656395  0.03993492  0.15927613  1  0  -0.722225  0  2.020424  0  0  -0.6714  0  2.27477  0  0  -0.695788  0  2.263451  0  0  -0.389606  -0.65486  0  2.281914  0
O  O116  1  0.87113388  0.57697626  0.90259940  1  0  -0.674181  0  2.019128  0  0  -0.626202  0  2.261827  0  0  -0.651096  0  2.254063  0  0  -0.38058  -0.608745  0  2.26649  0
O  O117  1  0.12886521  0.42302383  0.09740072  1  0  -0.674186  0  2.01911  0  0  -0.626205  0  2.261791  0  0  -0.651098  0  2.254028  0  0  -0.380587  -0.608748  0  2.266454  0
O  O118  1  0.78245677  0.60043444  0.76240388  1  0  -0.708201  0  1.954964  0  0  -0.661571  0  2.19768  0  0  -0.685058  0  2.187064  0  0  -0.357168  -0.645331  0  2.20356  0
O  O119  1  0.21754449  0.39956567  0.23759624  1  0  -0.708216  0  1.954936  0  0  -0.661612  0  2.197658  0  0  -0.6851  0  2.187042  0  0  -0.357176  -0.645369  0  2.203535  0
O  O120  1  0.29479113  0.22635774  0.03033325  1  0  -0.690479  0  1.942084  0  0  -0.643534  0  2.170891  0  0  -0.668599  0  2.163094  0  0  -0.372497  -0.625643  0  2.176145  0
O  O121  1  0.70520784  0.77364206  0.96966613  1  0  -0.690489  0  1.942094  0  0  -0.64353  0  2.170895  0  0  -0.668597  0  2.163096  0  0  -0.372512  -0.625642  0  2.176155  0
O  O122  1  0.15169099  0.01689242  0.94742527  1  0  -0.840397  0  2.144058  0  0  -0.780307  0  2.40204  0  0  -0.808239  0  2.392815  0  0  -0.439267  -0.760054  0  2.407285  0
O  O123  1  0.84831016  0.98310740  0.05257412  1  0  -0.840386  0  2.144058  0  0  -0.780292  0  2.402038  0  0  -0.808219  0  2.392805  0  0  -0.439264  -0.760039  0  2.407286  0
