# generated using pymatgen
data_KH7C15(N2O)2
_symmetry_space_group_name_H-M   'P 1'
_cell_length_a   7.20152327
_cell_length_b   12.84724691
_cell_length_c   15.83384472
_cell_angle_alpha   89.99998622
_cell_angle_beta   89.99972555
_cell_angle_gamma   92.33453824
_symmetry_Int_Tables_number   1
_chemical_formula_structural   KH7C15(N2O)2
_chemical_formula_sum   'K4 H28 C60 N16 O8'
_cell_volume   1463.72744552
_cell_formula_units_Z   4
loop_
 _symmetry_equiv_pos_site_id
 _symmetry_equiv_pos_as_xyz
  1  'x, y, z'
loop_
 _atom_site_type_symbol
 _atom_site_label
 _atom_site_symmetry_multiplicity
 _atom_site_fract_x
 _atom_site_fract_y
 _atom_site_fract_z
 _atom_site_occupancy
 _atom_site_hle17_bader_spin_density
 _atom_site_hle17_ddec_charge
 _atom_site_hle17_ddec_spin_density
 _atom_site_hle17_ddec_sum_bond_order
 _atom_site_hle17_magmom
 _atom_site_hse06_10hf_bader_spin_density
 _atom_site_hse06_10hf_ddec_charge
 _atom_site_hse06_10hf_ddec_spin_density
 _atom_site_hse06_10hf_ddec_sum_bond_order
 _atom_site_hse06_10hf_magmom
 _atom_site_hse06_bader_spin_density
 _atom_site_hse06_ddec_charge
 _atom_site_hse06_ddec_spin_density
 _atom_site_hse06_ddec_sum_bond_order
 _atom_site_hse06_magmom
 _atom_site_pbe_bader_spin_density
 _atom_site_pbe_cm5_charge
 _atom_site_pbe_ddec_charge
 _atom_site_pbe_ddec_spin_density
 _atom_site_pbe_ddec_sum_bond_order
 _atom_site_pbe_magmom
K  K0  1  0.92572204  0.98561279  0.27070876  1  0  0.91857  0  0.474493  0  0  0.860275  0  0.67858  0  0  0.874004  0  0.656931  0  0  0.838548  0.850121  0  0.694085  0
K  K1  1  0.57427702  0.01438450  0.77071100  1  0  0.918598  0  0.474472  0  0  0.860297  0  0.678557  0  0  0.874029  0  0.656907  0  0  0.838558  0.850146  0  0.694066  0
K  K2  1  0.07427273  0.01439668  0.72929277  1  0  0.918568  0  0.474494  0  0  0.860263  0  0.678577  0  0  0.873992  0  0.656929  0  0  0.838517  0.85011  0  0.694085  0
K  K3  1  0.42571844  0.98560702  0.22929747  1  0  0.918566  0  0.474496  0  0  0.860278  0  0.67857  0  0  0.874009  0  0.656921  0  0  0.838538  0.850124  0  0.694073  0
H  H4  1  0.58948352  0.69568405  0.21176963  1  0  0.109999  0  0.934209  0  0  0.117575  0  0.997879  0  0  0.120373  0  0.995823  0  0  0.113775  0.11559  0  0.999299  0
H  H5  1  0.91052565  0.30432407  0.71176467  1  0  0.110079  0  0.934034  0  0  0.11766  0  0.997686  0  0  0.120457  0  0.995624  0  0  0.113807  0.115676  0  0.999099  0
H  H6  1  0.41053104  0.30432826  0.78823758  1  0  0.110045  0  0.934056  0  0  0.117642  0  0.997705  0  0  0.120436  0  0.995652  0  0  0.113806  0.115658  0  0.999119  0
H  H7  1  0.08946546  0.69566595  0.28823686  1  0  0.110109  0  0.934  0  0  0.117687  0  0.997651  0  0  0.12048  0  0.995603  0  0  0.11378  0.115701  0  0.999059  0
H  H8  1  0.45781843  0.52709480  0.16226825  1  0  0.120177  0  0.961862  0  0  0.128594  0  1.025676  0  0  0.131821  0  1.024888  0  0  0.10841  0.12631  0  1.026382  0
H  H9  1  0.04219208  0.47291491  0.66227179  1  0  0.120204  0  0.961883  0  0  0.12862  0  1.025684  0  0  0.131862  0  1.024871  0  0  0.108381  0.126338  0  1.026391  0
H  H10  1  0.54220628  0.47292127  0.83772949  1  0  0.120104  0  0.961771  0  0  0.128484  0  1.025619  0  0  0.131727  0  1.02481  0  0  0.108322  0.126201  0  1.026325  0
H  H11  1  0.95779702  0.52706967  0.33772973  1  0  0.120118  0  0.961677  0  0  0.128508  0  1.025533  0  0  0.131751  0  1.02472  0  0  0.108328  0.126228  0  1.026239  0
H  H12  1  0.30220285  0.44599298  0.41899827  1  0  0.112361  0  0.956779  0  0  0.11967  0  1.022563  0  0  0.122689  0  1.021999  0  0  0.104821  0.117528  0  1.023114  0
H  H13  1  0.19778398  0.55401141  0.91900267  1  0  0.1124  0  0.956694  0  0  0.119694  0  1.022537  0  0  0.122713  0  1.021973  0  0  0.104845  0.117561  0  1.023083  0
H  H14  1  0.69780377  0.55401086  0.58099695  1  0  0.112465  0  0.956649  0  0  0.119723  0  1.022515  0  0  0.122743  0  1.021949  0  0  0.104862  0.117588  0  1.023064  0
H  H15  1  0.80220380  0.44598568  0.08099507  1  0  0.112433  0  0.956599  0  0  0.119667  0  1.022507  0  0  0.122687  0  1.021943  0  0  0.104815  0.117532  0  1.023053  0
H  H16  1  0.43374034  0.61666828  0.46846302  1  0  0.090335  0  0.955299  0  0  0.100318  0  1.018656  0  0  0.102375  0  1.017866  0  0  0.102921  0.098825  0  1.019202  0
H  H17  1  0.06624597  0.38333530  0.96846651  1  0  0.09027  0  0.955394  0  0  0.10024  0  1.018783  0  0  0.102295  0  1.017996  0  0  0.102878  0.098755  0  1.019327  0
H  H18  1  0.56625519  0.38333572  0.53153283  1  0  0.090296  0  0.955332  0  0  0.100268  0  1.018719  0  0  0.102327  0  1.017928  0  0  0.102932  0.098791  0  1.019258  0
H  H19  1  0.93373765  0.61666184  0.03153818  1  0  0.090344  0  0.955416  0  0  0.100304  0  1.018804  0  0  0.102362  0  1.018013  0  0  0.102929  0.098819  0  1.019343  0
H  H20  1  0.23383560  0.39723297  0.14059788  1  0  0.083947  0  0.941872  0  0  0.100936  0  1.007786  0  0  0.100471  0  1.008537  0  0  0.097119  0.101254  0  1.007253  0
H  H21  1  0.26619222  0.60276872  0.64060399  1  0  0.083889  0  0.942036  0  0  0.100821  0  1.007998  0  0  0.100356  0  1.008752  0  0  0.09707  0.101147  0  1.007455  0
H  H22  1  0.76618294  0.60277773  0.85939544  1  0  0.08396  0  0.942056  0  0  0.100919  0  1.007986  0  0  0.100455  0  1.008736  0  0  0.097092  0.10124  0  1.007451  0
H  H23  1  0.73381813  0.39721947  0.35939185  1  0  0.083986  0  0.942076  0  0  0.100932  0  1.008021  0  0  0.100468  0  1.00877  0  0  0.097131  0.101257  0  1.007479  0
H  H24  1  0.24598728  0.26688700  0.18168201  1  0  0.107102  0  0.944288  0  0  0.123108  0  1.007538  0  0  0.123325  0  1.007599  0  0  0.110053  0.122921  0  1.007523  0
H  H25  1  0.25405607  0.73311990  0.68168309  1  0  0.107035  0  0.944351  0  0  0.123002  0  1.00762  0  0  0.123223  0  1.007673  0  0  0.109979  0.122826  0  1.007594  0
H  H26  1  0.75403957  0.73312358  0.81831320  1  0  0.1071  0  0.944186  0  0  0.123073  0  1.007471  0  0  0.123294  0  1.007525  0  0  0.109993  0.122891  0  1.007453  0
H  H27  1  0.74595021  0.26686913  0.31831086  1  0  0.107008  0  0.944158  0  0  0.122994  0  1.007446  0  0  0.123212  0  1.007502  0  0  0.109975  0.122815  0  1.007422  0
H  H28  1  0.45587056  0.34297281  0.16113272  1  0  0.089717  0  0.953249  0  0  0.103407  0  1.022768  0  0  0.10336  0  1.0233  0  0  0.100023  0.103423  0  1.022383  0
H  H29  1  0.04417186  0.65703646  0.66112993  1  0  0.089596  0  0.95318  0  0  0.103318  0  1.022641  0  0  0.103273  0  1.023168  0  0  0.099985  0.103343  0  1.022253  0
H  H30  1  0.54416859  0.65703604  0.83885933  1  0  0.089659  0  0.953198  0  0  0.103411  0  1.022638  0  0  0.103366  0  1.023163  0  0  0.100007  0.10343  0  1.022252  0
H  H31  1  0.95583053  0.34295496  0.33886403  1  0  0.089588  0  0.953237  0  0  0.103349  0  1.022679  0  0  0.103297  0  1.023201  0  0  0.099995  0.103373  0  1.022289  0
C  C32  1  0.59526900  0.79805721  0.46336739  1  0  0.033309  0  3.732811  0  0  0.019794  0  3.984877  0  0  0.030849  0  3.999201  0  0  0.030175  0.012991  0  3.974801  0
C  C33  1  0.90474288  0.20194522  0.96336309  1  0  0.033145  0  3.732787  0  0  0.019763  0  3.984687  0  0  0.030818  0  3.999011  0  0  0.030264  0.01294  0  3.974634  0
C  C34  1  0.40472263  0.20194918  0.53663730  1  0  0.033351  0  3.733252  0  0  0.019965  0  3.985195  0  0  0.030989  0  3.999508  0  0  0.030269  0.013158  0  3.975127  0
C  C35  1  0.09526145  0.79805085  0.03663781  1  0  0.033249  0  3.73272  0  0  0.019863  0  3.984732  0  0  0.030924  0  3.999056  0  0  0.030282  0.013031  0  3.974666  0
C  C36  1  0.60628830  0.76633705  0.37062679  1  0  0.38768  0  3.763621  0  0  0.373931  0  4.02522  0  0  0.396154  0  4.028089  0  0  0.163035  0.358558  0  4.023118  0
C  C37  1  0.89372153  0.23366470  0.87062251  1  0  0.387766  0  3.763678  0  0  0.374023  0  4.025175  0  0  0.396238  0  4.028056  0  0  0.163018  0.358654  0  4.023066  0
C  C38  1  0.39369761  0.23366786  0.62937726  1  0  0.387989  0  3.763177  0  0  0.374033  0  4.025031  0  0  0.396252  0  4.027911  0  0  0.163147  0.35866  0  4.022925  0
C  C39  1  0.10627752  0.76633379  0.12937901  1  0  0.387786  0  3.763428  0  0  0.37385  0  4.025246  0  0  0.396061  0  4.028139  0  0  0.163007  0.358486  0  4.023135  0
C  C40  1  0.74734853  0.77722878  0.51497627  1  0  -0.14735  0  3.938104  0  0  -0.132391  0  4.18284  0  0  -0.143483  0  4.200461  0  0  -0.019545  -0.125273  0  4.171136  0
C  C41  1  0.75266146  0.22277167  0.01497202  1  0  -0.147289  0  3.938139  0  0  -0.132404  0  4.182882  0  0  -0.143497  0  4.200505  0  0  -0.01967  -0.125274  0  4.171175  0
C  C42  1  0.25264848  0.22277597  0.48502842  1  0  -0.147505  0  3.938362  0  0  -0.13262  0  4.18313  0  0  -0.143715  0  4.200759  0  0  -0.019669  -0.125506  0  4.171431  0
C  C43  1  0.24734739  0.77722746  0.98502572  1  0  -0.147393  0  3.938195  0  0  -0.132455  0  4.182887  0  0  -0.143548  0  4.200507  0  0  -0.019605  -0.125346  0  4.171214  0
C  C44  1  0.43652419  0.85249406  0.48548288  1  0  -0.164835  0  3.943297  0  0  -0.147984  0  4.185463  0  0  -0.161256  0  4.205259  0  0  -0.022722  -0.139412  0  4.172322  0
C  C45  1  0.06349256  0.14750986  0.98547566  1  0  -0.164663  0  3.943326  0  0  -0.147811  0  4.185384  0  0  -0.161078  0  4.205158  0  0  -0.022662  -0.139228  0  4.172236  0
C  C46  1  0.56347049  0.14751463  0.51452371  1  0  -0.165008  0  3.943731  0  0  -0.14809  0  4.18571  0  0  -0.161268  0  4.205367  0  0  -0.022767  -0.139523  0  4.172584  0
C  C47  1  0.93650585  0.85248317  0.01452461  1  0  -0.164869  0  3.943446  0  0  -0.148041  0  4.185595  0  0  -0.161318  0  4.205379  0  0  -0.022706  -0.139421  0  4.172404  0
C  C48  1  0.29926965  0.87196431  0.42443407  1  0  0.306115  0  3.837019  0  0  0.28992  0  4.108001  0  0  0.301841  0  4.128545  0  0  0.18859  0.281883  0  4.094238  0
C  C49  1  0.20074197  0.12805065  0.92443156  1  0  0.306262  0  3.837105  0  0  0.290044  0  4.108102  0  0  0.301966  0  4.128638  0  0  0.188653  0.282006  0  4.094333  0
C  C50  1  0.70071439  0.12804843  0.57557630  1  0  0.306324  0  3.837451  0  0  0.290098  0  4.108395  0  0  0.301991  0  4.128911  0  0  0.188706  0.282059  0  4.094627  0
C  C51  1  0.79924405  0.87194334  0.07556618  1  0  0.306386  0  3.837098  0  0  0.290182  0  4.108084  0  0  0.302109  0  4.128614  0  0  0.188687  0.282126  0  4.09431  0
C  C52  1  0.39797293  0.89094111  0.56660409  1  0  0.325393  0  3.823753  0  0  0.311467  0  4.087796  0  0  0.325257  0  4.10567  0  0  0.197558  0.30216  0  4.075829  0
C  C53  1  0.10203872  0.10905930  0.06660529  1  0  0.3252  0  3.823426  0  0  0.311258  0  4.087489  0  0  0.32505  0  4.105357  0  0  0.197549  0.301951  0  4.075519  0
C  C54  1  0.60203897  0.10906032  0.43339617  1  0  0.325102  0  3.823747  0  0  0.311163  0  4.087764  0  0  0.324927  0  4.105611  0  0  0.19745  0.301856  0  4.07579  0
C  C55  1  0.89796033  0.89093918  0.93339876  1  0  0.325236  0  3.823246  0  0  0.31131  0  4.087307  0  0  0.325107  0  4.105178  0  0  0.19751  0.301986  0  4.075322  0
C  C56  1  0.77737959  0.82247360  0.59541405  1  0  0.316981  0  3.809479  0  0  0.30225  0  4.077425  0  0  0.316177  0  4.093492  0  0  0.19572  0.292767  0  4.06674  0
C  C57  1  0.72264005  0.17752042  0.09540672  1  0  0.316818  0  3.809378  0  0  0.302094  0  4.07734  0  0  0.316022  0  4.09341  0  0  0.195688  0.292611  0  4.066647  0
C  C58  1  0.22263064  0.17752551  0.40458874  1  0  0.31714  0  3.80953  0  0  0.302434  0  4.077451  0  0  0.316359  0  4.093516  0  0  0.195869  0.292958  0  4.066759  0
C  C59  1  0.27736306  0.82247723  0.90459291  1  0  0.316944  0  3.809706  0  0  0.302218  0  4.077631  0  0  0.316143  0  4.093699  0  0  0.19576  0.292741  0  4.066945  0
C  C60  1  0.88715983  0.71042986  0.48741740  1  0  0.26518  0  3.822371  0  0  0.249113  0  4.097954  0  0  0.259822  0  4.117581  0  0  0.173036  0.24192  0  4.084862  0
C  C61  1  0.61284698  0.28955468  0.98741763  1  0  0.265117  0  3.8219  0  0  0.249046  0  4.097509  0  0  0.259756  0  4.117142  0  0  0.172997  0.24185  0  4.084409  0
C  C62  1  0.11283756  0.28956631  0.51257907  1  0  0.265342  0  3.82201  0  0  0.249282  0  4.09761  0  0  0.259994  0  4.11724  0  0  0.173079  0.242093  0  4.084508  0
C  C63  1  0.38715016  0.71042745  0.01258517  1  0  0.265232  0  3.821753  0  0  0.249164  0  4.097353  0  0  0.259873  0  4.116994  0  0  0.173016  0.241972  0  4.08426  0
C  C64  1  0.52522367  0.66693834  0.34354188  1  0  -0.092584  0  3.824909  0  0  -0.080611  0  4.06754  0  0  -0.09495  0  4.097022  0  0  -0.034485  -0.07116  0  4.047621  0
C  C65  1  0.97477030  0.33306833  0.84353865  1  0  -0.092876  0  3.825079  0  0  -0.080913  0  4.067713  0  0  -0.095249  0  4.097187  0  0  -0.034579  -0.071463  0  4.047795  0
C  C66  1  0.47476926  0.33306725  0.65646217  1  0  -0.092788  0  3.824905  0  0  -0.080762  0  4.067616  0  0  -0.095096  0  4.097088  0  0  -0.034545  -0.071314  0  4.047707  0
C  C67  1  0.02520590  0.66693671  0.15646793  1  0  -0.092582  0  3.824955  0  0  -0.08054  0  4.067589  0  0  -0.094874  0  4.097069  0  0  -0.034556  -0.071094  0  4.047664  0
C  C68  1  0.52826836  0.64030216  0.25705373  1  0  6e-05  0  3.680584  0  0  -0.023035  0  3.930136  0  0  -0.016976  0  3.948793  0  0  -0.060933  -0.026708  0  3.917232  0
C  C69  1  0.97173885  0.35970439  0.75704987  1  0  6.3e-05  0  3.680556  0  0  -0.022994  0  3.930064  0  0  -0.016942  0  3.948725  0  0  -0.060936  -0.026655  0  3.917143  0
C  C70  1  0.47174583  0.35970704  0.74294843  1  0  6e-06  0  3.680613  0  0  -0.023091  0  3.930131  0  0  -0.017042  0  3.9488  0  0  -0.060932  -0.026752  0  3.917209  0
C  C71  1  0.02824099  0.64028422  0.24294787  1  0  -0.000443  0  3.681104  0  0  -0.023506  0  3.930622  0  0  -0.017456  0  3.94929  0  0  -0.061071  -0.027153  0  3.91769  0
C  C72  1  0.45467650  0.54519007  0.22935493  1  0  -0.20616  0  3.731967  0  0  -0.226154  0  3.984844  0  0  -0.236471  0  4.006016  0  0  -0.101905  -0.219322  0  3.970569  0
C  C73  1  0.04533704  0.45481487  0.72935468  1  0  -0.206104  0  3.731619  0  0  -0.226084  0  3.984588  0  0  -0.236442  0  4.005826  0  0  -0.10191  -0.219243  0  3.970279  0
C  C74  1  0.54535249  0.45481503  0.77064218  1  0  -0.205993  0  3.731449  0  0  -0.225911  0  3.984378  0  0  -0.236276  0  4.005621  0  0  -0.101887  -0.219071  0  3.97007  0
C  C75  1  0.95464307  0.54517608  0.27064054  1  0  -0.205721  0  3.731338  0  0  -0.22568  0  3.984307  0  0  -0.23603  0  4.005562  0  0  -0.10175  -0.218824  0  3.969997  0
C  C76  1  0.37687805  0.47414751  0.28862049  1  0  0.305348  0  3.783289  0  0  0.293786  0  4.039561  0  0  0.310648  0  4.052662  0  0  0.104603  0.282341  0  4.030538  0
C  C77  1  0.12313099  0.52585901  0.78862445  1  0  0.305151  0  3.783096  0  0  0.29349  0  4.039559  0  0  0.310346  0  4.052661  0  0  0.104584  0.282089  0  4.030528  0
C  C78  1  0.62314741  0.52586309  0.71137220  1  0  0.305297  0  3.783442  0  0  0.293615  0  4.039845  0  0  0.310485  0  4.052942  0  0  0.104576  0.282163  0  4.030816  0
C  C79  1  0.87685153  0.47412879  0.21137203  1  0  0.305095  0  3.783206  0  0  0.293472  0  4.039676  0  0  0.310309  0  4.05282  0  0  0.104383  0.282046  0  4.030669  0
C  C80  1  0.37000088  0.50052006  0.37499434  1  0  -0.191495  0  3.738107  0  0  -0.212242  0  3.99588  0  0  -0.221043  0  4.014807  0  0  -0.100175  -0.206563  0  3.983208  0
C  C81  1  0.12999113  0.49948975  0.87499955  1  0  -0.191505  0  3.737992  0  0  -0.212235  0  3.995815  0  0  -0.221026  0  4.014727  0  0  -0.100257  -0.206547  0  3.983122  0
C  C82  1  0.63000388  0.49949161  0.62500214  1  0  -0.19161  0  3.738265  0  0  -0.212319  0  3.996112  0  0  -0.221115  0  4.015023  0  0  -0.100258  -0.206633  0  3.983441  0
C  C83  1  0.86999028  0.50050040  0.12500261  1  0  -0.191474  0  3.737899  0  0  -0.212093  0  3.995635  0  0  -0.220884  0  4.014563  0  0  -0.10016  -0.206404  0  3.982945  0
C  C84  1  0.44267559  0.59587886  0.40188411  1  0  -0.031033  0  3.745805  0  0  -0.055563  0  3.998239  0  0  -0.05144  0  4.019396  0  0  -0.073449  -0.057914  0  3.983697  0
C  C85  1  0.05731175  0.40412865  0.90188699  1  0  -0.030808  0  3.745375  0  0  -0.055332  0  3.997767  0  0  -0.051205  0  4.018915  0  0  -0.07328  -0.057681  0  3.983224  0
C  C86  1  0.55730791  0.40412920  0.59811490  1  0  -0.030867  0  3.745465  0  0  -0.055375  0  3.997837  0  0  -0.051248  0  4.018987  0  0  -0.073316  -0.057728  0  3.983298  0
C  C87  1  0.94268028  0.59586915  0.09811454  1  0  -0.030987  0  3.744946  0  0  -0.055485  0  3.997316  0  0  -0.051359  0  4.018465  0  0  -0.073262  -0.057835  0  3.982762  0
C  C88  1  0.31074415  0.34538715  0.18200339  1  0  -0.076906  0  3.596308  0  0  -0.172217  0  3.855267  0  0  -0.164433  0  3.860016  0  0  -0.137147  -0.177364  0  3.851666  0
C  C89  1  0.18929263  0.65462296  0.68200843  1  0  -0.076742  0  3.596415  0  0  -0.171912  0  3.855274  0  0  -0.164127  0  3.860022  0  0  -0.136954  -0.177025  0  3.851668  0
C  C90  1  0.68929157  0.65462799  0.81799056  1  0  -0.076856  0  3.596122  0  0  -0.172145  0  3.855013  0  0  -0.164353  0  3.859755  0  0  -0.137018  -0.177302  0  3.851403  0
C  C91  1  0.81071052  0.34536299  0.31799246  1  0  -0.07684  0  3.596091  0  0  -0.172074  0  3.855009  0  0  -0.164264  0  3.859743  0  0  -0.137063  -0.177197  0  3.851398  0
N  N92  1  0.00268381  0.65350797  0.46772465  1  0  -0.400454  0  2.554069  0  0  -0.375084  0  2.77087  0  0  -0.384774  0  2.784046  0  0  -0.307924  -0.368667  0  2.762114  0
N  N93  1  0.49731712  0.34648995  0.96772262  1  0  -0.40044  0  2.55339  0  0  -0.37506  0  2.770187  0  0  -0.384752  0  2.78337  0  0  -0.307883  -0.368636  0  2.761424  0
N  N94  1  0.99730451  0.34649379  0.53227499  1  0  -0.400582  0  2.553489  0  0  -0.375208  0  2.770285  0  0  -0.384902  0  2.783465  0  0  -0.307936  -0.368784  0  2.761519  0
N  N95  1  0.50269609  0.65349899  0.03227702  1  0  -0.400525  0  2.553348  0  0  -0.375145  0  2.770157  0  0  -0.384841  0  2.783342  0  0  -0.307925  -0.368724  0  2.761394  0
N  N96  1  0.81004140  0.86200015  0.66067927  1  0  -0.485114  0  2.632403  0  0  -0.460823  0  2.869597  0  0  -0.472454  0  2.879179  0  0  -0.394544  -0.452922  0  2.863276  0
N  N97  1  0.68996483  0.13799089  0.16067518  1  0  -0.484958  0  2.632141  0  0  -0.460668  0  2.86934  0  0  -0.472302  0  2.878927  0  0  -0.394494  -0.452763  0  2.863013  0
N  N98  1  0.18996513  0.13800291  0.33932921  1  0  -0.485183  0  2.632609  0  0  -0.460916  0  2.869822  0  0  -0.472546  0  2.879401  0  0  -0.394628  -0.453011  0  2.863497  0
N  N99  1  0.31001537  0.86200084  0.83932761  1  0  -0.485041  0  2.632408  0  0  -0.460783  0  2.869659  0  0  -0.472414  0  2.879241  0  0  -0.394577  -0.452882  0  2.863335  0
N  N100  1  0.35635298  0.92257172  0.63306937  1  0  -0.517468  0  2.679264  0  0  -0.492272  0  2.925388  0  0  -0.504695  0  2.934778  0  0  -0.444157  -0.483857  0  2.919192  0
N  N101  1  0.14365679  0.07742945  0.13307615  1  0  -0.517358  0  2.679127  0  0  -0.492163  0  2.925252  0  0  -0.504585  0  2.934642  0  0  -0.444189  -0.483745  0  2.919052  0
N  N102  1  0.64365780  0.07743206  0.36692837  1  0  -0.51723  0  2.679351  0  0  -0.492042  0  2.925468  0  0  -0.504465  0  2.934868  0  0  -0.444128  -0.483622  0  2.919266  0
N  N103  1  0.85633367  0.92256682  0.86692475  1  0  -0.517375  0  2.678803  0  0  -0.49217  0  2.924901  0  0  -0.504596  0  2.934292  0  0  -0.444184  -0.483751  0  2.918705  0
N  N104  1  0.18547271  0.89065966  0.37442615  1  0  -0.493222  0  2.652666  0  0  -0.469185  0  2.895184  0  0  -0.480847  0  2.906234  0  0  -0.423071  -0.461303  0  2.88787  0
N  N105  1  0.31454788  0.10934507  0.87442903  1  0  -0.493315  0  2.652527  0  0  -0.469284  0  2.895056  0  0  -0.480948  0  2.906105  0  0  -0.42312  -0.461398  0  2.887742  0
N  N106  1  0.81450386  0.10934850  0.62558169  1  0  -0.493307  0  2.653015  0  0  -0.469278  0  2.895527  0  0  -0.480941  0  2.906582  0  0  -0.423137  -0.461385  0  2.888206  0
N  N107  1  0.68546078  0.89065250  0.12557628  1  0  -0.493386  0  2.652647  0  0  -0.469364  0  2.895174  0  0  -0.481026  0  2.906215  0  0  -0.423136  -0.461475  0  2.887857  0
O  O108  1  0.68290513  0.83161896  0.32268256  1  0  -0.526271  0  1.970736  0  0  -0.485087  0  2.194055  0  0  -0.503653  0  2.189832  0  0  -0.338157  -0.471808  0  2.196638  0
O  O109  1  0.81711558  0.16837722  0.82267848  1  0  -0.526274  0  1.97082  0  0  -0.485085  0  2.194066  0  0  -0.503643  0  2.189841  0  0  -0.338123  -0.471817  0  2.19669  0
O  O110  1  0.31707571  0.16837822  0.67732150  1  0  -0.526416  0  1.970514  0  0  -0.485172  0  2.193939  0  0  -0.503735  0  2.189717  0  0  -0.338302  -0.471881  0  2.196519  0
O  O111  1  0.18287802  0.83162213  0.17732558  1  0  -0.526263  0  1.970645  0  0  -0.485029  0  2.194064  0  0  -0.503592  0  2.189847  0  0  -0.338128  -0.47173  0  2.1966  0
O  O112  1  0.30240632  0.37925665  0.26857934  1  0  -0.239444  0  2.346582  0  0  -0.161556  0  2.580704  0  0  -0.182735  0  2.585253  0  0  -0.170213  -0.146452  0  2.576778  0
O  O113  1  0.19761363  0.62074662  0.76858184  1  0  -0.239241  0  2.346509  0  0  -0.161396  0  2.580676  0  0  -0.182571  0  2.585229  0  0  -0.170155  -0.146376  0  2.576797  0
O  O114  1  0.69761619  0.62075244  0.73140956  1  0  -0.239405  0  2.346461  0  0  -0.161468  0  2.580563  0  0  -0.182664  0  2.58513  0  0  -0.170146  -0.14634  0  2.576625  0
O  O115  1  0.80237990  0.37924025  0.23140895  1  0  -0.239142  0  2.346159  0  0  -0.161358  0  2.580366  0  0  -0.182556  0  2.58495  0  0  -0.169975  -0.146311  0  2.576481  0
