# generated using pymatgen
data_ZnH22C25N3O7F
_symmetry_space_group_name_H-M   'P 1'
_cell_length_a   9.78488814
_cell_length_b   10.16903965
_cell_length_c   12.76199676
_cell_angle_alpha   107.42353066
_cell_angle_beta   107.59430901
_cell_angle_gamma   96.31687179
_symmetry_Int_Tables_number   1
_chemical_formula_structural   ZnH22C25N3O7F
_chemical_formula_sum   'Zn2 H44 C50 N6 O14 F2'
_cell_volume   1126.48923127
_cell_formula_units_Z   2
loop_
 _symmetry_equiv_pos_site_id
 _symmetry_equiv_pos_as_xyz
  1  'x, y, z'
loop_
 _atom_site_type_symbol
 _atom_site_label
 _atom_site_symmetry_multiplicity
 _atom_site_fract_x
 _atom_site_fract_y
 _atom_site_fract_z
 _atom_site_occupancy
 _atom_site_hle17_bader_spin_density
 _atom_site_hle17_ddec_charge
 _atom_site_hle17_ddec_spin_density
 _atom_site_hle17_ddec_sum_bond_order
 _atom_site_hle17_magmom
 _atom_site_hse06_10hf_bader_spin_density
 _atom_site_hse06_10hf_ddec_charge
 _atom_site_hse06_10hf_ddec_spin_density
 _atom_site_hse06_10hf_ddec_sum_bond_order
 _atom_site_hse06_10hf_magmom
 _atom_site_hse06_bader_spin_density
 _atom_site_hse06_ddec_charge
 _atom_site_hse06_ddec_spin_density
 _atom_site_hse06_ddec_sum_bond_order
 _atom_site_hse06_magmom
 _atom_site_pbe_bader_spin_density
 _atom_site_pbe_cm5_charge
 _atom_site_pbe_ddec_charge
 _atom_site_pbe_ddec_spin_density
 _atom_site_pbe_ddec_sum_bond_order
 _atom_site_pbe_magmom
Zn  Zn0  1  0.83826676  0.82669876  0.96317402  1  0  1.16724  0  1.719163  0  0  1.006151  0  2.175075  0  0  1.056936  0  2.111733  0  0  0.681619  0.967525  0  2.220892  0
Zn  Zn1  1  0.16175814  0.17332507  0.03682987  1  0  1.167194  0  1.718946  0  0  1.00605  0  2.1748  0  0  1.056846  0  2.111466  0  0  0.681599  0.967411  0  2.220605  0
H  H2  1  0.22975940  0.51596689  0.94514182  1  0  0.291866  0  0.926379  0  0  0.273433  0  0.988499  0  0  0.281952  0  0.982811  0  0  0.298019  0.267401  0  0.992439  0
H  H3  1  0.77024165  0.48403266  0.05485854  1  0  0.291917  0  0.926356  0  0  0.273497  0  0.988493  0  0  0.282016  0  0.982803  0  0  0.298035  0.267465  0  0.992432  0
H  H4  1  0.35716650  0.66425621  0.96115143  1  0  0.300272  0  0.930537  0  0  0.27865  0  0.996544  0  0  0.288842  0  0.989039  0  0  0.295779  0.271525  0  1.001651  0
H  H5  1  0.64283158  0.33574440  0.03884769  1  0  0.300246  0  0.930566  0  0  0.27864  0  0.996584  0  0  0.288836  0  0.989068  0  0  0.295757  0.271515  0  1.001696  0
H  H6  1  0.12389501  0.07296249  0.30922859  1  0  0.145952  0  0.948988  0  0  0.149802  0  1.018469  0  0  0.153324  0  1.015673  0  0  0.116632  0.14717  0  1.020339  0
H  H7  1  0.87610497  0.92703706  0.69077073  1  0  0.145669  0  0.949806  0  0  0.149806  0  1.018462  0  0  0.153327  0  1.015667  0  0  0.116649  0.147177  0  1.02033  0
H  H8  1  0.84745681  0.32548166  0.54414701  1  0  0.120247  0  0.984752  0  0  0.128287  0  1.050508  0  0  0.131595  0  1.049481  0  0  0.111007  0.125987  0  1.051411  0
H  H9  1  0.15254556  0.67451894  0.45585234  1  0  0.120294  0  0.98456  0  0  0.128365  0  1.050325  0  0  0.131673  0  1.049296  0  0  0.111037  0.126061  0  1.051235  0
H  H10  1  0.48844422  0.04613600  0.18816477  1  0  0.117155  0  0.948011  0  0  0.12249  0  1.017263  0  0  0.125979  0  1.012933  0  0  0.132341  0.120234  0  1.019776  0
H  H11  1  0.51155411  0.95386566  0.81183388  1  0  0.117122  0  0.948075  0  0  0.122462  0  1.017314  0  0  0.125941  0  1.01301  0  0  0.132352  0.12021  0  1.019835  0
H  H12  1  0.58747656  0.19861351  0.45877069  1  0  0.056256  0  0.967827  0  0  0.06932  0  1.028751  0  0  0.069366  0  1.029913  0  0  0.108274  0.068927  0  1.028476  0
H  H13  1  0.41252778  0.80138182  0.54123258  1  0  0.056223  0  0.96801  0  0  0.069369  0  1.028639  0  0  0.069416  0  1.029801  0  0  0.108276  0.068977  0  1.028358  0
H  H14  1  0.62708183  0.45962069  0.50900042  1  0  0.111743  0  0.956245  0  0  0.128616  0  1.012015  0  0  0.130323  0  1.011946  0  0  0.099507  0.127297  0  1.012199  0
H  H15  1  0.37292011  0.54037358  0.49100594  1  0  0.111893  0  0.955746  0  0  0.128671  0  1.011918  0  0  0.130374  0  1.011853  0  0  0.099511  0.127347  0  1.012107  0
H  H16  1  0.70019131  0.44779205  0.39082015  1  0  0.108276  0  0.991759  0  0  0.113045  0  1.068055  0  0  0.116309  0  1.066786  0  0  0.093402  0.110814  0  1.068624  0
H  H17  1  0.29980375  0.55220962  0.60918400  1  0  0.108536  0  0.991106  0  0  0.11305  0  1.068131  0  0  0.116311  0  1.066868  0  0  0.093405  0.110817  0  1.0687  0
H  H18  1  0.38309504  0.29570983  0.35366492  1  0  0.123008  0  0.946152  0  0  0.136364  0  1.006214  0  0  0.138915  0  1.00476  0  0  0.101527  0.134526  0  1.007237  0
H  H19  1  0.61690221  0.70428763  0.64634815  1  0  0.122244  0  0.947271  0  0  0.136278  0  1.006303  0  0  0.138828  0  1.004851  0  0  0.101518  0.134439  0  1.007328  0
H  H20  1  0.46230849  0.28608486  0.24015764  1  0  0.132396  0  0.966616  0  0  0.142675  0  1.032696  0  0  0.14553  0  1.031253  0  0  0.105258  0.14047  0  1.034013  0
H  H21  1  0.53768356  0.71391788  0.75985232  1  0  0.132441  0  0.966431  0  0  0.142629  0  1.03271  0  0  0.145478  0  1.031257  0  0  0.10527  0.140423  0  1.034032  0
H  H22  1  0.29990479  0.27069334  0.69592716  1  0  0.085546  0  0.947392  0  0  0.096405  0  1.013479  0  0  0.096974  0  1.013655  0  0  0.108822  0.095982  0  1.013309  0
H  H23  1  0.70009628  0.72930620  0.30406928  1  0  0.084246  0  0.948525  0  0  0.096343  0  1.013538  0  0  0.096912  0  1.013723  0  0  0.10882  0.095925  0  1.013372  0
H  H24  1  0.18036382  0.28133884  0.77790061  1  0  0.08263  0  0.914186  0  0  0.09903  0  0.973386  0  0  0.099231  0  0.974113  0  0  0.107901  0.098966  0  0.972772  0
H  H25  1  0.81963191  0.71866070  0.22209222  1  0  0.082743  0  0.914163  0  0  0.099118  0  0.973396  0  0  0.09933  0  0.974123  0  0  0.107921  0.099053  0  0.972782  0
H  H26  1  0.42425158  0.42759749  0.90477646  1  0  0.08616  0  0.911099  0  0  0.103735  0  0.968236  0  0  0.104154  0  0.968833  0  0  0.118013  0.103313  0  0.968016  0
H  H27  1  0.57574864  0.57240312  0.09522473  1  0  0.08604  0  0.911066  0  0  0.103644  0  0.968237  0  0  0.104061  0  0.968834  0  0  0.117972  0.103224  0  0.968017  0
H  H28  1  0.42619086  0.52278139  0.80816464  1  0  0.085422  0  0.918657  0  0  0.099005  0  0.984279  0  0  0.099879  0  0.983867  0  0  0.114816  0.098167  0  0.984968  0
H  H29  1  0.57380986  0.47722133  0.19183325  1  0  0.085416  0  0.918656  0  0  0.098991  0  0.984326  0  0  0.099864  0  0.983916  0  0  0.114803  0.098153  0  0.985013  0
H  H30  1  0.23113836  0.67474021  0.78225539  1  0  0.073527  0  0.932599  0  0  0.085169  0  1.001321  0  0  0.085636  0  1.002013  0  0  0.109446  0.084826  0  1.000963  0
H  H31  1  0.76886272  0.32525934  0.21774105  1  0  0.073555  0  0.932637  0  0  0.085161  0  1.001382  0  0  0.08563  0  1.002073  0  0  0.109472  0.084819  0  1.001025  0
H  H32  1  0.11319346  0.67872886  0.86469674  1  0  0.110078  0  0.929962  0  0  0.123772  0  0.989062  0  0  0.124834  0  0.989239  0  0  0.120597  0.122813  0  0.989081  0
H  H33  1  0.88680544  0.32127070  0.13530389  1  0  0.110024  0  0.929842  0  0  0.123678  0  0.988972  0  0  0.124741  0  0.989152  0  0  0.12056  0.122719  0  0.988987  0
H  H34  1  0.98879549  0.42874409  0.74804567  1  0  0.069654  0  0.925175  0  0  0.084969  0  0.987376  0  0  0.08455  0  0.988854  0  0  0.103573  0.084967  0  0.986552  0
H  H35  1  0.01120200  0.57125863  0.25195303  1  0  0.069647  0  0.925119  0  0  0.084931  0  0.98739  0  0  0.084512  0  0.988867  0  0  0.103545  0.08493  0  0.986563  0
H  H36  1  0.99144050  0.52494665  0.65255210  1  0  0.083478  0  0.91571  0  0  0.102715  0  0.971648  0  0  0.102588  0  0.972761  0  0  0.114933  0.102773  0  0.970879  0
H  H37  1  0.00856056  0.47505290  0.34744669  1  0  0.083496  0  0.915777  0  0  0.102744  0  0.971704  0  0  0.102617  0  0.972815  0  0  0.114933  0.102802  0  0.970933  0
H  H38  1  0.58248111  0.39402582  0.66433614  1  0  0.098229  0  0.948103  0  0  0.110435  0  1.008371  0  0  0.113468  0  1.006806  0  0  0.103442  0.108202  0  1.009661  0
H  H39  1  0.41751895  0.60596951  0.33566612  1  0  0.097801  0  0.948917  0  0  0.110363  0  1.008402  0  0  0.113397  0  1.006835  0  0  0.103407  0.108131  0  1.009682  0
H  H40  1  0.50674667  0.13032063  0.57383769  1  0  0.082789  0  0.967237  0  0  0.091873  0  1.030134  0  0  0.095253  0  1.028204  0  0  0.09382  0.089456  0  1.031654  0
H  H41  1  0.49325282  0.86967681  0.42616258  1  0  0.082006  0  0.968642  0  0  0.091909  0  1.030155  0  0  0.095284  0  1.028224  0  0  0.093844  0.089497  0  1.031668  0
H  H42  1  0.63225887  0.98149975  0.67865444  1  0  0.089096  0  0.973003  0  0  0.095853  0  1.044957  0  0  0.098918  0  1.042783  0  0  0.100594  0.093699  0  1.046378  0
H  H43  1  0.36774145  0.01849663  0.32134577  1  0  0.089296  0  0.972515  0  0  0.095913  0  1.044925  0  0  0.098977  0  1.042751  0  0  0.100601  0.093762  0  1.046345  0
H  H44  1  0.90549208  0.35389530  0.96161811  1  0  0.104369  0  0.974985  0  0  0.110366  0  1.044385  0  0  0.114096  0  1.041713  0  0  0.107294  0.107506  0  1.046597  0
H  H45  1  0.09451037  0.64610108  0.03838340  1  0  0.104325  0  0.97505  0  0  0.110333  0  1.044457  0  0  0.114082  0  1.041765  0  0  0.107275  0.107466  0  1.046677  0
C  C46  1  0.57485277  0.85268837  0.04532113  1  0  0.676824  0  3.909215  0  0  0.628346  0  4.204442  0  0  0.664195  0  4.196366  0  0  0.205323  0.604077  0  4.209371  0
C  C47  1  0.42514173  0.14730589  0.95467173  1  0  0.676905  0  3.909188  0  0  0.628484  0  4.204314  0  0  0.664333  0  4.196237  0  0  0.205319  0.604202  0  4.209257  0
C  C48  1  0.67370707  0.97347024  0.15313063  1  0  -0.269692  0  3.729985  0  0  -0.255326  0  3.992103  0  0  -0.275617  0  4.010409  0  0  -0.043031  -0.241965  0  3.979663  0
C  C49  1  0.32629707  0.02653354  0.84687459  1  0  -0.269751  0  3.730095  0  0  -0.255382  0  3.99219  0  0  -0.275668  0  4.010485  0  0  -0.043064  -0.242016  0  3.97975  0
C  C50  1  0.83111900  0.99529018  0.19512576  1  0  0.399685  0  3.823791  0  0  0.366627  0  4.094308  0  0  0.394597  0  4.098188  0  0  0.125562  0.348112  0  4.090794  0
C  C51  1  0.16887097  0.00471254  0.80487430  1  0  0.399876  0  3.823416  0  0  0.366756  0  4.094082  0  0  0.394724  0  4.097965  0  0  0.125705  0.348239  0  4.090565  0
C  C52  1  0.90903516  0.10120545  0.31139285  1  0  -0.089651  0  3.765458  0  0  -0.074961  0  4.007904  0  0  -0.086003  0  4.031029  0  0  -0.021031  -0.068051  0  3.992668  0
C  C53  1  0.09096322  0.89880571  0.68860570  1  0  -0.089859  0  3.765384  0  0  -0.075152  0  4.007934  0  0  -0.086195  0  4.031062  0  0  -0.021063  -0.068241  0  3.992688  0
C  C54  1  0.06331738  0.12614703  0.36163075  1  0  -0.152275  0  3.729324  0  0  -0.190732  0  3.987289  0  0  -0.187301  0  4.001926  0  0  -0.088996  -0.192458  0  3.977106  0
C  C55  1  0.93668509  0.87384935  0.63836840  1  0  -0.153556  0  3.732975  0  0  -0.190629  0  3.987188  0  0  -0.187195  0  4.001824  0  0  -0.088965  -0.192362  0  3.977011  0
C  C56  1  0.13526988  0.22025190  0.47338696  1  0  0.202431  0  3.758585  0  0  0.187446  0  4.045128  0  0  0.191708  0  4.056148  0  0  0.090334  0.183657  0  4.037787  0
C  C57  1  0.86473241  0.77973920  0.52661560  1  0  0.198182  0  3.762335  0  0  0.187532  0  4.04517  0  0  0.191794  0  4.056189  0  0  0.090394  0.183744  0  4.037838  0
C  C58  1  0.06188929  0.29479850  0.54503403  1  0  0.127226  0  3.835021  0  0  0.108751  0  4.096025  0  0  0.119273  0  4.11507  0  0  0.095969  0.10182  0  4.083144  0
C  C59  1  0.93811245  0.70520423  0.45497351  1  0  0.126228  0  3.837531  0  0  0.108716  0  4.095789  0  0  0.119234  0  4.114839  0  0  0.09588  0.101778  0  4.082922  0
C  C60  1  0.90920007  0.27261255  0.49317243  1  0  -0.252905  0  3.72454  0  0  -0.280767  0  3.988375  0  0  -0.288458  0  4.006224  0  0  -0.107353  -0.276457  0  3.977  0
C  C61  1  0.09080102  0.72738278  0.50683556  1  0  -0.252988  0  3.724566  0  0  -0.280905  0  3.988496  0  0  -0.288592  0  4.006346  0  0  -0.107434  -0.276595  0  3.97712  0
C  C62  1  0.83349738  0.17960810  0.37746757  1  0  0.179209  0  3.782208  0  0  0.159641  0  4.032032  0  0  0.170377  0  4.052416  0  0  0.101974  0.15255  0  4.018633  0
C  C63  1  0.16649572  0.82038933  0.62252414  1  0  0.179307  0  3.781961  0  0  0.159773  0  4.031952  0  0  0.170506  0  4.052336  0  0  0.102029  0.15269  0  4.018542  0
C  C64  1  0.60736887  0.05868862  0.21984030  1  0  0.131282  0  3.623259  0  0  0.071879  0  3.885747  0  0  0.090333  0  3.895583  0  0  0.065745  0.059403  0  3.879382  0
C  C65  1  0.39262858  0.94131411  0.78016545  1  0  0.131258  0  3.623409  0  0  0.071879  0  3.885896  0  0  0.090333  0  3.895724  0  0  0.065751  0.05939  0  3.879542  0
C  C66  1  0.60142361  0.23981096  0.39212177  1  0  0.088335  0  3.6742  0  0  0.061606  0  3.937725  0  0  0.064914  0  3.954353  0  0  -0.004088  0.059587  0  3.9266  0
C  C67  1  0.39857716  0.76018754  0.60788375  1  0  0.088063  0  3.674478  0  0  0.061506  0  3.937721  0  0  0.064812  0  3.954346  0  0  -0.004084  0.059489  0  3.926592  0
C  C68  1  0.62446377  0.39747831  0.42215293  1  0  -0.234369  0  3.661453  0  0  -0.277127  0  3.925216  0  0  -0.280041  0  3.936468  0  0  -0.185627  -0.274907  0  3.917561  0
C  C69  1  0.37553484  0.60252020  0.57785522  1  0  -0.234075  0  3.660537  0  0  -0.277256  0  3.925319  0  0  -0.280171  0  3.936574  0  0  -0.185695  -0.275033  0  3.917665  0
C  C70  1  0.48231538  0.30118648  0.33209408  1  0  -0.213828  0  3.647197  0  0  -0.26301  0  3.91566  0  0  -0.264858  0  3.926224  0  0  -0.178081  -0.261896  0  3.909072  0
C  C71  1  0.51768156  0.69881414  0.66791340  1  0  -0.213935  0  3.648169  0  0  -0.262865  0  3.915776  0  0  -0.264693  0  3.926323  0  0  -0.178073  -0.261751  0  3.909194  0
C  C72  1  0.24259039  0.34110748  0.74100629  1  0  -0.02816  0  3.628773  0  0  -0.088291  0  3.894455  0  0  -0.084345  0  3.90526  0  0  -0.062225  -0.090837  0  3.886821  0
C  C73  1  0.75741480  0.65890051  0.25898842  1  0  -0.028883  0  3.631064  0  0  -0.088404  0  3.894921  0  0  -0.084483  0  3.905761  0  0  -0.062312  -0.090948  0  3.887284  0
C  C74  1  0.35525973  0.46570662  0.83990492  1  0  0.025688  0  3.548971  0  0  -0.03743  0  3.816664  0  0  -0.032755  0  3.825177  0  0  -0.056745  -0.040622  0  3.811224  0
C  C75  1  0.64474512  0.53429081  0.16009583  1  0  0.025744  0  3.549118  0  0  -0.037358  0  3.816903  0  0  -0.032676  0  3.825421  0  0  -0.056705  -0.040552  0  3.811457  0
C  C76  1  0.16962935  0.61072048  0.81575914  1  0  0.013658  0  3.538336  0  0  -0.045537  0  3.799673  0  0  -0.04183  0  3.809351  0  0  -0.059474  -0.0479  0  3.793181  0
C  C77  1  0.83036740  0.38927908  0.18424177  1  0  0.01365  0  3.53824  0  0  -0.045436  0  3.799584  0  0  -0.041731  0  3.809261  0  0  -0.05949  -0.047803  0  3.793093  0
C  C78  1  0.06101539  0.48478113  0.71565965  1  0  -0.017879  0  3.650514  0  0  -0.07665  0  3.912808  0  0  -0.072305  0  3.924187  0  0  -0.058962  -0.079411  0  3.904947  0
C  C79  1  0.93899279  0.51521207  0.28434009  1  0  -0.01783  0  3.650254  0  0  -0.076581  0  3.912499  0  0  -0.072228  0  3.923868  0  0  -0.058947  -0.079338  0  3.904636  0
C  C80  1  0.74998683  0.39099384  0.81873824  1  0  -0.079749  0  3.786474  0  0  -0.052356  0  4.020859  0  0  -0.060345  0  4.042094  0  0  -0.022432  -0.047414  0  4.007115  0
C  C81  1  0.25001290  0.60900465  0.18126156  1  0  -0.079576  0  3.786232  0  0  -0.052216  0  4.020741  0  0  -0.060205  0  4.041986  0  0  -0.022397  -0.047294  0  4.007027  0
C  C82  1  0.63836347  0.32775610  0.70829447  1  0  -0.068847  0  3.725546  0  0  -0.097586  0  3.978713  0  0  -0.095197  0  3.996986  0  0  -0.08644  -0.098829  0  3.966393  0
C  C83  1  0.36163279  0.67224134  0.29170583  1  0  -0.0691  0  3.726347  0  0  -0.097483  0  3.978563  0  0  -0.095095  0  3.996833  0  0  -0.086394  -0.098716  0  3.966236  0
C  C84  1  0.59698132  0.18032598  0.65784701  1  0  -0.093837  0  3.791176  0  0  -0.105719  0  4.051067  0  0  -0.109898  0  4.071817  0  0  -0.100603  -0.103074  0  4.036877  0
C  C85  1  0.40301722  0.81967674  0.34215585  1  0  -0.094421  0  3.792788  0  0  -0.105868  0  4.051216  0  0  -0.110038  0  4.071956  0  0  -0.100668  -0.103223  0  4.037019  0
C  C86  1  0.66569423  0.09632987  0.71657056  1  0  -0.063275  0  3.72969  0  0  -0.091316  0  3.980814  0  0  -0.089502  0  3.999755  0  0  -0.083286  -0.091721  0  3.967506  0
C  C87  1  0.33430893  0.90366969  0.28343499  1  0  -0.063195  0  3.72957  0  0  -0.091329  0  3.980941  0  0  -0.089517  0  3.999883  0  0  -0.083304  -0.091737  0  3.967636  0
C  C88  1  0.77547765  0.15936802  0.82777862  1  0  -0.04977  0  3.739409  0  0  -0.023689  0  3.971637  0  0  -0.031236  0  3.991292  0  0  -0.013211  -0.019004  0  3.958111  0
C  C89  1  0.22452590  0.84063787  0.17222696  1  0  -0.049871  0  3.738956  0  0  -0.023736  0  3.971106  0  0  -0.031288  0  3.990769  0  0  -0.013155  -0.019045  0  3.957577  0
C  C90  1  0.81820507  0.30586818  0.87642813  1  0  -0.063121  0  3.700667  0  0  -0.100208  0  3.94629  0  0  -0.097082  0  3.963299  0  0  -0.078324  -0.102047  0  3.935361  0
C  C91  1  0.18179281  0.69411764  0.12357135  1  0  -0.063111  0  3.700336  0  0  -0.10024  0  3.946034  0  0  -0.097136  0  3.96304  0  0  -0.078382  -0.102079  0  3.935134  0
C  C92  1  0.79309848  0.54706145  0.88356808  1  0  0.63003  0  3.921851  0  0  0.579215  0  4.215553  0  0  0.613101  0  4.20875  0  0  0.201287  0.556171  0  4.219554  0
C  C93  1  0.20689990  0.45292648  0.11642889  1  0  0.629985  0  3.922086  0  0  0.579191  0  4.215799  0  0  0.613073  0  4.208993  0  0  0.201287  0.556144  0  4.219811  0
C  C94  1  0.83715481  0.07565470  0.90247223  1  0  0.682838  0  3.868059  0  0  0.623888  0  4.168587  0  0  0.660762  0  4.157637  0  0  0.218643  0.599267  0  4.17367  0
C  C95  1  0.16285428  0.92435647  0.09753042  1  0  0.682751  0  3.868001  0  0  0.62388  0  4.168342  0  0  0.660758  0  4.1574  0  0  0.218675  0.599254  0  4.173423  0
N  N96  1  0.28002881  0.56643857  0.89963390  1  0  -0.317197  0  3.30508  0  0  -0.252401  0  3.524492  0  0  -0.26797  0  3.532241  0  0  -0.48417  -0.241673  0  3.519096  0
N  N97  1  0.71996248  0.43356521  0.10036594  1  0  -0.317171  0  3.30507  0  0  -0.252476  0  3.524637  0  0  -0.268036  0  3.532373  0  0  -0.484179  -0.241758  0  3.519259  0
N  N98  1  0.13987286  0.39038499  0.65779514  1  0  -0.201759  0  3.337463  0  0  -0.121173  0  3.583017  0  0  -0.139864  0  3.604564  0  0  -0.299949  -0.107998  0  3.567402  0
N  N99  1  0.86010949  0.60962617  0.34219258  1  0  -0.202354  0  3.338802  0  0  -0.121168  0  3.582743  0  0  -0.139859  0  3.604293  0  0  -0.299837  -0.108002  0  3.567136  0
N  N100  1  0.68162497  0.16051749  0.32596807  1  0  -0.112986  0  3.525308  0  0  -0.021943  0  3.741493  0  0  -0.03988  0  3.764488  0  0  -0.229538  -0.01063  0  3.726198  0
N  N101  1  0.31837563  0.83948946  0.67403471  1  0  -0.112823  0  3.525074  0  0  -0.021842  0  3.741264  0  0  -0.039778  0  3.764258  0  0  -0.229527  -0.01053  0  3.725969  0
O  O102  1  0.44396197  0.81666496  0.04082760  1  0  -0.608402  0  1.969228  0  0  -0.561756  0  2.196289  0  0  -0.588413  0  2.191279  0  0  -0.323576  -0.54343  0  2.198781  0
O  O103  1  0.55603924  0.18333987  0.95917169  1  0  -0.608415  0  1.969072  0  0  -0.561813  0  2.196127  0  0  -0.58846  0  2.191098  0  0  -0.323567  -0.543488  0  2.198625  0
O  O104  1  0.62372975  0.78876560  0.96662431  1  0  -0.658649  0  2.041351  0  0  -0.600091  0  2.30793  0  0  -0.627327  0  2.29368  0  0  -0.326588  -0.580919  0  2.317461  0
O  O105  1  0.37627500  0.21123606  0.03337741  1  0  -0.658655  0  2.04125  0  0  -0.600126  0  2.307829  0  0  -0.627367  0  2.293575  0  0  -0.326607  -0.580957  0  2.31737  0
O  O106  1  0.90490648  0.92532065  0.14137714  1  0  -0.559599  0  2.126928  0  0  -0.496906  0  2.393729  0  0  -0.524128  0  2.383654  0  0  -0.291804  -0.478007  0  2.399563  0
O  O107  1  0.09508013  0.07467679  0.85862088  1  0  -0.559693  0  2.127032  0  0  -0.496938  0  2.393784  0  0  -0.524155  0  2.383712  0  0  -0.291867  -0.478045  0  2.399625  0
O  O108  1  0.79117157  0.63206738  0.82737950  1  0  -0.617009  0  1.967735  0  0  -0.550517  0  2.212187  0  0  -0.578435  0  2.200881  0  0  -0.314131  -0.530185  0  2.219845  0
O  O109  1  0.20882046  0.36793004  0.17261117  1  0  -0.616896  0  1.96835  0  0  -0.550358  0  2.212786  0  0  -0.578272  0  2.201477  0  0  -0.314037  -0.530024  0  2.220439  0
O  O110  1  0.83110143  0.58969794  0.99508985  1  0  -0.627324  0  1.993895  0  0  -0.57392  0  2.22955  0  0  -0.599426  0  2.221093  0  0  -0.315271  -0.555482  0  2.234247  0
O  O111  1  0.16889777  0.41029845  0.00491559  1  0  -0.627324  0  1.993919  0  0  -0.573995  0  2.229685  0  0  -0.599496  0  2.221226  0  0  -0.315329  -0.55554  0  2.234351  0
O  O112  1  0.78083608  0.94310977  0.86026417  1  0  -0.633818  0  2.055543  0  0  -0.559751  0  2.322705  0  0  -0.589081  0  2.308373  0  0  -0.306463  -0.538569  0  2.331311  0
O  O113  1  0.21918162  0.05688347  0.13975664  1  0  -0.633687  0  2.055609  0  0  -0.55967  0  2.322769  0  0  -0.589002  0  2.308451  0  0  -0.306342  -0.538472  0  2.33135  0
O  O114  1  0.93359698  0.14061632  0.00399915  1  0  -0.660984  0  2.051764  0  0  -0.599949  0  2.320027  0  0  -0.625902  0  2.30394  0  0  -0.323608  -0.580918  0  2.32958  0
O  O115  1  0.06638874  0.85938639  0.99599442  1  0  -0.66102  0  2.051403  0  0  -0.600091  0  2.319798  0  0  -0.625994  0  2.303589  0  0  -0.323742  -0.581055  0  2.329357  0
F  F116  1  0.28626506  0.24740262  0.51708361  1  0  -0.208685  0  1.233334  0  0  -0.140396  0  1.385314  0  0  -0.150699  0  1.37759  0  0  -0.086448  -0.132715  0  1.390542  0
F  F117  1  0.71373755  0.75259904  0.48291605  1  0  -0.194956  0  1.218074  0  0  -0.140393  0  1.385294  0  0  -0.150697  0  1.377567  0  0  -0.086437  -0.132719  0  1.390527  0
