# generated using pymatgen
data_Ni3H32C24(N3O5)2
_symmetry_space_group_name_H-M   'P 1'
_cell_length_a   9.19725433
_cell_length_b   11.68503442
_cell_length_c   11.99178476
_cell_angle_alpha   104.78773829
_cell_angle_beta   112.35231078
_cell_angle_gamma   94.19012883
_symmetry_Int_Tables_number   1
_chemical_formula_structural   Ni3H32C24(N3O5)2
_chemical_formula_sum   'Ni3 H32 C24 N6 O10'
_cell_volume   1131.39692868
_cell_formula_units_Z   1
loop_
 _symmetry_equiv_pos_site_id
 _symmetry_equiv_pos_as_xyz
  1  'x, y, z'
loop_
 _atom_site_type_symbol
 _atom_site_label
 _atom_site_symmetry_multiplicity
 _atom_site_fract_x
 _atom_site_fract_y
 _atom_site_fract_z
 _atom_site_occupancy
 _atom_site_pbe_bader_charge
 _atom_site_pbe_bader_spin_density
 _atom_site_pbe_cm5_charge
 _atom_site_pbe_ddec_charge
 _atom_site_pbe_ddec_spin_density
 _atom_site_pbe_ddec_sum_bond_order
 _atom_site_pbe_magmom
Ni  Ni0  1  0.51111289  0.09932493  0.44384088  1  1.19745  -1.531512  0.665787  0.845041  -1.71689  2.530276  -1.517
Ni  Ni1  1  0.52109949  0.88716203  0.55327909  1  0.966961  -0.067421  0.582946  0.557345  -0.074999  2.822312  -0.067
Ni  Ni2  1  0.50183366  0.49531806  0.50002235  1  0.895053  -0.004224  0.595569  0.424536  -0.004047  3.023144  -0.004
H  H3  1  0.50715631  0.01263481  0.79264626  1  0.098661  -0.000162  0.098948  0.124405  -9.2e-05  1.060313  0.0
H  H4  1  0.49345611  0.97328638  0.20553676  1  0.139976  7.3e-05  0.100528  0.126329  0.000346  1.066659  0.0
H  H5  1  0.48276310  0.14828109  0.97679484  1  0.069175  -0.000445  0.097094  0.09185  -0.00017  1.008392  0.0
H  H6  1  0.48455051  0.83501636  0.00850644  1  0.049517  4.8e-05  0.099127  0.094408  3.2e-05  1.006852  0.0
H  H7  1  0.48448990  0.36833701  0.99639833  1  0.049189  -8.5e-05  0.090527  0.089569  -4.6e-05  1.046656  0.0
H  H8  1  0.47854013  0.61394256  0.98351371  1  0.052936  9e-06  0.093303  0.09502  2.6e-05  1.035918  0.0
H  H9  1  0.50653293  0.44302022  0.82622585  1  0.05882  7.3e-05  0.096684  0.098129  5.6e-05  1.040317  0.0
H  H10  1  0.47788112  0.53772951  0.15911027  1  0.087224  -0.000291  0.100371  0.100097  -0.000141  1.040401  0.0
H  H11  1  0.53720893  0.34404711  0.19132481  1  0.045814  0.000172  0.100615  0.147524  0.000219  0.988713  0.0
H  H12  1  0.45092643  0.68233878  0.80908876  1  0.069688  8.5e-05  0.103606  0.150775  7.6e-05  0.983912  0.0
H  H13  1  0.35791002  0.38024579  0.20063976  1  0.099843  -0.001357  0.1033  0.162534  -0.000554  1.010419  -0.001
H  H14  1  0.60756594  0.60874510  0.79379735  1  0.096697  -0.000164  0.106019  0.169569  -0.000102  1.022912  0.0
H  H15  1  0.35943145  0.23211264  0.10926335  1  0.067496  -0.000175  0.10186  0.154171  -6.5e-05  0.986701  0.0
H  H16  1  0.65072348  0.76476915  0.88824955  1  0.074988  -7.5e-05  0.104771  0.15766  -3.1e-05  0.975658  0.0
H  H17  1  0.77769167  0.23569689  0.40607846  1  0.081582  -0.002421  0.125177  0.05109  -0.000838  1.003599  -0.001
H  H18  1  0.20699136  0.77577079  0.58284953  1  0.06564  -0.000101  0.118639  0.040728  -3.3e-05  0.990248  0.0
H  H19  1  0.03724396  0.11627638  0.64784073  1  0.123619  -0.000306  0.113875  0.148074  -0.000204  1.018307  0.0
H  H20  1  0.94459899  0.91103306  0.36776783  1  0.05173  -0.000338  0.107955  0.122691  -0.00025  1.005101  0.0
H  H21  1  0.19181232  0.24379922  0.69716796  1  0.083503  9.3e-05  0.103174  0.120543  0.000113  1.010621  0.0
H  H22  1  0.79093705  0.77898838  0.30128875  1  0.085336  -1.1e-05  0.099434  0.113581  2e-06  1.017753  0.0
H  H23  1  0.17461965  0.11270044  0.57486360  1  0.057045  -7e-06  0.107086  0.131092  7.7e-05  1.008835  0.0
H  H24  1  0.80310737  0.89738818  0.43490685  1  0.098884  -1.1e-05  0.106665  0.127594  3e-05  1.023136  0.0
H  H25  1  0.98853645  0.33028167  0.40701927  1  0.065077  -0.000162  0.109722  0.118334  -7e-05  0.993035  0.0
H  H26  1  0.00267031  0.67655056  0.58544131  1  0.040709  -1e-06  0.107764  0.114241  -1e-06  0.993316  0.0
H  H27  1  0.14790554  0.24665437  0.42915331  1  0.106346  1.5e-05  0.10745  0.136553  8.2e-05  0.999858  0.0
H  H28  1  0.84687396  0.76190717  0.57662883  1  0.085771  1.8e-05  0.104695  0.125812  3.3e-05  1.01251  0.0
H  H29  1  0.16175931  0.37394915  0.55473890  1  0.067849  -0.000186  0.106664  0.123911  -5.6e-05  0.987729  0.0
H  H30  1  0.82160991  0.63643006  0.44398061  1  0.062968  1e-06  0.102362  0.118511  7e-06  0.994581  0.0
H  H31  1  0.22534983  0.98678401  0.40236621  1  0.666325  -4.7e-05  0.298159  0.393737  -0.000179  0.947464  0.0
H  H32  1  0.82648820  0.03841435  0.64164637  1  0.60781  -2e-05  0.281245  0.363338  4.6e-05  0.984756  0.0
H  H33  1  0.22031636  0.01424477  0.27859858  1  0.650198  -0.000373  0.326091  0.401721  -0.000159  0.870109  0.0
H  H34  1  0.81133027  0.97724524  0.73710196  1  0.590693  -5e-06  0.291395  0.373369  3.3e-05  0.941871  0.0
C  C35  1  0.52235641  0.14801673  0.70382702  1  0.523393  -0.000675  0.090178  0.31853  0.000136  4.021935  -0.001
C  C36  1  0.49039004  0.83539514  0.29503371  1  0.53398  -0.001867  0.087092  0.306545  -0.000976  4.056385  -0.002
C  C37  1  0.50803335  0.10758228  0.80131242  1  -0.004185  -0.003962  -0.118552  -0.226617  -0.002438  3.97833  -0.003
C  C38  1  0.48839021  0.87736712  0.19407634  1  -0.023988  0.001078  -0.117696  -0.232078  0.001529  3.980903  0.001
C  C39  1  0.49462797  0.18458300  0.90469061  1  -0.0845  0.001743  -0.0957  -0.055104  0.002241  4.066313  0.001
C  C40  1  0.48397380  0.79892760  0.08379695  1  -0.09998  0.000339  -0.096907  -0.059951  0.000301  4.064108  0.0
C  C41  1  0.49579280  0.30700322  0.91610986  1  -0.040696  -0.000661  -0.122344  -0.146997  -0.000272  4.105568  -0.001
C  C42  1  0.48025011  0.67552678  0.06940856  1  -0.068642  0.000762  -0.11827  -0.143204  0.000853  4.091871  0.0
C  C43  1  0.50868918  0.34887584  0.82138669  1  -0.034657  0.002149  -0.100232  -0.104398  0.002367  4.04508  0.001
C  C44  1  0.47961075  0.63270000  0.16687572  1  -0.020589  -0.000483  -0.094707  -0.09095  -0.000225  4.01984  0.0
C  C45  1  0.52027355  0.27319348  0.71388959  1  -0.005628  -0.001066  -0.031831  -0.143889  8e-06  3.957107  -0.001
C  C46  1  0.48452205  0.71009787  0.28032660  1  -0.00594  -0.000996  -0.034562  -0.146803  -0.000501  4.007293  -0.001
C  C47  1  0.51751737  0.32941654  0.61692886  1  1.230945  0.005709  0.208381  0.405795  0.007181  4.124116  0.003
C  C48  1  0.49290928  0.65905900  0.38049850  1  1.231536  0.000637  0.209434  0.398296  0.000793  4.12723  0.0
C  C49  1  0.46490704  0.26131491  0.30646740  1  1.269225  0.001771  0.217236  0.514536  0.002689  4.04149  0.003
C  C50  1  0.54670430  0.73531939  0.69017458  1  1.227162  0.000636  0.21956  0.500522  0.000882  4.025516  0.001
C  C51  1  0.42607731  0.30790182  0.19539218  1  -0.069076  -0.00493  -0.238642  -0.489672  -0.003072  3.922253  -0.004
C  C52  1  0.56669801  0.69475961  0.80221415  1  -0.078244  -0.000448  -0.234153  -0.491379  -0.000267  3.916932  0.0
C  C53  1  0.84182253  0.19190595  0.47685531  1  1.380446  0.001123  0.179778  0.294994  0.001331  4.080065  0.001
C  C54  1  0.13859207  0.82172512  0.51522771  1  1.379152  8e-05  0.178782  0.310463  8.9e-05  4.125567  0.0
C  C55  1  0.10653636  0.16954720  0.61583874  1  0.239445  -0.000485  -0.13609  -0.275636  -0.000299  3.836122  0.0
C  C56  1  0.87297940  0.84815659  0.38934972  1  0.243549  -7.8e-05  -0.137344  -0.267973  -6.4e-05  3.873599  0.0
C  C57  1  0.07886276  0.29696618  0.47517012  1  0.231911  -0.00125  -0.128052  -0.282692  -0.000756  3.907842  -0.001
C  C58  1  0.90846388  0.71215070  0.52287929  1  0.277424  -7e-06  -0.129721  -0.274003  4e-06  3.915208  0.0
N  N59  1  0.51102577  0.26642489  0.50722326  1  -0.840786  -0.081862  -0.312205  -0.321884  -0.046783  3.673743  -0.071
N  N60  1  0.50788010  0.72689450  0.49248330  1  -0.801765  -0.00401  -0.315887  -0.262344  -0.002198  3.719206  -0.003
N  N61  1  0.48792154  0.33208586  0.42139177  1  -0.794301  -0.002997  -0.302338  -0.258835  -0.000591  3.609052  -0.001
N  N62  1  0.52174675  0.66063305  0.57814419  1  -0.799235  -0.000545  -0.300047  -0.26231  -0.000158  3.587132  0.0
N  N63  1  0.00086998  0.21858310  0.52147408  1  -1.214268  -0.002697  -0.272373  0.044312  -0.00099  3.714376  -0.002
N  N64  1  0.97994300  0.79264411  0.47521463  1  -1.186989  -2.1e-05  -0.280666  0.03372  -3e-06  3.722605  0.0
O  O65  1  0.53707779  0.06898588  0.60747157  1  -1.100406  -0.052342  -0.324418  -0.492927  -0.029788  2.546745  -0.048
O  O66  1  0.50284931  0.91590729  0.40170118  1  -1.085743  -0.024388  -0.322882  -0.48011  -0.013849  2.676945  -0.023
O  O67  1  0.47506338  0.14877830  0.28719336  1  -1.127901  -0.077748  -0.316921  -0.53715  -0.042507  2.310811  -0.072
O  O68  1  0.55232360  0.85062849  0.70369957  1  -1.060999  -0.004844  -0.298118  -0.460348  -0.002675  2.378902  -0.004
O  O69  1  0.51211127  0.44529862  0.63721152  1  -1.064507  -0.008361  -0.312629  -0.45217  -0.003794  2.447593  -0.008
O  O70  1  0.49034674  0.54344370  0.36209814  1  -1.063235  -6e-05  -0.302411  -0.433754  0.000209  2.486101  0.0
O  O71  1  0.25046599  0.05201502  0.36858953  1  -1.266458  -0.063494  -0.557173  -0.737325  -0.034858  2.091108  -0.054
O  O72  1  0.88375605  0.99406865  0.69898677  1  -1.21984  -7e-06  -0.612636  -0.773702  7.4e-05  1.904733  0.0
O  O73  1  0.76514792  0.12257616  0.50922259  1  -1.133674  -0.065631  -0.282963  -0.451417  -0.035684  2.435468  -0.059
O  O74  1  0.20946483  0.89311877  0.48247614  1  -1.182506  -0.000797  -0.300576  -0.48597  -0.00019  2.379411  -0.001
