# generated using pymatgen
data_H3PbC7NO4
_symmetry_space_group_name_H-M   'P 1'
_cell_length_a   4.53162989
_cell_length_b   11.70862897
_cell_length_c   14.24160420
_cell_angle_alpha   90.15980097
_cell_angle_beta   90.00138107
_cell_angle_gamma   89.99721137
_symmetry_Int_Tables_number   1
_chemical_formula_structural   H3PbC7NO4
_chemical_formula_sum   'H12 Pb4 C28 N4 O16'
_cell_volume   755.64480124
_cell_formula_units_Z   4
loop_
 _symmetry_equiv_pos_site_id
 _symmetry_equiv_pos_as_xyz
  1  'x, y, z'
loop_
 _atom_site_type_symbol
 _atom_site_label
 _atom_site_symmetry_multiplicity
 _atom_site_fract_x
 _atom_site_fract_y
 _atom_site_fract_z
 _atom_site_occupancy
 _atom_site_hle17_bader_spin_density
 _atom_site_hle17_ddec_charge
 _atom_site_hle17_ddec_spin_density
 _atom_site_hle17_ddec_sum_bond_order
 _atom_site_hle17_magmom
 _atom_site_hse06_10hf_bader_spin_density
 _atom_site_hse06_10hf_ddec_charge
 _atom_site_hse06_10hf_ddec_spin_density
 _atom_site_hse06_10hf_ddec_sum_bond_order
 _atom_site_hse06_10hf_magmom
 _atom_site_hse06_bader_spin_density
 _atom_site_hse06_ddec_charge
 _atom_site_hse06_ddec_spin_density
 _atom_site_hse06_ddec_sum_bond_order
 _atom_site_hse06_magmom
 _atom_site_pbe_bader_spin_density
 _atom_site_pbe_cm5_charge
 _atom_site_pbe_ddec_charge
 _atom_site_pbe_ddec_spin_density
 _atom_site_pbe_ddec_sum_bond_order
 _atom_site_pbe_magmom
H  H0  1  0.75207963  0.96188228  0.01444407  1  0  0.108882  0  0.940711  0  0  0.11914  0  1.002156  0  0  0.122145  0  0.999748  0  0  0.111996  0.116898  0  1.004079  0
H  H1  1  0.25183739  0.03814155  0.48555612  1  0  0.108528  0  0.941166  0  0  0.119153  0  1.002215  0  0  0.122185  0  0.999787  0  0  0.112005  0.116894  0  1.004132  0
H  H2  1  0.24822335  0.03814004  0.98554571  1  0  0.108497  0  0.941202  0  0  0.119112  0  1.002289  0  0  0.122144  0  0.999864  0  0  0.111993  0.116852  0  1.004205  0
H  H3  1  0.74801539  0.96186635  0.51446873  1  0  0.108552  0  0.940874  0  0  0.119088  0  1.002077  0  0  0.122094  0  0.999661  0  0  0.111942  0.116835  0  1.003988  0
H  H4  1  0.96049051  0.00123822  0.17242657  1  0  0.106388  0  0.961792  0  0  0.116191  0  1.022786  0  0  0.119053  0  1.022406  0  0  0.106787  0.114127  0  1.023199  0
H  H5  1  0.46036262  0.99879241  0.32758144  1  0  0.106376  0  0.961667  0  0  0.116208  0  1.022599  0  0  0.119066  0  1.022226  0  0  0.10676  0.114157  0  1.023011  0
H  H6  1  0.03943074  0.99884996  0.82759978  1  0  0.10634  0  0.961788  0  0  0.116205  0  1.022656  0  0  0.11906  0  1.022293  0  0  0.106829  0.114161  0  1.023058  0
H  H7  1  0.53950783  0.00121720  0.67244482  1  0  0.106258  0  0.961968  0  0  0.11608  0  1.022935  0  0  0.118939  0  1.02256  0  0  0.10674  0.114019  0  1.023361  0
H  H8  1  0.88473547  0.85624868  0.30078634  1  0  0.083938  0  0.956302  0  0  0.09033  0  1.024317  0  0  0.093297  0  1.021703  0  0  0.115474  0.088099  0  1.026354  0
H  H9  1  0.38447242  0.14376805  0.19920433  1  0  0.083705  0  0.956383  0  0  0.090276  0  1.02421  0  0  0.093225  0  1.021597  0  0  0.11543  0.088048  0  1.026255  0
H  H10  1  0.11547703  0.14377365  0.69920203  1  0  0.083745  0  0.956279  0  0  0.090343  0  1.024114  0  0  0.093294  0  1.021493  0  0  0.115412  0.08811  0  1.026158  0
H  H11  1  0.61523912  0.85621593  0.80080504  1  0  0.083948  0  0.956086  0  0  0.090299  0  1.024163  0  0  0.093265  0  1.021541  0  0  0.115419  0.088065  0  1.026208  0
Pb  Pb12  1  0.98405725  0.39067172  0.14048465  1  0  1.406606  0  1.400184  0  0  1.212996  0  1.803188  0  0  1.277237  0  1.757202  0  0  0.665694  1.166428  0  1.835261  0
Pb  Pb13  1  0.48368185  0.60931154  0.35949548  1  0  1.406867  0  1.400317  0  0  1.213261  0  1.803261  0  0  1.277494  0  1.757284  0  0  0.665768  1.166692  0  1.835342  0
Pb  Pb14  1  0.01616183  0.60930451  0.85952192  1  0  1.406734  0  1.400348  0  0  1.213148  0  1.803272  0  0  1.277373  0  1.757305  0  0  0.665742  1.166592  0  1.835348  0
Pb  Pb15  1  0.51624378  0.39069883  0.64047741  1  0  1.40679  0  1.4003  0  0  1.213193  0  1.803305  0  0  1.277436  0  1.757308  0  0  0.665693  1.166616  0  1.835383  0
C  C16  1  0.52023860  0.72603990  0.13221859  1  0  0.089812  0  3.707907  0  0  0.084249  0  3.95163  0  0  0.08666  0  3.969507  0  0  0.117441  0.082414  0  3.939908  0
C  C17  1  0.02009687  0.27400821  0.36777988  1  0  0.089951  0  3.708524  0  0  0.084534  0  3.951919  0  0  0.086976  0  3.969744  0  0  0.117618  0.082705  0  3.940186  0
C  C18  1  0.48007982  0.27396275  0.86775642  1  0  0.089453  0  3.708496  0  0  0.083951  0  3.951905  0  0  0.086359  0  3.969784  0  0  0.117522  0.08213  0  3.940155  0
C  C19  1  0.97964336  0.72597491  0.63222949  1  0  0.090086  0  3.708461  0  0  0.08462  0  3.952164  0  0  0.087074  0  3.969965  0  0  0.117673  0.082791  0  3.940433  0
C  C20  1  0.55749834  0.80085584  0.05624763  1  0  -0.072326  0  3.670209  0  0  -0.055002  0  3.905443  0  0  -0.061656  0  3.923087  0  0  0.007207  -0.051045  0  3.894165  0
C  C21  1  0.05733129  0.19918356  0.44374646  1  0  -0.072446  0  3.670119  0  0  -0.055203  0  3.905441  0  0  -0.061868  0  3.923092  0  0  0.007021  -0.051263  0  3.89417  0
C  C22  1  0.44286200  0.19914509  0.94372878  1  0  -0.072013  0  3.669492  0  0  -0.054388  0  3.904204  0  0  -0.061045  0  3.921869  0  0  0.007209  -0.050433  0  3.892908  0
C  C23  1  0.94241336  0.80080470  0.55626573  1  0  -0.072447  0  3.670018  0  0  -0.055624  0  3.905962  0  0  -0.062289  0  3.923596  0  0  0.006901  -0.051672  0  3.894679  0
C  C24  1  0.71842918  0.90114142  0.07109728  1  0  -0.004837  0  3.669643  0  0  -0.035183  0  3.922518  0  0  -0.030844  0  3.937533  0  0  -0.058857  -0.03799  0  3.912632  0
C  C25  1  0.21824934  0.09888855  0.42890052  1  0  -0.004568  0  3.669705  0  0  -0.035163  0  3.922488  0  0  -0.03085  0  3.937531  0  0  -0.058919  -0.037933  0  3.912587  0
C  C26  1  0.28184069  0.09887833  0.92888898  1  0  -0.004692  0  3.669646  0  0  -0.03548  0  3.922391  0  0  -0.03117  0  3.937435  0  0  -0.05899  -0.038252  0  3.912484  0
C  C27  1  0.78157255  0.90111423  0.57112221  1  0  -0.004596  0  3.669439  0  0  -0.035089  0  3.922506  0  0  -0.030754  0  3.937536  0  0  -0.058815  -0.037864  0  3.912589  0
C  C28  1  0.83692834  0.92308563  0.15940090  1  0  -0.099808  0  3.711823  0  0  -0.113073  0  3.965751  0  0  -0.11856  0  3.985621  0  0  -0.077721  -0.109589  0  3.952545  0
C  C29  1  0.33677308  0.07694227  0.34060253  1  0  -0.09968  0  3.71158  0  0  -0.112975  0  3.965646  0  0  -0.118459  0  3.98551  0  0  -0.077544  -0.109517  0  3.95247  0
C  C30  1  0.16319149  0.07695893  0.84060154  1  0  -0.099588  0  3.711575  0  0  -0.112898  0  3.965728  0  0  -0.118381  0  3.985591  0  0  -0.077596  -0.10944  0  3.952554  0
C  C31  1  0.66305543  0.92305794  0.65942231  1  0  -0.099796  0  3.711727  0  0  -0.113033  0  3.965693  0  0  -0.11852  0  3.985568  0  0  -0.077733  -0.10956  0  3.952503  0
C  C32  1  0.79218178  0.84384899  0.23086933  1  0  0.120882  0  3.725437  0  0  0.087645  0  3.987289  0  0  0.094748  0  4.003792  0  0  0.04501  0.082882  0  3.97611  0
C  C33  1  0.29200217  0.15617314  0.26912951  1  0  0.121069  0  3.725324  0  0  0.087661  0  3.987239  0  0  0.094792  0  4.003714  0  0  0.044892  0.082875  0  3.976084  0
C  C34  1  0.20802630  0.15616906  0.76911974  1  0  0.120831  0  3.72507  0  0  0.087357  0  3.987082  0  0  0.094492  0  4.003549  0  0  0.044739  0.082583  0  3.975926  0
C  C35  1  0.70776454  0.84380999  0.73088688  1  0  0.121009  0  3.725005  0  0  0.087776  0  3.9869  0  0  0.094884  0  4.003395  0  0  0.045091  0.083  0  3.975748  0
C  C36  1  0.34446889  0.61683875  0.12356363  1  0  0.630538  0  3.90828  0  0  0.576822  0  4.202651  0  0  0.611771  0  4.195536  0  0  0.218882  0.553058  0  4.206584  0
C  C37  1  0.84441915  0.38323945  0.37642074  1  0  0.629943  0  3.91001  0  0  0.576343  0  4.204092  0  0  0.611291  0  4.196974  0  0  0.218511  0.552579  0  4.208011  0
C  C38  1  0.65563550  0.38321176  0.87641634  1  0  0.629991  0  3.908936  0  0  0.576204  0  4.203365  0  0  0.611149  0  4.196259  0  0  0.218562  0.552436  0  4.207281  0
C  C39  1  0.15537405  0.61675475  0.62357671  1  0  0.630668  0  3.909278  0  0  0.577194  0  4.203211  0  0  0.612138  0  4.19609  0  0  0.219114  0.553425  0  4.207144  0
C  C40  1  0.43049502  0.77506252  0.96098297  1  0  0.667053  0  3.943323  0  0  0.611709  0  4.24231  0  0  0.648101  0  4.232133  0  0  0.213497  0.586819  0  4.248436  0
C  C41  1  0.93036090  0.22494650  0.53901847  1  0  0.666221  0  3.944436  0  0  0.610745  0  4.243711  0  0  0.647135  0  4.233554  0  0  0.212777  0.585858  0  4.249825  0
C  C42  1  0.56991163  0.22489059  0.03900111  1  0  0.666342  0  3.944295  0  0  0.611075  0  4.242961  0  0  0.647474  0  4.23278  0  0  0.212687  0.586175  0  4.249092  0
C  C43  1  0.06932635  0.77501528  0.46099157  1  0  0.666859  0  3.944234  0  0  0.61173  0  4.243076  0  0  0.648125  0  4.232895  0  0  0.213355  0.586832  0  4.249216  0
N  N44  1  0.63660023  0.74785663  0.21741487  1  0  -0.349531  0  3.213897  0  0  -0.28664  0  3.471658  0  0  -0.30429  0  3.491298  0  0  -0.291054  -0.274315  0  3.458109  0
N  N45  1  0.13645504  0.25217624  0.28258554  1  0  -0.349278  0  3.214051  0  0  -0.286363  0  3.471749  0  0  -0.304029  0  3.491382  0  0  -0.290837  -0.274028  0  3.458187  0
N  N46  1  0.36368729  0.25214176  0.78256364  1  0  -0.349019  0  3.213885  0  0  -0.286127  0  3.4716  0  0  -0.303777  0  3.491236  0  0  -0.290648  -0.273798  0  3.458034  0
N  N47  1  0.86330505  0.74780346  0.71742663  1  0  -0.349759  0  3.214279  0  0  -0.286825  0  3.471927  0  0  -0.304487  0  3.491554  0  0  -0.291105  -0.274501  0  3.458383  0
O  O48  1  0.15646774  0.60589343  0.05912759  1  0  -0.637706  0  1.982096  0  0  -0.576008  0  2.215094  0  0  -0.60611  0  2.210167  0  0  -0.285273  -0.554814  0  2.217888  0
O  O49  1  0.65646508  0.39423641  0.44086664  1  0  -0.637356  0  1.982309  0  0  -0.575747  0  2.215329  0  0  -0.605829  0  2.210347  0  0  -0.284964  -0.554553  0  2.218118  0
O  O50  1  0.84345134  0.39424600  0.94090094  1  0  -0.637329  0  1.981718  0  0  -0.575621  0  2.214813  0  0  -0.605695  0  2.209829  0  0  -0.285081  -0.554454  0  2.217672  0
O  O51  1  0.34337007  0.60579367  0.55913858  1  0  -0.637531  0  1.981955  0  0  -0.575919  0  2.214824  0  0  -0.606043  0  2.209936  0  0  -0.285309  -0.5547  0  2.217558  0
O  O52  1  0.39586588  0.53934963  0.18566373  1  0  -0.703495  0  2.057771  0  0  -0.619472  0  2.296321  0  0  -0.654147  0  2.290696  0  0  -0.285301  -0.594903  0  2.299343  0
O  O53  1  0.89582843  0.46069859  0.31430179  1  0  -0.703326  0  2.058739  0  0  -0.619326  0  2.297062  0  0  -0.654038  0  2.291517  0  0  -0.285217  -0.594764  0  2.300076  0
O  O54  1  0.60422746  0.46066497  0.81429092  1  0  -0.703347  0  2.058344  0  0  -0.619294  0  2.29681  0  0  -0.654001  0  2.291262  0  0  -0.285315  -0.59473  0  2.299831  0
O  O55  1  0.10396476  0.53927594  0.68567878  1  0  -0.703792  0  2.058521  0  0  -0.619908  0  2.296953  0  0  -0.654584  0  2.291349  0  0  -0.285346  -0.595345  0  2.299967  0
O  O56  1  0.55651763  0.69629325  0.91193784  1  0  -0.726777  0  2.087097  0  0  -0.643416  0  2.339339  0  0  -0.679138  0  2.331248  0  0  -0.30334  -0.617828  0  2.343904  0
O  O57  1  0.05652336  0.30363243  0.58810850  1  0  -0.726409  0  2.08713  0  0  -0.643051  0  2.339432  0  0  -0.678773  0  2.331351  0  0  -0.303065  -0.617462  0  2.343986  0
O  O58  1  0.44378082  0.30357457  0.08811073  1  0  -0.72672  0  2.086791  0  0  -0.643563  0  2.339284  0  0  -0.679298  0  2.331188  0  0  -0.303058  -0.617962  0  2.343848  0
O  O59  1  0.94328298  0.69624232  0.41196182  1  0  -0.726976  0  2.087496  0  0  -0.643556  0  2.339488  0  0  -0.679274  0  2.331386  0  0  -0.303353  -0.617975  0  2.344065  0
O  O60  1  0.20821200  0.82935174  0.93342512  1  0  -0.619757  0  1.917426  0  0  -0.570455  0  2.151101  0  0  -0.59842  0  2.145081  0  0  -0.30053  -0.550402  0  2.154447  0
O  O61  1  0.70797170  0.17070492  0.56654159  1  0  -0.619295  0  1.917751  0  0  -0.569971  0  2.151552  0  0  -0.597943  0  2.145538  0  0  -0.300061  -0.549912  0  2.154878  0
O  O62  1  0.79228735  0.17062520  0.06651194  1  0  -0.619237  0  1.91853  0  0  -0.570044  0  2.152229  0  0  -0.598015  0  2.146212  0  0  -0.300011  -0.549983  0  2.155558  0
O  O63  1  0.29155231  0.82931401  0.43341305  1  0  -0.619425  0  1.918221  0  0  -0.570221  0  2.151922  0  0  -0.598188  0  2.145896  0  0  -0.300346  -0.550167  0  2.155267  0
