# generated using pymatgen
data_CdH9C4O7
_symmetry_space_group_name_H-M   'P 1'
_cell_length_a   7.00335865
_cell_length_b   8.41987056
_cell_length_c   13.87624585
_cell_angle_alpha   89.99939803
_cell_angle_beta   90.00062802
_cell_angle_gamma   100.01375549
_symmetry_Int_Tables_number   1
_chemical_formula_structural   CdH9C4O7
_chemical_formula_sum   'Cd4 H36 C16 O28'
_cell_volume   805.78064221
_cell_formula_units_Z   4
loop_
 _symmetry_equiv_pos_site_id
 _symmetry_equiv_pos_as_xyz
  1  'x, y, z'
loop_
 _atom_site_type_symbol
 _atom_site_label
 _atom_site_symmetry_multiplicity
 _atom_site_fract_x
 _atom_site_fract_y
 _atom_site_fract_z
 _atom_site_occupancy
 _atom_site_hle17_bader_spin_density
 _atom_site_hle17_ddec_charge
 _atom_site_hle17_ddec_spin_density
 _atom_site_hle17_ddec_sum_bond_order
 _atom_site_hle17_magmom
 _atom_site_hse06_10hf_bader_spin_density
 _atom_site_hse06_10hf_ddec_charge
 _atom_site_hse06_10hf_ddec_spin_density
 _atom_site_hse06_10hf_ddec_sum_bond_order
 _atom_site_hse06_10hf_magmom
 _atom_site_hse06_bader_spin_density
 _atom_site_hse06_ddec_charge
 _atom_site_hse06_ddec_spin_density
 _atom_site_hse06_ddec_sum_bond_order
 _atom_site_hse06_magmom
 _atom_site_pbe_bader_spin_density
 _atom_site_pbe_cm5_charge
 _atom_site_pbe_ddec_charge
 _atom_site_pbe_ddec_spin_density
 _atom_site_pbe_ddec_sum_bond_order
 _atom_site_pbe_magmom
Cd  Cd0  1  0.09990013  0.45702447  0.82190401  1  0  1.270506  0  1.538123  0  0  1.095452  0  1.973791  0  0  1.153218  0  1.91264  0  0  0.771935  1.053942  0  2.016035  0
Cd  Cd1  1  0.40009293  0.04296883  0.32190357  1  0  1.270493  0  1.538304  0  0  1.095461  0  1.973922  0  0  1.153225  0  1.912777  0  0  0.771934  1.053927  0  2.016204  0
Cd  Cd2  1  0.90009347  0.54297652  0.17809920  1  0  1.270459  0  1.538298  0  0  1.095381  0  1.973895  0  0  1.15314  0  1.912754  0  0  0.771891  1.053842  0  2.016178  0
Cd  Cd3  1  0.59989798  0.95702010  0.67809459  1  0  1.270486  0  1.538221  0  0  1.095382  0  1.973881  0  0  1.153147  0  1.912731  0  0  0.77191  1.053849  0  2.016166  0
H  H4  1  0.70252712  0.33364026  0.87746505  1  0  0.426662  0  0.877532  0  0  0.390314  0  0.949498  0  0  0.402189  0  0.932357  0  0  0.290829  0.381919  0  0.961579  0
H  H5  1  0.79744886  0.16636402  0.37746537  1  0  0.42673  0  0.877466  0  0  0.39036  0  0.949463  0  0  0.402236  0  0.93232  0  0  0.29079  0.381966  0  0.961542  0
H  H6  1  0.29746568  0.66635711  0.12253167  1  0  0.426642  0  0.877583  0  0  0.390312  0  0.949532  0  0  0.402187  0  0.932391  0  0  0.290794  0.381918  0  0.96161  0
H  H7  1  0.20252933  0.83363833  0.62252919  1  0  0.426728  0  0.877434  0  0  0.390377  0  0.949406  0  0  0.40225  0  0.932267  0  0  0.290839  0.381987  0  0.961479  0
H  H8  1  0.75384056  0.50588905  0.93641642  1  0  0.449409  0  0.833102  0  0  0.41996  0  0.891884  0  0  0.43123  0  0.875358  0  0  0.30547  0.411933  0  0.903659  0
H  H9  1  0.74615293  0.99411022  0.43641927  1  0  0.449403  0  0.833098  0  0  0.419966  0  0.891866  0  0  0.431239  0  0.875332  0  0  0.305437  0.411943  0  0.903632  0
H  H10  1  0.24615116  0.49410350  0.06357958  1  0  0.449438  0  0.83302  0  0  0.419985  0  0.891815  0  0  0.43126  0  0.875279  0  0  0.30546  0.41196  0  0.903584  0
H  H11  1  0.25384183  0.00588955  0.56357601  1  0  0.449381  0  0.833108  0  0  0.419929  0  0.891901  0  0  0.431199  0  0.875374  0  0  0.305447  0.411903  0  0.903674  0
H  H12  1  0.17608858  0.67024530  0.96933097  1  0  0.41932  0  0.884355  0  0  0.389014  0  0.94779  0  0  0.3999  0  0.932073  0  0  0.288101  0.381245  0  0.958998  0
H  H13  1  0.32390393  0.82974926  0.46932960  1  0  0.419309  0  0.884422  0  0  0.389009  0  0.9478  0  0  0.399894  0  0.932085  0  0  0.288117  0.381242  0  0.959004  0
H  H14  1  0.82390136  0.32975210  0.03066936  1  0  0.419273  0  0.884371  0  0  0.388975  0  0.947835  0  0  0.399864  0  0.932116  0  0  0.288084  0.381209  0  0.959038  0
H  H15  1  0.67608254  0.17025180  0.53067073  1  0  0.419352  0  0.884287  0  0  0.389045  0  0.947745  0  0  0.399931  0  0.932028  0  0  0.288112  0.38128  0  0.958946  0
H  H16  1  0.26725782  0.77156623  0.87516131  1  0  0.42681  0  0.87573  0  0  0.394111  0  0.941875  0  0  0.405951  0  0.924708  0  0  0.289598  0.385686  0  0.954082  0
H  H17  1  0.23274375  0.72842706  0.37516301  1  0  0.426771  0  0.8758  0  0  0.39416  0  0.941804  0  0  0.405998  0  0.924642  0  0  0.289616  0.385738  0  0.954004  0
H  H18  1  0.73274219  0.22842503  0.12483902  1  0  0.426796  0  0.875757  0  0  0.394185  0  0.941764  0  0  0.406025  0  0.924599  0  0  0.289612  0.385758  0  0.953972  0
H  H19  1  0.76725101  0.27157271  0.62483587  1  0  0.426736  0  0.87585  0  0  0.394126  0  0.941862  0  0  0.405965  0  0.924696  0  0  0.289592  0.385702  0  0.954065  0
H  H20  1  0.45572550  0.34821899  0.75618224  1  0  0.434378  0  0.851161  0  0  0.405809  0  0.909576  0  0  0.415523  0  0.895412  0  0  0.298696  0.398919  0  0.919619  0
H  H21  1  0.04427095  0.15178964  0.25618921  1  0  0.434355  0  0.851211  0  0  0.405795  0  0.909615  0  0  0.415513  0  0.895444  0  0  0.298675  0.398905  0  0.919657  0
H  H22  1  0.54427240  0.65180129  0.24381232  1  0  0.434394  0  0.851135  0  0  0.405846  0  0.909518  0  0  0.415561  0  0.895351  0  0  0.298712  0.398954  0  0.919563  0
H  H23  1  0.95572416  0.84820529  0.74381472  1  0  0.434451  0  0.851072  0  0  0.405892  0  0.90947  0  0  0.415604  0  0.895308  0  0  0.298695  0.399001  0  0.919516  0
H  H24  1  0.47676176  0.52153918  0.70382677  1  0  0.443568  0  0.85084  0  0  0.409881  0  0.917418  0  0  0.421809  0  0.900025  0  0  0.289617  0.401373  0  0.929819  0
H  H25  1  0.02323011  0.97846611  0.20383355  1  0  0.443666  0  0.850701  0  0  0.409949  0  0.917332  0  0  0.421878  0  0.899938  0  0  0.289656  0.401437  0  0.92974  0
H  H26  1  0.52322902  0.47848118  0.29616779  1  0  0.443583  0  0.850843  0  0  0.409921  0  0.917384  0  0  0.421848  0  0.899984  0  0  0.289623  0.401421  0  0.929767  0
H  H27  1  0.97676705  0.02152518  0.79617110  1  0  0.443668  0  0.850723  0  0  0.410009  0  0.917256  0  0  0.421938  0  0.899852  0  0  0.28964  0.401509  0  0.929642  0
H  H28  1  0.15768034  0.95697742  0.96957280  1  0  0.112633  0  0.953588  0  0  0.125303  0  1.016159  0  0  0.127527  0  1.015612  0  0  0.099887  0.123642  0  1.016726  0
H  H29  1  0.34232216  0.54301704  0.46956628  1  0  0.112625  0  0.953572  0  0  0.125325  0  1.016131  0  0  0.12755  0  1.015579  0  0  0.099887  0.123651  0  1.016709  0
H  H30  1  0.84234604  0.04302325  0.03043257  1  0  0.112684  0  0.953615  0  0  0.125303  0  1.016194  0  0  0.12753  0  1.01565  0  0  0.099906  0.123649  0  1.01676  0
H  H31  1  0.65766023  0.45699131  0.53042179  1  0  0.112756  0  0.953428  0  0  0.125358  0  1.016063  0  0  0.12758  0  1.015521  0  0  0.099899  0.123692  0  1.01663  0
H  H32  1  0.22601458  0.08878061  0.06994070  1  0  0.126976  0  0.938667  0  0  0.139141  0  1.000078  0  0  0.142237  0  0.998068  0  0  0.105609  0.136892  0  1.001618  0
H  H33  1  0.27399705  0.41121218  0.56993447  1  0  0.126862  0  0.938775  0  0  0.13905  0  1.000213  0  0  0.142141  0  0.998212  0  0  0.105567  0.136807  0  1.001747  0
H  H34  1  0.77402177  0.91121997  0.93006611  1  0  0.126952  0  0.938658  0  0  0.13909  0  1.000083  0  0  0.142183  0  0.998088  0  0  0.105544  0.13682  0  1.001657  0
H  H35  1  0.72600252  0.58878996  0.43005576  1  0  0.126978  0  0.938766  0  0  0.139111  0  1.000194  0  0  0.142205  0  0.998192  0  0  0.105578  0.136844  0  1.00175  0
H  H36  1  0.54425101  0.18495101  0.99651246  1  0  0.077998  0  0.949899  0  0  0.089188  0  1.011782  0  0  0.091582  0  1.01038  0  0  0.107326  0.087376  0  1.013047  0
H  H37  1  0.95575307  0.31503935  0.49651839  1  0  0.078007  0  0.94982  0  0  0.089203  0  1.011696  0  0  0.091601  0  1.010288  0  0  0.107324  0.087346  0  1.01302  0
H  H38  1  0.45578257  0.81504354  0.00348643  1  0  0.077983  0  0.949935  0  0  0.089192  0  1.011778  0  0  0.091583  0  1.010383  0  0  0.107317  0.08736  0  1.01306  0
H  H39  1  0.04424007  0.68495319  0.50347978  1  0  0.078047  0  0.949838  0  0  0.089207  0  1.011723  0  0  0.0916  0  1.01032  0  0  0.107337  0.087375  0  1.013003  0
C  C40  1  0.18963229  0.21020288  0.93755093  1  0  0.708384  0  3.841574  0  0  0.657791  0  4.143404  0  0  0.690912  0  4.13882  0  0  0.201073  0.635255  0  4.145639  0
C  C41  1  0.31036399  0.28979976  0.43754399  1  0  0.708461  0  3.841244  0  0  0.657847  0  4.14316  0  0  0.690967  0  4.138574  0  0  0.201137  0.635315  0  4.145392  0
C  C42  1  0.81039642  0.78981469  0.06246381  1  0  0.708573  0  3.841407  0  0  0.657714  0  4.143551  0  0  0.690845  0  4.138964  0  0  0.201045  0.63519  0  4.145778  0
C  C43  1  0.68962553  0.71020852  0.56244985  1  0  0.70851  0  3.841553  0  0  0.657877  0  4.143432  0  0  0.691002  0  4.138847  0  0  0.201141  0.635347  0  4.145649  0
C  C44  1  0.24653943  0.07074225  0.99246555  1  0  -0.285444  0  3.622836  0  0  -0.325944  0  3.865944  0  0  -0.331925  0  3.872795  0  0  -0.167218  -0.321679  0  3.861123  0
C  C45  1  0.25346742  0.42925111  0.49246167  1  0  -0.28519  0  3.62292  0  0  -0.325801  0  3.866238  0  0  -0.331776  0  3.873081  0  0  -0.167147  -0.321534  0  3.861405  0
C  C46  1  0.75349388  0.92925110  0.00754126  1  0  -0.28552  0  3.622994  0  0  -0.325838  0  3.866083  0  0  -0.331836  0  3.872935  0  0  -0.167174  -0.321528  0  3.861178  0
C  C47  1  0.74653384  0.57075222  0.50752857  1  0  -0.285524  0  3.623131  0  0  -0.325924  0  3.866139  0  0  -0.331908  0  3.872992  0  0  -0.167194  -0.321636  0  3.861315  0
C  C48  1  0.46326093  0.06832427  0.97279368  1  0  -0.107245  0  3.625497  0  0  -0.116116  0  3.865059  0  0  -0.120924  0  3.878311  0  0  -0.085187  -0.112755  0  3.85582  0
C  C49  1  0.03674047  0.43166577  0.47279293  1  0  -0.107144  0  3.6256  0  0  -0.116116  0  3.865172  0  0  -0.120929  0  3.878424  0  0  -0.085146  -0.112719  0  3.855936  0
C  C50  1  0.53676249  0.93166313  0.02721097  1  0  -0.107035  0  3.625336  0  0  -0.115958  0  3.864748  0  0  -0.120757  0  3.877986  0  0  -0.085131  -0.112571  0  3.855511  0
C  C51  1  0.96324655  0.56833770  0.52720524  1  0  -0.107197  0  3.625762  0  0  -0.116007  0  3.865086  0  0  -0.120811  0  3.878337  0  0  -0.08513  -0.112624  0  3.855824  0
C  C52  1  0.49575750  0.05417647  0.86488999  1  0  0.674435  0  3.817967  0  0  0.619844  0  4.121798  0  0  0.652588  0  4.117824  0  0  0.212827  0.597582  0  4.123652  0
C  C53  1  0.00423977  0.44581864  0.36489041  1  0  0.674304  0  3.818037  0  0  0.619964  0  4.121563  0  0  0.652712  0  4.117586  0  0  0.212874  0.597703  0  4.123403  0
C  C54  1  0.50425460  0.94580500  0.13510961  1  0  0.674274  0  3.817903  0  0  0.619851  0  4.121548  0  0  0.652597  0  4.117576  0  0  0.21275  0.597581  0  4.123405  0
C  C55  1  0.99574662  0.55418846  0.63510920  1  0  0.674224  0  3.818264  0  0  0.619863  0  4.121741  0  0  0.652605  0  4.117768  0  0  0.21272  0.5976  0  4.123597  0
O  O56  1  0.09239208  0.18241141  0.85900430  1  0  -0.667112  0  1.974224  0  0  -0.589884  0  2.203314  0  0  -0.621092  0  2.193703  0  0  -0.321467  -0.567961  0  2.209238  0
O  O57  1  0.40760019  0.31758746  0.35899194  1  0  -0.667244  0  1.974196  0  0  -0.589956  0  2.203254  0  0  -0.621158  0  2.193637  0  0  -0.321541  -0.568029  0  2.209174  0
O  O58  1  0.90762878  0.81759657  0.14100323  1  0  -0.66715  0  1.974709  0  0  -0.589698  0  2.203764  0  0  -0.620892  0  2.194145  0  0  -0.321374  -0.567777  0  2.209685  0
O  O59  1  0.59236599  0.68241863  0.64098533  1  0  -0.667145  0  1.974659  0  0  -0.589846  0  2.203748  0  0  -0.621046  0  2.194135  0  0  -0.321449  -0.567919  0  2.20967  0
O  O60  1  0.24979138  0.35304695  0.96656494  1  0  -0.662168  0  1.952243  0  0  -0.597689  0  2.181835  0  0  -0.625956  0  2.170865  0  0  -0.326302  -0.577829  0  2.188749  0
O  O61  1  0.25021783  0.14694672  0.46656081  1  0  -0.662207  0  1.951939  0  0  -0.597728  0  2.181552  0  0  -0.625991  0  2.170587  0  0  -0.326335  -0.57787  0  2.188471  0
O  O62  1  0.75022804  0.64694170  0.03344404  1  0  -0.662322  0  1.951531  0  0  -0.597768  0  2.181203  0  0  -0.626041  0  2.170239  0  0  -0.326333  -0.577912  0  2.188118  0
O  O63  1  0.74981488  0.85306960  0.53343663  1  0  -0.662337  0  1.951769  0  0  -0.597859  0  2.181374  0  0  -0.626127  0  2.170406  0  0  -0.326423  -0.577995  0  2.188286  0
O  O64  1  0.57805994  0.17637331  0.81747712  1  0  -0.643954  0  1.981711  0  0  -0.572382  0  2.200728  0  0  -0.600142  0  2.191363  0  0  -0.305096  -0.552913  0  2.206602  0
O  O65  1  0.92190543  0.32361494  0.31748137  1  0  -0.643925  0  1.981606  0  0  -0.572424  0  2.200504  0  0  -0.600191  0  2.191136  0  0  -0.305115  -0.552958  0  2.206375  0
O  O66  1  0.42194300  0.82361188  0.18251744  1  0  -0.643743  0  1.98194  0  0  -0.572258  0  2.200905  0  0  -0.600017  0  2.191534  0  0  -0.304937  -0.552792  0  2.206781  0
O  O67  1  0.07805370  0.67638518  0.68251463  1  0  -0.643897  0  1.982048  0  0  -0.572376  0  2.200937  0  0  -0.600125  0  2.191561  0  0  -0.305003  -0.552913  0  2.206814  0
O  O68  1  0.43931681  0.91718038  0.82457123  1  0  -0.643674  0  2.005295  0  0  -0.566472  0  2.23955  0  0  -0.597079  0  2.228574  0  0  -0.309787  -0.545045  0  2.246462  0
O  O69  1  0.06068556  0.58280873  0.32456867  1  0  -0.643664  0  2.005463  0  0  -0.566592  0  2.239626  0  0  -0.597195  0  2.228647  0  0  -0.309827  -0.545165  0  2.246531  0
O  O70  1  0.56070973  0.08280821  0.17543414  1  0  -0.643792  0  2.004978  0  0  -0.56673  0  2.239212  0  0  -0.59734  0  2.228237  0  0  -0.309891  -0.545299  0  2.24612  0
O  O71  1  0.93930528  0.41718625  0.67543094  1  0  -0.643577  0  2.005226  0  0  -0.566606  0  2.239522  0  0  -0.597216  0  2.228547  0  0  -0.309798  -0.545176  0  2.246428  0
O  O72  1  0.80378962  0.40909285  0.91411331  1  0  -0.853341  0  1.904938  0  0  -0.783166  0  2.09462  0  0  -0.807908  0  2.059181  0  0  -0.567591  -0.765647  0  2.119262  0
O  O73  1  0.69619419  0.09091087  0.41411576  1  0  -0.853415  0  1.904828  0  0  -0.783226  0  2.094526  0  0  -0.807969  0  2.059082  0  0  -0.567543  -0.765705  0  2.119162  0
O  O74  1  0.19620256  0.59090815  0.08588413  1  0  -0.853379  0  1.904846  0  0  -0.783226  0  2.094498  0  0  -0.807968  0  2.059059  0  0  -0.567557  -0.765708  0  2.119137  0
O  O75  1  0.30379113  0.90909140  0.58588241  1  0  -0.853378  0  1.90479  0  0  -0.783192  0  2.094442  0  0  -0.807929  0  2.059013  0  0  -0.56759  -0.765672  0  2.119075  0
O  O76  1  0.15267165  0.69560119  0.90060041  1  0  -0.841964  0  1.907956  0  0  -0.778938  0  2.110209  0  0  -0.802905  0  2.073984  0  0  -0.587913  -0.76193  0  2.135369  0
O  O77  1  0.34732240  0.80439425  0.40060222  1  0  -0.841919  0  1.908165  0  0  -0.778956  0  2.110304  0  0  -0.802936  0  2.074101  0  0  -0.587953  -0.761943  0  2.135449  0
O  O78  1  0.84732454  0.30439856  0.09940207  1  0  -0.841905  0  1.907979  0  0  -0.778941  0  2.110148  0  0  -0.802905  0  2.073903  0  0  -0.587927  -0.761921  0  2.135273  0
O  O79  1  0.65266639  0.19560437  0.59940026  1  0  -0.841936  0  1.908016  0  0  -0.778952  0  2.110162  0  0  -0.80292  0  2.07394  0  0  -0.587914  -0.761926  0  2.135286  0
O  O80  1  0.38772468  0.43695959  0.74015653  1  0  -0.866193  0  1.840534  0  0  -0.805239  0  2.031148  0  0  -0.826765  0  1.994621  0  0  -0.590383  -0.790037  0  2.056732  0
O  O81  1  0.11228446  0.06305638  0.24015438  1  0  -0.866244  0  1.840403  0  0  -0.805314  0  2.031034  0  0  -0.826846  0  1.994498  0  0  -0.590419  -0.790108  0  2.056621  0
O  O82  1  0.61228623  0.56306782  0.25986182  1  0  -0.866202  0  1.840474  0  0  -0.805292  0  2.031052  0  0  -0.826811  0  1.994534  0  0  -0.590427  -0.790093  0  2.056626  0
O  O83  1  0.88771296  0.93693611  0.75985747  1  0  -0.866347  0  1.840306  0  0  -0.805411  0  2.030881  0  0  -0.826931  0  1.994365  0  0  -0.59041  -0.79021  0  2.056459  0
