# generated using pymatgen
data_Zn2P2H10C5O6
_symmetry_space_group_name_H-M   'P 1'
_cell_length_a   4.80152274
_cell_length_b   9.57593799
_cell_length_c   11.08812896
_cell_angle_alpha   96.32529640
_cell_angle_beta   102.53163776
_cell_angle_gamma   89.98853820
_symmetry_Int_Tables_number   1
_chemical_formula_structural   Zn2P2H10C5O6
_chemical_formula_sum   'Zn4 P4 H20 C10 O12'
_cell_volume   494.49887966
_cell_formula_units_Z   2
loop_
 _symmetry_equiv_pos_site_id
 _symmetry_equiv_pos_as_xyz
  1  'x, y, z'
loop_
 _atom_site_type_symbol
 _atom_site_label
 _atom_site_symmetry_multiplicity
 _atom_site_fract_x
 _atom_site_fract_y
 _atom_site_fract_z
 _atom_site_occupancy
 _atom_site_hle17_bader_spin_density
 _atom_site_hle17_ddec_charge
 _atom_site_hle17_ddec_spin_density
 _atom_site_hle17_ddec_sum_bond_order
 _atom_site_hle17_magmom
 _atom_site_hse06_10hf_bader_spin_density
 _atom_site_hse06_10hf_ddec_charge
 _atom_site_hse06_10hf_ddec_spin_density
 _atom_site_hse06_10hf_ddec_sum_bond_order
 _atom_site_hse06_10hf_magmom
 _atom_site_hse06_bader_spin_density
 _atom_site_hse06_ddec_charge
 _atom_site_hse06_ddec_spin_density
 _atom_site_hse06_ddec_sum_bond_order
 _atom_site_hse06_magmom
 _atom_site_pbe_bader_spin_density
 _atom_site_pbe_cm5_charge
 _atom_site_pbe_ddec_charge
 _atom_site_pbe_ddec_spin_density
 _atom_site_pbe_ddec_sum_bond_order
 _atom_site_pbe_magmom
Zn  Zn0  1  0.41615061  0.60884159  0.59532284  1  0  1.272611  0  1.714062  0  0  1.11014  0  2.182792  0  0  1.154127  0  2.119467  0  0  0.732668  1.078841  0  2.226864  0
Zn  Zn1  1  0.82085195  0.89113398  0.40476748  1  0  1.27247  0  1.714517  0  0  1.110425  0  2.183001  0  0  1.154364  0  2.119678  0  0  0.732853  1.079153  0  2.227101  0
Zn  Zn2  1  0.58385124  0.39116008  0.40467870  1  0  1.272633  0  1.714014  0  0  1.110147  0  2.182758  0  0  1.154136  0  2.119434  0  0  0.732669  1.07885  0  2.226834  0
Zn  Zn3  1  0.17914563  0.10886768  0.59523365  1  0  1.272444  0  1.714519  0  0  1.110418  0  2.18301  0  0  1.15435  0  2.119675  0  0  0.732852  1.079133  0  2.2271  0
P  P4  1  0.00413687  0.42822336  0.67471797  1  0  1.527637  0  4.81683  0  0  1.375652  0  5.301464  0  0  1.424007  0  5.266794  0  0  0.342525  1.342036  0  5.324514  0
P  P5  1  0.32924263  0.07180352  0.32528589  1  0  1.527945  0  4.812293  0  0  1.376139  0  5.296977  0  0  1.424401  0  5.262348  0  0  0.342509  1.342568  0  5.320035  0
P  P6  1  0.99586901  0.57177302  0.32528078  1  0  1.527534  0  4.817162  0  0  1.375536  0  5.301803  0  0  1.423894  0  5.267137  0  0  0.342474  1.341924  0  5.32485  0
P  P7  1  0.67075936  0.92820132  0.67471683  1  0  1.527895  0  4.812283  0  0  1.376147  0  5.296879  0  0  1.424399  0  5.262254  0  0  0.34251  1.342572  0  5.319945  0
H  H8  1  0.23483834  0.23148167  0.85615953  1  0  0.059867  0  0.947032  0  0  0.080158  0  1.01092  0  0  0.080759  0  1.011112  0  0  0.088894  0.079632  0  1.01101  0
H  H9  1  0.37824832  0.26861947  0.14402016  1  0  0.059387  0  0.946828  0  0  0.079773  0  1.010596  0  0  0.080415  0  1.010724  0  0  0.088755  0.079206  0  1.010771  0
H  H10  1  0.76515910  0.76851682  0.14383951  1  0  0.059824  0  0.947083  0  0  0.080137  0  1.010953  0  0  0.080739  0  1.011145  0  0  0.088892  0.079613  0  1.011044  0
H  H11  1  0.62175131  0.73138007  0.85597918  1  0  0.059441  0  0.94675  0  0  0.07979  0  1.010569  0  0  0.080431  0  1.010699  0  0  0.088753  0.079223  0  1.010746  0
H  H12  1  0.27953293  0.39575641  0.94698455  1  0  0.058133  0  0.930743  0  0  0.078723  0  0.992016  0  0  0.079467  0  0.992261  0  0  0.088427  0.078097  0  0.992092  0
H  H13  1  0.33212341  0.10437017  0.05321015  1  0  0.058231  0  0.931841  0  0  0.079271  0  0.992221  0  0  0.080002  0  0.99251  0  0  0.08867  0.078655  0  0.992276  0
H  H14  1  0.72046665  0.60424210  0.05301651  1  0  0.058144  0  0.930758  0  0  0.078711  0  0.992062  0  0  0.079454  0  0.992306  0  0  0.088436  0.078086  0  0.992135  0
H  H15  1  0.66787825  0.89562728  0.94679010  1  0  0.058232  0  0.931841  0  0  0.079279  0  0.992219  0  0  0.080009  0  0.992508  0  0  0.088659  0.078662  0  0.992275  0
H  H16  1  0.78283011  0.46256228  0.84780519  1  0  0.129276  0  0.939897  0  0  0.144554  0  0.996529  0  0  0.146393  0  0.99711  0  0  0.105607  0.143097  0  0.99636  0
H  H17  1  0.93454493  0.03753292  0.15209547  1  0  0.129585  0  0.939049  0  0  0.145195  0  0.995446  0  0  0.147042  0  0.995996  0  0  0.10599  0.143732  0  0.995286  0
H  H18  1  0.21716947  0.53743622  0.15219496  1  0  0.129274  0  0.939889  0  0  0.144559  0  0.996501  0  0  0.146397  0  0.997082  0  0  0.105612  0.143102  0  0.996333  0
H  H19  1  0.06545897  0.96246665  0.84790608  1  0  0.129581  0  0.939063  0  0  0.14518  0  0.995448  0  0  0.147028  0  0.995998  0  0  0.105981  0.143717  0  0.995288  0
H  H20  1  0.71649701  0.29266015  0.76626942  1  0  0.140342  0  0.949532  0  0  0.154491  0  1.006647  0  0  0.156646  0  1.00687  0  0  0.107361  0.152904  0  1.006576  0
H  H21  1  0.94963850  0.20740894  0.23372922  1  0  0.140566  0  0.949943  0  0  0.15514  0  1.006535  0  0  0.157279  0  1.006755  0  0  0.107672  0.153551  0  1.006467  0
H  H22  1  0.28350475  0.70733939  0.23372922  1  0  0.140368  0  0.949525  0  0  0.154501  0  1.006649  0  0  0.156658  0  1.006869  0  0  0.107375  0.152915  0  1.006578  0
H  H23  1  0.05035690  0.79259163  0.76626891  1  0  0.140562  0  0.949964  0  0  0.155085  0  1.006585  0  0  0.157221  0  1.006809  0  0  0.107654  0.153497  0  1.006517  0
H  H24  1  0.83110218  0.16906581  0.95269343  1  0  0.068066  0  0.936197  0  0  0.088668  0  0.994687  0  0  0.089106  0  0.995997  0  0  0.088494  0.088278  0  0.993929  0
H  H25  1  0.87820690  0.33127604  0.04701997  1  0  0.067703  0  0.936653  0  0  0.088519  0  0.994721  0  0  0.0889  0  0.996114  0  0  0.088421  0.088109  0  0.993984  0
H  H26  1  0.16889735  0.83093163  0.04730572  1  0  0.067999  0  0.936302  0  0  0.088634  0  0.994744  0  0  0.089073  0  0.996052  0  0  0.088473  0.088245  0  0.993984  0
H  H27  1  0.12179054  0.66872246  0.95297997  1  0  0.067686  0  0.936641  0  0  0.088496  0  0.994704  0  0  0.088877  0  0.996097  0  0  0.088411  0.088076  0  0.993981  0
C  C28  1  0.11909891  0.31307706  0.90217896  1  0  -0.048709  0  3.699265  0  0  -0.094809  0  3.962615  0  0  -0.094396  0  3.977556  0  0  -0.160703  -0.09493  0  3.952141  0
C  C29  1  0.21643748  0.18704548  0.09792270  1  0  -0.048433  0  3.699979  0  0  -0.094196  0  3.96212  0  0  -0.093848  0  3.977143  0  0  -0.160496  -0.094282  0  3.95158  0
C  C30  1  0.88090067  0.68692144  0.09782119  1  0  -0.048635  0  3.699194  0  0  -0.094776  0  3.96257  0  0  -0.094363  0  3.977509  0  0  -0.160704  -0.094898  0  3.952097  0
C  C31  1  0.78356001  0.81295406  0.90207644  1  0  -0.048467  0  3.699934  0  0  -0.094248  0  3.962059  0  0  -0.093902  0  3.977083  0  0  -0.160487  -0.094332  0  3.951516  0
C  C32  1  0.88569068  0.37291706  0.80556010  1  0  -0.460321  0  3.68964  0  0  -0.473821  0  3.935096  0  0  -0.4843  0  3.945547  0  0  -0.16889  -0.466389  0  3.927698  0
C  C33  1  0.07958631  0.12719193  0.19442776  1  0  -0.460591  0  3.688855  0  0  -0.475105  0  3.93402  0  0  -0.485442  0  3.944225  0  0  -0.169785  -0.467746  0  3.926754  0
C  C34  1  0.11431108  0.62708250  0.19444124  1  0  -0.46033  0  3.689714  0  0  -0.473797  0  3.935139  0  0  -0.484276  0  3.945592  0  0  -0.168876  -0.466369  0  3.927749  0
C  C35  1  0.92041331  0.87280764  0.80557339  1  0  -0.460637  0  3.688961  0  0  -0.475104  0  3.934157  0  0  -0.48544  0  3.944363  0  0  -0.169788  -0.467737  0  3.92687  0
C  C36  1  0.99298036  0.25011939  0.99993782  1  0  -0.114131  0  3.664772  0  0  -0.150232  0  3.924375  0  0  -0.151952  0  3.939789  0  0  -0.16807  -0.148799  0  3.91347  0
C  C37  1  0.00702135  0.74987909  0.00006072  1  0  -0.114065  0  3.664679  0  0  -0.150129  0  3.924236  0  0  -0.151851  0  3.939654  0  0  -0.168041  -0.148695  0  3.913339  0
O  O38  1  0.21551859  0.55419366  0.71873435  1  0  -0.871518  0  1.95955  0  0  -0.779274  0  2.250507  0  0  -0.807841  0  2.226433  0  0  -0.377716  -0.759047  0  2.266687  0
O  O39  1  0.49679630  0.94591985  0.28126172  1  0  -0.87128  0  1.957227  0  0  -0.779239  0  2.248199  0  0  -0.807848  0  2.224167  0  0  -0.377802  -0.75904  0  2.264419  0
O  O40  1  0.78448535  0.44580695  0.28126639  1  0  -0.871515  0  1.959757  0  0  -0.779278  0  2.250733  0  0  -0.807846  0  2.226657  0  0  -0.3777  -0.759045  0  2.266901  0
O  O41  1  0.50320337  0.05408074  0.71873772  1  0  -0.871157  0  1.957298  0  0  -0.779169  0  2.248285  0  0  -0.807777  0  2.224252  0  0  -0.377771  -0.758966  0  2.264499  0
O  O42  1  0.73235153  0.47429981  0.58258571  1  0  -0.929315  0  2.150014  0  0  -0.816396  0  2.477416  0  0  -0.846783  0  2.445753  0  0  -0.379685  -0.795129  0  2.498794  0
O  O43  1  0.14990731  0.02553538  0.41740715  1  0  -0.929293  0  2.148494  0  0  -0.816684  0  2.475971  0  0  -0.84695  0  2.444233  0  0  -0.379543  -0.795442  0  2.497402  0
O  O44  1  0.26765033  0.52570187  0.41741673  1  0  -0.929274  0  2.150135  0  0  -0.816324  0  2.477493  0  0  -0.84671  0  2.445827  0  0  -0.379657  -0.795063  0  2.498875  0
O  O45  1  0.85009240  0.97446627  0.58259328  1  0  -0.929311  0  2.148569  0  0  -0.816727  0  2.476035  0  0  -0.846962  0  2.444275  0  0  -0.379564  -0.795485  0  2.497468  0
O  O46  1  0.13588302  0.30654177  0.60655507  1  0  -0.888704  0  2.044095  0  0  -0.793196  0  2.356499  0  0  -0.821399  0  2.327953  0  0  -0.383124  -0.773191  0  2.375618  0
O  O47  1  0.52888976  0.19355465  0.39349827  1  0  -0.889533  0  2.045281  0  0  -0.793884  0  2.35766  0  0  -0.822141  0  2.329234  0  0  -0.383039  -0.773846  0  2.376686  0
O  O48  1  0.86411679  0.69346199  0.39344555  1  0  -0.888668  0  2.04398  0  0  -0.793179  0  2.356395  0  0  -0.821391  0  2.327862  0  0  -0.383121  -0.77318  0  2.375518  0
O  O49  1  0.47110555  0.80644386  0.60650238  1  0  -0.889547  0  2.045236  0  0  -0.793902  0  2.357571  0  0  -0.822153  0  2.329131  0  0  -0.383032  -0.773862  0  2.376596  0
