# generated using pymatgen
data_CuH12C12NO5F3
_symmetry_space_group_name_H-M   'P 1'
_cell_length_a   7.95500499
_cell_length_b   9.99063197
_cell_length_c   18.39999301
_cell_angle_alpha   90.00222853
_cell_angle_beta   83.54826501
_cell_angle_gamma   89.98854400
_symmetry_Int_Tables_number   1
_chemical_formula_structural   CuH12C12NO5F3
_chemical_formula_sum   'Cu4 H48 C48 N4 O20 F12'
_cell_volume   1453.08785631
_cell_formula_units_Z   4
loop_
 _symmetry_equiv_pos_site_id
 _symmetry_equiv_pos_as_xyz
  1  'x, y, z'
loop_
 _atom_site_type_symbol
 _atom_site_label
 _atom_site_symmetry_multiplicity
 _atom_site_fract_x
 _atom_site_fract_y
 _atom_site_fract_z
 _atom_site_occupancy
 _atom_site_pbe_bader_charge
 _atom_site_pbe_bader_spin_density
 _atom_site_pbe_cm5_charge
 _atom_site_pbe_ddec_charge
 _atom_site_pbe_ddec_spin_density
 _atom_site_pbe_ddec_sum_bond_order
 _atom_site_pbe_magmom
Cu  Cu0  1  0.58517610  0.82460979  0.77996088  1  1.084407  -0.576831  0.709907  0.835225  -0.756257  2.114661  -0.576
Cu  Cu1  1  0.41487708  0.32459717  0.71998062  1  1.084282  0.57683  0.710085  0.8356  0.756194  2.11446  0.576
Cu  Cu2  1  0.41481031  0.17543541  0.22001809  1  1.08428  0.576811  0.70999  0.83529  0.756186  2.114378  0.576
Cu  Cu3  1  0.58517700  0.67541800  0.28001909  1  1.084399  -0.576819  0.710049  0.835414  -0.756135  2.114357  -0.576
H  H4  1  0.22763865  0.83032724  0.81047634  1  0.663778  -0.000641  0.292057  0.406704  -0.00089  0.92792  -0.002
H  H5  1  0.77237529  0.33034547  0.68948459  1  0.663853  0.00064  0.292046  0.406572  0.000889  0.928055  0.002
H  H6  1  0.77237291  0.16972898  0.18953961  1  0.663776  0.000643  0.291996  0.406566  0.00089  0.928082  0.002
H  H7  1  0.22764640  0.66972876  0.31049410  1  0.663389  -0.000644  0.292152  0.406668  -0.000889  0.927959  -0.002
H  H8  1  0.33768325  0.96790246  0.79517885  1  0.647919  -0.000327  0.297979  0.390259  -0.00066  0.938996  0.0
H  H9  1  0.66228399  0.46787998  0.70476096  1  0.646754  0.000327  0.298094  0.390617  0.000659  0.938593  0.0
H  H10  1  0.66240082  0.03214474  0.20484086  1  0.647802  0.000328  0.29815  0.390509  0.000661  0.938654  0.0
H  H11  1  0.33765013  0.53217124  0.29521377  1  0.649011  -0.000326  0.298165  0.390687  -0.000659  0.938453  0.0
H  H12  1  0.64696549  0.15525034  0.60390330  1  0.105454  0.000514  0.124107  0.14288  0.000233  0.966609  0.0
H  H13  1  0.35307197  0.65530738  0.89605419  1  0.105208  -0.000515  0.124166  0.142752  -0.000233  0.966693  0.0
H  H14  1  0.35309571  0.84479486  0.39609951  1  0.106119  -0.000514  0.124133  0.142845  -0.000233  0.966836  0.0
H  H15  1  0.64691339  0.34470280  0.10395092  1  0.105194  0.000515  0.124194  0.142841  0.000234  0.967138  0.0
H  H16  1  0.49520722  0.04499057  0.57283895  1  0.056407  0.006755  0.112253  0.119667  0.003415  0.961374  0.004
H  H17  1  0.50488821  0.54504156  0.92710295  1  0.055924  -0.006757  0.112163  0.119665  -0.003414  0.961379  -0.004
H  H18  1  0.50486365  0.95502060  0.42714840  1  0.056207  -0.006769  0.112223  0.119693  -0.003421  0.961069  -0.004
H  H19  1  0.49510422  0.45496161  0.07288731  1  0.056084  0.006773  0.112163  0.11965  0.003423  0.961069  0.004
H  H20  1  0.22142041  0.40774988  0.46055282  1  0.083647  4.1e-05  0.10382  0.112285  1.8e-05  1.000929  0.0
H  H21  1  0.77862444  0.90777583  0.03936836  1  0.084014  -4.2e-05  0.104104  0.11246  -1.9e-05  1.001424  0.0
H  H22  1  0.77858985  0.59214418  0.53944519  1  0.084146  -4.1e-05  0.103951  0.112373  -1.8e-05  1.001274  0.0
H  H23  1  0.22136977  0.09217529  0.96062730  1  0.084568  4.1e-05  0.10401  0.112276  1.8e-05  1.00147  0.0
H  H24  1  0.41024303  0.25942346  0.50694061  1  0.065866  0.007833  0.106762  0.097441  0.00413  0.96698  0.005
H  H25  1  0.58981747  0.75945442  0.99300284  1  0.066614  -0.007828  0.106818  0.097399  -0.00413  0.967221  -0.005
H  H26  1  0.58976134  0.74060373  0.49307278  1  0.065509  -0.007841  0.106631  0.097255  -0.004134  0.966819  -0.005
H  H27  1  0.41020711  0.24056076  0.00699157  1  0.066452  0.007838  0.106781  0.097323  0.004134  0.967139  0.005
H  H28  1  0.56970865  0.33773680  0.55248163  1  0.081387  0.000324  0.106553  0.096682  7.3e-05  1.045529  0.0
H  H29  1  0.43027541  0.83776180  0.94746420  1  0.081442  -0.000324  0.106546  0.096968  -7.3e-05  1.045318  0.0
H  H30  1  0.43029848  0.66226937  0.44751155  1  0.081307  -0.000323  0.106578  0.096694  -7.2e-05  1.045682  0.0
H  H31  1  0.56972414  0.16224236  0.05252915  1  0.081334  0.000324  0.10652  0.096757  7.3e-05  1.045614  0.0
H  H32  1  0.29239355  0.73577090  0.65802193  1  0.131909  0.000136  0.106386  0.111305  0.000132  1.008619  0.0
H  H33  1  0.70738181  0.23584273  0.84200324  1  0.131526  -0.000136  0.106401  0.11158  -0.000132  1.008867  0.0
H  H34  1  0.70743256  0.26423328  0.34196021  1  0.130738  -0.000136  0.106369  0.111484  -0.000132  1.008707  0.0
H  H35  1  0.29271550  0.76420247  0.15800255  1  0.131377  0.000136  0.106431  0.111591  0.000132  1.00865  0.0
H  H36  1  0.07706286  0.62732499  0.46102713  1  0.114476  -0.000153  0.104178  0.108128  -0.000136  1.022852  0.0
H  H37  1  0.92290836  0.12735132  0.03895158  1  0.114849  0.000152  0.104216  0.108254  0.000135  1.022723  0.0
H  H38  1  0.92284794  0.37253605  0.53896175  1  0.114166  0.000153  0.10423  0.108335  0.000136  1.022891  0.0
H  H39  1  0.07712246  0.87258979  0.96107100  1  0.114972  -0.000152  0.104304  0.108498  -0.000136  1.022693  0.0
H  H40  1  0.44690907  0.52536315  0.65303449  1  0.070627  -0.000858  0.0959  0.08622  -0.000678  1.105281  0.0
H  H41  1  0.55297615  0.02541423  0.84694983  1  0.070225  0.000857  0.095847  0.085975  0.000678  1.105385  0.0
H  H42  1  0.55301722  0.47467606  0.34697908  1  0.07041  0.000859  0.095908  0.086252  0.000679  1.105427  0.0
H  H43  1  0.44706581  0.97464899  0.15304636  1  0.069675  -0.000861  0.095883  0.086179  -0.000679  1.105408  0.0
H  H44  1  0.21398737  0.07815710  0.65224950  1  0.119511  -0.0001  0.11716  0.131182  -0.000142  0.989664  0.0
H  H45  1  0.78607622  0.57815011  0.84764798  1  0.118394  0.000101  0.117177  0.131091  0.000142  0.989475  0.0
H  H46  1  0.78603111  0.92186909  0.34777119  1  0.119672  0.0001  0.117164  0.131236  0.000142  0.989283  0.0
H  H47  1  0.21394637  0.42186206  0.15233341  1  0.118965  -0.000101  0.117208  0.13115  -0.000142  0.98936  0.0
H  H48  1  0.17364242  0.16930968  0.57388449  1  0.114466  0.001962  0.104406  0.115935  0.001112  1.015724  0.001
H  H49  1  0.82639498  0.66924427  0.92605887  1  0.115669  -0.00196  0.104445  0.116009  -0.001111  1.016136  -0.001
H  H50  1  0.82636709  0.83064344  0.42610973  1  0.114516  -0.001957  0.104412  0.115974  -0.001109  1.016058  -0.001
H  H51  1  0.17360293  0.33071286  0.07395576  1  0.115654  0.001956  0.104457  0.11614  0.001109  1.016339  0.001
C  C52  1  0.51162856  0.04064742  0.68934929  1  1.584517  0.002165  0.213312  0.611817  0.000566  4.152044  0.003
C  C53  1  0.48842926  0.54065052  0.81058966  1  1.586765  -0.002168  0.213037  0.611717  -0.000564  4.152467  -0.003
C  C54  1  0.48842863  0.95936175  0.31065525  1  1.585411  -0.002169  0.213277  0.611698  -0.000566  4.151936  -0.003
C  C55  1  0.51155209  0.45934564  0.18940793  1  1.587533  0.002173  0.212848  0.611403  0.000565  4.152548  0.003
C  C56  1  0.51836019  0.11536102  0.61674906  1  0.269709  -0.006882  -0.069347  -0.230874  -0.00408  3.862909  -0.007
C  C57  1  0.48171571  0.61537692  0.88318845  1  0.26943  0.006884  -0.069422  -0.231021  0.004075  3.863709  0.007
C  C58  1  0.48172049  0.88462812  0.38324023  1  0.268984  0.006885  -0.069426  -0.230902  0.004079  3.863399  0.007
C  C59  1  0.51829045  0.38459622  0.11681183  1  0.269208  -0.00689  -0.069485  -0.231187  -0.004075  3.864006  -0.007
C  C60  1  0.08058469  0.82570967  0.56261562  1  1.645931  -4e-05  0.304493  0.68303  -1.6e-05  4.001658  0.0
C  C61  1  0.91918789  0.32573843  0.93740588  1  1.645837  4e-05  0.305026  0.683919  1.6e-05  4.00078  0.0
C  C62  1  0.91930002  0.17422444  0.43737985  1  1.645054  4e-05  0.305057  0.684406  1.6e-05  4.000345  0.0
C  C63  1  0.08087272  0.67422770  0.06261056  1  1.645949  -4e-05  0.304986  0.683808  -1.6e-05  4.000669  0.0
C  C64  1  0.33808626  0.44650505  0.55879494  1  -0.043512  0.000906  -0.008088  0.100748  0.000461  3.945777  0.001
C  C65  1  0.66189004  0.94653835  0.94115172  1  -0.044383  -0.000908  -0.007929  0.101209  -0.000462  3.945665  -0.001
C  C66  1  0.66184865  0.55343806  0.44122006  1  -0.04389  -0.000906  -0.008156  0.101135  -0.000461  3.94514  -0.001
C  C67  1  0.33815335  0.05344179  0.05883409  1  -0.044599  0.000909  -0.008211  0.100784  0.000462  3.945702  0.001
C  C68  1  0.23536596  0.47885581  0.50441622  1  -0.039194  -0.000312  -0.084908  -0.125627  -0.000209  3.945234  0.0
C  C69  1  0.76458125  0.97887920  0.99553169  1  -0.051866  0.000313  -0.085444  -0.126423  0.000209  3.946529  0.0
C  C70  1  0.76453553  0.52105928  0.49559466  1  -0.051563  0.000313  -0.085189  -0.12608  0.000209  3.946452  0.0
C  C71  1  0.23544593  0.02109094  0.00447138  1  -0.052339  -0.000313  -0.085403  -0.126111  -0.000209  3.946584  0.0
C  C72  1  0.43398456  0.31600137  0.55623723  1  0.256997  0.000424  -0.068268  -0.128292  0.001005  3.880605  -0.001
C  C73  1  0.56601038  0.81601850  0.94370289  1  0.256476  -0.000422  -0.068476  -0.129225  -0.001001  3.880581  0.001
C  C74  1  0.56598475  0.68398879  0.44377479  1  0.257507  -0.000426  -0.067875  -0.127991  -0.001007  3.879457  0.001
C  C75  1  0.43400968  0.18397566  0.05628782  1  0.257075  0.000425  -0.068357  -0.128768  0.001004  3.880406  -0.001
C  C76  1  0.09997336  0.26472877  0.67866763  1  1.59375  -0.001002  0.206463  0.615886  0.000821  4.176853  -0.001
C  C77  1  0.90008648  0.76474003  0.82129924  1  1.59294  0.00101  0.206652  0.616604  -0.000816  4.176051  0.001
C  C78  1  0.90003652  0.73531743  0.32131459  1  1.593043  0.001002  0.206392  0.615915  -0.000818  4.176857  0.001
C  C79  1  0.09991729  0.23530718  0.17871852  1  1.593225  -0.001011  0.206908  0.616704  0.000814  4.176392  -0.001
C  C80  1  0.16910127  0.69330394  0.56133756  1  -0.006909  -0.000246  -0.034704  -0.124615  -0.000149  4.052971  0.0
C  C81  1  0.83077976  0.19333307  0.93866825  1  -0.006385  0.000245  -0.034616  -0.124981  0.000149  4.053275  0.0
C  C82  1  0.83080664  0.30664618  0.43863561  1  -0.005031  0.000246  -0.034801  -0.12523  0.000149  4.052748  0.0
C  C83  1  0.16925640  0.80666009  0.06136128  1  -0.005879  -0.000245  -0.034986  -0.125493  -0.000149  4.053219  0.0
C  C84  1  0.27520310  0.66418485  0.61484626  1  -0.114703  -0.000396  -0.079557  -0.060963  -0.000201  3.952429  0.0
C  C85  1  0.72461183  0.16425464  0.88517684  1  -0.114743  0.000397  -0.079688  -0.061397  0.000201  3.952043  0.0
C  C86  1  0.72468422  0.33578329  0.38514861  1  -0.114549  0.000396  -0.079492  -0.060883  0.000201  3.952734  0.0
C  C87  1  0.27540903  0.83577555  0.11483563  1  -0.114359  -0.000397  -0.079564  -0.060949  -0.000201  3.95224  0.0
C  C88  1  0.15289524  0.60232258  0.50484905  1  -0.052809  -0.00046  -0.085516  -0.082923  -0.000355  3.98815  0.0
C  C89  1  0.84702113  0.10235196  0.99514497  1  -0.038731  0.000459  -0.085489  -0.082644  0.000354  3.987852  0.0
C  C90  1  0.84707632  0.39762354  0.49513734  1  -0.039369  0.000461  -0.085488  -0.082931  0.000356  3.987655  0.0
C  C91  1  0.15299320  0.89762818  0.00486928  1  -0.039363  -0.00046  -0.085455  -0.082972  -0.000355  3.987227  0.0
C  C92  1  0.36051289  0.54271054  0.61229075  1  0.054515  -0.000835  -0.08889  -0.123434  -0.000716  3.960891  0.0
C  C93  1  0.63936405  0.04277735  0.88768779  1  0.053299  0.000834  -0.088623  -0.122746  0.000714  3.959916  0.0
C  C94  1  0.63942947  0.45727161  0.38769740  1  0.052968  0.000835  -0.088959  -0.12375  0.000716  3.960464  0.0
C  C95  1  0.36069151  0.95722481  0.11231951  1  0.053264  -0.000832  -0.088456  -0.122792  -0.000714  3.959383  0.0
C  C96  1  0.21915282  0.17830152  0.62778789  1  0.176803  0.001214  -0.082693  -0.259295  0.001525  3.893953  -0.001
C  C97  1  0.78092096  0.67828932  0.87215028  1  0.176184  -0.001216  -0.082899  -0.259618  -0.001524  3.893063  0.001
C  C98  1  0.78088268  0.82167963  0.37221879  1  0.176862  -0.001213  -0.082664  -0.259422  -0.001525  3.894085  0.001
C  C99  1  0.21908290  0.32170784  0.12784842  1  0.175429  0.001216  -0.08299  -0.259964  0.001524  3.893624  -0.001
N  N100  1  0.39613758  0.22759401  0.62135778  1  -0.975839  0.10821  -0.342355  -0.060307  0.072788  3.533157  0.093
N  N101  1  0.60389485  0.72759420  0.87857812  1  -0.975601  -0.108175  -0.342099  -0.059261  -0.072769  3.531358  -0.093
N  N102  1  0.60389257  0.77239214  0.37865120  1  -0.9758  -0.108236  -0.342552  -0.060174  -0.072802  3.53322  -0.093
N  N103  1  0.39611185  0.27239896  0.12140908  1  -0.976444  0.108231  -0.342112  -0.059145  0.072804  3.531801  0.093
O  O104  1  0.44545697  0.10042767  0.74643935  1  -1.183004  -0.002599  -0.314996  -0.572968  -0.001315  2.264918  -0.001
O  O105  1  0.55457310  0.60040927  0.75349050  1  -1.183883  0.002597  -0.314916  -0.572991  0.001313  2.264348  0.001
O  O106  1  0.55457073  0.89957650  0.25355989  1  -1.183105  0.002605  -0.314981  -0.573012  0.001318  2.264461  0.001
O  O107  1  0.44540104  0.39960291  0.24651379  1  -1.184136  -0.002599  -0.314869  -0.572888  -0.001314  2.26445  -0.001
O  O108  1  0.16598463  0.33449633  0.72689963  1  -1.092615  0.113621  -0.325259  -0.531515  0.074213  2.271829  0.102
O  O109  1  0.83408665  0.83453421  0.77306759  1  -1.092107  -0.11364  -0.325256  -0.531718  -0.074228  2.272238  -0.102
O  O110  1  0.83404976  0.66554487  0.27308747  1  -1.092353  -0.113614  -0.325049  -0.531316  -0.074211  2.272192  -0.102
O  O111  1  0.16591705  0.16552401  0.22695072  1  -1.091915  0.113662  -0.3254  -0.531825  0.074244  2.272452  0.102
O  O112  1  0.34032985  0.87581354  0.81482895  1  -1.258447  -0.061369  -0.587699  -0.778795  -0.041105  2.169145  -0.054
O  O113  1  0.65967514  0.37579736  0.68510173  1  -1.257161  0.061374  -0.587825  -0.779101  0.041112  2.16938  0.054
O  O114  1  0.65970259  0.12422766  0.18519086  1  -1.258002  0.06132  -0.587796  -0.778851  0.04107  2.169023  0.054
O  O115  1  0.34032271  0.62424884  0.31487642  1  -1.259115  -0.061353  -0.587937  -0.779151  -0.041095  2.168909  -0.054
O  O116  1  0.57364264  0.92281933  0.68679876  1  -1.118115  -0.079512  -0.322214  -0.517459  -0.052723  2.274005  -0.072
O  O117  1  0.42645002  0.42283867  0.81314736  1  -1.118642  0.079478  -0.321911  -0.517363  0.052712  2.273825  0.072
O  O118  1  0.42639790  0.07717783  0.31321706  1  -1.118863  0.079479  -0.322229  -0.517614  0.052698  2.2734  0.072
O  O119  1  0.57357242  0.57713947  0.18684438  1  -1.118637  -0.079441  -0.321832  -0.51728  -0.052683  2.273696  -0.072
O  O120  1  0.94523622  0.25732783  0.67174323  1  -1.172654  0.027337  -0.314132  -0.5272  0.017585  2.154471  0.022
O  O121  1  0.05482059  0.75733409  0.82824004  1  -1.172531  -0.027331  -0.314224  -0.527625  -0.017581  2.154117  -0.022
O  O122  1  0.05480131  0.74276641  0.32822094  1  -1.172685  -0.027371  -0.314346  -0.527409  -0.017605  2.153986  -0.022
O  O123  1  0.94517559  0.24275316  0.17178715  1  -1.172852  0.02733  -0.314333  -0.527522  0.017579  2.154112  0.022
F  F124  1  0.06238072  0.88281312  0.63003878  1  -0.617723  3.7e-05  -0.085511  -0.190146  -2.3e-05  1.34511  0.0
F  F125  1  0.93758560  0.38274986  0.86996957  1  -0.618245  -3.7e-05  -0.085589  -0.190283  2.3e-05  1.345311  0.0
F  F126  1  0.93753631  0.11717804  0.36995050  1  -0.617477  -3.7e-05  -0.085655  -0.190578  2.4e-05  1.345174  0.0
F  F127  1  0.06247077  0.61725230  0.13005024  1  -0.617972  3.8e-05  -0.085522  -0.190199  -2.3e-05  1.345427  0.0
F  F128  1  0.92209266  0.81660125  0.54058280  1  -0.627476  -0.000341  -0.097923  -0.215666  -0.00021  1.335991  0.0
F  F129  1  0.07756174  0.31669587  0.95960041  1  -0.627164  0.000341  -0.097927  -0.215669  0.00021  1.335981  0.0
F  F130  1  0.07774293  0.18339593  0.45942198  1  -0.627016  0.000341  -0.097896  -0.215792  0.00021  1.336501  0.0
F  F131  1  0.92254314  0.68332130  0.04041446  1  -0.627554  -0.000341  -0.097712  -0.215474  -0.00021  1.336498  0.0
F  F132  1  0.16817267  0.91648346  0.51587778  1  -0.6189  -0.0001  -0.113784  -0.235424  -8.2e-05  1.295576  0.0
F  F133  1  0.83137362  0.41660881  0.98404235  1  -0.618356  9.9e-05  -0.114293  -0.236114  8.1e-05  1.294209  0.0
F  F134  1  0.83169743  0.08343163  0.48409572  1  -0.618433  0.0001  -0.114058  -0.235888  8.1e-05  1.294974  0.0
F  F135  1  0.16867191  0.58337633  0.01596464  1  -0.618004  -9.9e-05  -0.114372  -0.236087  -8.1e-05  1.293997  0.0
