# generated using pymatgen
data_Cd3H26C30(N3O4)4
_symmetry_space_group_name_H-M   'P 1'
_cell_length_a   11.32395752
_cell_length_b   13.96593056
_cell_length_c   15.96184918
_cell_angle_alpha   95.08830469
_cell_angle_beta   109.36954529
_cell_angle_gamma   109.69776821
_symmetry_Int_Tables_number   1
_chemical_formula_structural   Cd3H26C30(N3O4)4
_chemical_formula_sum   'Cd6 H52 C60 N24 O32'
_cell_volume   2184.26149542
_cell_formula_units_Z   2
loop_
 _symmetry_equiv_pos_site_id
 _symmetry_equiv_pos_as_xyz
  1  'x, y, z'
loop_
 _atom_site_type_symbol
 _atom_site_label
 _atom_site_symmetry_multiplicity
 _atom_site_fract_x
 _atom_site_fract_y
 _atom_site_fract_z
 _atom_site_occupancy
 _atom_site_pbe_bader_charge
 _atom_site_pbe_bader_spin_density
 _atom_site_pbe_cm5_charge
 _atom_site_pbe_ddec_charge
 _atom_site_pbe_ddec_spin_density
 _atom_site_pbe_ddec_sum_bond_order
 _atom_site_pbe_magmom
Cd  Cd0  1  0.42136635  0.65310266  0.23835579  1  1.267174  0  0.77998  0.769221  0  2.356629  0
Cd  Cd1  1  0.57863826  0.34689878  0.76163725  1  1.267367  0  0.779942  0.769116  0  2.356548  0
Cd  Cd2  1  0.92524066  0.15545162  0.25211132  1  1.270374  0  0.77918  0.786915  0  2.323639  0
Cd  Cd3  1  0.07480119  0.84454247  0.74790264  1  1.270178  0  0.779154  0.786767  0  2.323803  0
Cd  Cd4  1  0.67446976  0.35888215  0.24398875  1  1.344669  0  0.762534  1.077538  0  1.990958  0
Cd  Cd5  1  0.32550848  0.64110315  0.75599524  1  1.344751  0  0.762579  1.077696  0  1.990998  0
H  H6  1  0.15383080  0.15898498  0.60876594  1  0.095368  0  0.113309  0.089586  0  1.0083  0
H  H7  1  0.84617568  0.84102711  0.39124321  1  0.095613  0  0.113337  0.089525  0  1.008366  0
H  H8  1  0.84406461  0.91312437  0.17530736  1  0.09859  0  0.129166  0.106243  0  0.975701  0
H  H9  1  0.15594091  0.08689285  0.82468870  1  0.098691  0  0.129178  0.106252  0  0.97588  0
H  H10  1  0.08609621  0.55724687  0.88322763  1  0.120141  0  0.115897  0.095407  0  1.039277  0
H  H11  1  0.91391809  0.44276400  0.11677327  1  0.120172  0  0.115896  0.0954  0  1.039271  0
H  H12  1  0.33602015  0.39316738  0.17892359  1  0.185125  0  0.129374  0.124042  0  1.002173  0
H  H13  1  0.66401441  0.60685526  0.82109344  1  0.185517  0  0.129389  0.124155  0  1.002243  0
H  H14  1  0.18235426  0.57265105  0.30104619  1  0.13146  0  0.13031  0.107433  0  0.966185  0
H  H15  1  0.81762100  0.42734444  0.69893455  1  0.131638  0  0.130314  0.107465  0  0.966077  0
H  H16  1  0.14915606  0.72564314  0.18364348  1  0.134673  0  0.124291  0.108011  0  0.985714  0
H  H17  1  0.85085452  0.27437481  0.81635445  1  0.134412  0  0.124297  0.107948  0  0.985794  0
H  H18  1  0.00568085  0.40839870  0.30811778  1  0.161998  0  0.126016  0.11738  0  1.015337  0
H  H19  1  0.99430942  0.59159516  0.69187331  1  0.161797  0  0.126006  0.117399  0  1.015275  0
H  H20  1  0.66600497  0.06212281  0.30283400  1  0.155985  0  0.12942  0.111548  0  0.988922  0
H  H21  1  0.33400203  0.93788147  0.69717733  1  0.156051  0  0.129417  0.111496  0  0.989072  0
H  H22  1  0.72743051  0.54914742  0.52792532  1  0.089396  0  0.1155  0.089408  0  1.000152  0
H  H23  1  0.27255394  0.45085656  0.47205747  1  0.089236  0  0.115479  0.089276  0  1.000066  0
H  H24  1  0.53012854  0.71660933  0.61402208  1  0.155673  0  0.116328  0.102931  0  1.029465  0
H  H25  1  0.46986448  0.28338802  0.38598302  1  0.155569  0  0.116369  0.103057  0  1.029389  0
H  H26  1  0.14794845  0.02897086  0.31423277  1  0.113256  0  0.123641  0.107109  0  0.988858  0
H  H27  1  0.85205066  0.97104147  0.68577903  1  0.112893  0  0.123622  0.107096  0  0.988895  0
H  H28  1  0.71706692  0.94073142  0.88096464  1  0.156396  0  0.116358  0.098142  0  1.04892  0
H  H29  1  0.28284211  0.05923288  0.11899737  1  0.156227  0  0.116356  0.098172  0  1.049112  0
H  H30  1  0.94454921  0.70496637  0.04153867  1  0.097907  0  0.124136  0.100658  0  0.961645  0
H  H31  1  0.05546754  0.29504208  0.95846204  1  0.097705  0  0.124152  0.100644  0  0.961628  0
H  H32  1  0.51144500  0.12075695  0.93648575  1  0.113905  0  0.113692  0.09253  0  1.010733  0
H  H33  1  0.48860703  0.87929853  0.06353921  1  0.113474  0  0.113658  0.092385  0  1.010754  0
H  H34  1  0.27983054  0.98480253  0.45737920  1  0.12554  0  0.130001  0.1115  0  0.961099  0
H  H35  1  0.72016628  0.01519314  0.54262545  1  0.125548  0  0.130038  0.111457  0  0.961064  0
H  H36  1  0.43672647  0.74368708  0.45323613  1  0.139025  0  0.126902  0.113683  0  0.977353  0
H  H37  1  0.56326663  0.25631748  0.54677380  1  0.139146  0  0.126895  0.113668  0  0.97728  0
H  H38  1  0.66770437  0.73583148  0.16711143  1  0.142639  0  0.135427  0.124595  0  0.961012  0
H  H39  1  0.33229418  0.26417611  0.83287177  1  0.142385  0  0.135442  0.124602  0  0.960935  0
H  H40  1  0.88874904  0.01048107  0.04240105  1  0.122557  0  0.12068  0.10065  0  0.990712  0
H  H41  1  0.11117929  0.98944370  0.95754191  1  0.135654  0  0.120685  0.100769  0  0.99061  0
H  H42  1  0.41446754  0.21214202  0.22561860  1  0.658713  0  0.294071  0.397246  0  0.942117  0
H  H43  1  0.58552469  0.78786428  0.77436930  1  0.658749  0  0.294015  0.397073  0  0.942303  0
H  H44  1  0.50958744  0.15300798  0.26887638  1  0.629027  0  0.318828  0.408743  0  0.885525  0
H  H45  1  0.49041040  0.84700537  0.73111513  1  0.628625  0  0.318813  0.408688  0  0.885574  0
H  H46  1  0.87570514  0.32043048  0.39352610  1  0.656705  0  0.282022  0.383384  0  0.964041  0
H  H47  1  0.12427489  0.67955645  0.60646154  1  0.656911  0  0.28206  0.383405  0  0.964004  0
H  H48  1  0.84144364  0.41636578  0.42952724  1  0.61881  0  0.316006  0.403716  0  0.886839  0
H  H49  1  0.15854777  0.58363014  0.57045485  1  0.618634  0  0.316057  0.403815  0  0.886547  0
H  H50  1  0.79831257  0.50949155  0.16033509  1  0.655378  0  0.283274  0.377847  0  0.974925  0
H  H51  1  0.20167948  0.49048098  0.83965393  1  0.655488  0  0.283146  0.3778  0  0.97498  0
H  H52  1  0.85632684  0.56686106  0.26572091  1  0.617444  0  0.321493  0.414366  0  0.867951  0
H  H53  1  0.14365537  0.43311935  0.73426060  1  0.617007  0  0.32139  0.414338  0  0.867781  0
H  H54  1  0.55293674  0.42852837  0.09365734  1  0.658473  0  0.301225  0.403257  0  0.911176  0
H  H55  1  0.44706525  0.57147169  0.90634002  1  0.658526  0  0.301271  0.40328  0  0.911148  0
H  H56  1  0.54940874  0.48789586  0.18035828  1  0.650328  0  0.28569  0.373261  0  0.978376  0
H  H57  1  0.45059629  0.51210114  0.81964463  1  0.650419  0  0.28566  0.373203  0  0.978428  0
C  C58  1  0.15168419  0.12688219  0.54320397  1  0.561078  0  0.052861  0.039072  0  3.925767  0
C  C59  1  0.84832662  0.87312747  0.45680669  1  0.56091  0  0.052948  0.039198  0  3.925899  0
C  C60  1  0.76458486  0.90587981  0.20143608  1  0.461688  0  0.050691  0.028683  0  3.939816  0
C  C61  1  0.23541292  0.09412996  0.79856774  1  0.461143  0  0.050636  0.028634  0  3.938929  0
C  C62  1  0.17006692  0.30627380  0.21692336  1  0.557918  0  0.129354  0.067927  0  3.9556  0
C  C63  1  0.82995520  0.69373768  0.78307817  1  0.557814  0  0.12926  0.067675  0  3.955556  0
C  C64  1  0.60363931  0.60155499  0.42314893  1  0.512883  0  0.115093  0.062377  0  3.964449  0
C  C65  1  0.39632753  0.39844410  0.57684068  1  0.511663  0  0.115217  0.06273  0  3.964314  0
C  C66  1  0.20871508  0.60174172  0.02815657  1  0.480056  0  0.115914  0.061022  0  3.943053  0
C  C67  1  0.79129758  0.39827313  0.97184480  1  0.480183  0  0.115864  0.060828  0  3.943142  0
C  C68  1  0.16931599  0.19909861  0.18757171  1  1.643109  0  0.20833  0.549053  0  4.246469  0
C  C69  1  0.83071439  0.80091432  0.81243248  1  1.643801  0  0.208556  0.549529  0  4.245941  0
C  C70  1  0.09861654  0.59380131  0.95047630  1  0.537427  0  0.049701  0.029494  0  3.923213  0
C  C71  1  0.90139867  0.40621653  0.04952208  1  0.537297  0  0.049708  0.02952  0  3.923143  0
C  C72  1  0.26444268  0.39727908  0.20972532  1  0.53302  0  0.075444  0.062878  0  3.854021  0
C  C73  1  0.73556933  0.60273282  0.79028200  1  0.532399  0  0.075446  0.062724  0  3.853961  0
C  C74  1  0.17794611  0.49566070  0.27628690  1  0.443458  0  0.060152  0.048659  0  3.910245  0
C  C75  1  0.82203795  0.50433553  0.72369973  1  0.443532  0  0.060137  0.048617  0  3.910355  0
C  C76  1  0.13172066  0.68630368  0.11581632  1  0.49751  0  0.054444  0.049343  0  3.925978  0
C  C77  1  0.86829528  0.31370326  0.88418599  1  0.497767  0  0.054425  0.049531  0  3.926008  0
C  C78  1  0.08121037  0.40557422  0.28082942  1  0.54055  0  0.062726  0.063759  0  3.891219  0
C  C79  1  0.91878019  0.59442192  0.71915936  1  0.540981  0  0.062684  0.063615  0  3.89087  0
C  C80  1  0.45646904  0.88542050  0.30299181  1  1.649977  0  0.187229  0.534921  0  4.302327  0
C  C81  1  0.54353463  0.11456870  0.69701221  1  1.650366  0  0.187247  0.535018  0  4.302105  0
C  C82  1  0.66559268  0.98964343  0.27135353  1  0.533335  0  0.078365  0.063737  0  3.8955  0
C  C83  1  0.33441754  0.01036163  0.72866048  1  0.53369  0  0.07842  0.063918  0  3.895928  0
C  C84  1  0.31696391  0.56203601  0.02344295  1  1.649856  0  0.207189  0.552468  0  4.245109  0
C  C85  1  0.68303960  0.43796866  0.97655191  1  1.649486  0  0.207392  0.552918  0  4.24484  0
C  C86  1  0.62613336  0.55018155  0.34592453  1  1.599908  0  0.209079  0.552448  0  4.232315  0
C  C87  1  0.37384008  0.44981772  0.65407668  1  1.600051  0  0.209139  0.552728  0  4.232218  0
C  C88  1  0.66057058  0.59155705  0.51244481  1  0.547836  0  0.052559  0.03692  0  3.94091  0
C  C89  1  0.33941029  0.40844029  0.48754990  1  0.548431  0  0.052585  0.037015  0  3.940857  0
C  C90  1  0.55377387  0.68489232  0.55941308  1  0.48017  0  0.052865  0.052344  0  3.916133  0
C  C91  1  0.44621275  0.31509652  0.44059126  1  0.479912  0  0.052855  0.052212  0  3.915897  0
C  C92  1  0.14725771  0.05514406  0.38046661  1  0.500615  0  0.053842  0.047003  0  3.922491  0
C  C93  1  0.85274944  0.94485878  0.61954968  1  0.500899  0  0.05382  0.047017  0  3.922759  0
C  C94  1  0.00047209  0.22023086  0.46974438  1  1.61202  0  0.195557  0.535968  0  4.274863  0
C  C95  1  0.99954817  0.77979129  0.53027112  1  1.611584  0  0.195469  0.535701  0  4.275217  0
C  C96  1  0.70728288  0.99630738  0.92818762  1  0.495868  0  0.05685  0.059387  0  3.90772  0
C  C97  1  0.29266149  0.00365650  0.07178899  1  0.495469  0  0.056788  0.059047  0  3.908031  0
C  C98  1  0.68903883  0.13125423  0.04891568  1  0.495498  0  0.112043  0.064373  0  3.974869  0
C  C99  1  0.31097222  0.86872068  0.95108925  1  0.494461  0  0.111993  0.064158  0  3.975326  0
C  C100  1  0.02149310  0.67612470  0.03764420  1  0.502605  0  0.054105  0.044395  0  3.95972  0
C  C101  1  0.97851584  0.32388316  0.96235714  1  0.502774  0  0.054004  0.044206  0  3.959943  0
C  C102  1  0.59452453  0.09398235  0.95866352  1  0.528806  0  0.052331  0.035278  0  3.926453  0
C  C103  1  0.40548345  0.90603610  0.04134949  1  0.529855  0  0.052528  0.035663  0  3.926656  0
C  C104  1  0.07659128  0.15009164  0.46439488  1  0.474302  0  0.111131  0.05799  0  3.956767  0
C  C105  1  0.92342767  0.84992281  0.53562488  1  0.473963  0  0.111149  0.058048  0  3.95674  0
C  C106  1  0.56872196  0.89296062  0.26704962  1  0.586687  0  0.134686  0.079689  0  3.925807  0
C  C107  1  0.43129023  0.10704108  0.73295840  1  0.586347  0  0.134731  0.079678  0  3.925574  0
C  C108  1  0.22047717  0.03178394  0.45971611  1  0.525549  0  0.061355  0.054221  0  3.924299  0
C  C109  1  0.77952660  0.96821249  0.54029336  1  0.525835  0  0.061334  0.05423  0  3.924286  0
C  C110  1  0.49997126  0.69853276  0.47095468  1  0.482382  0  0.056513  0.049373  0  3.911493  0
C  C111  1  0.49999673  0.30145803  0.52904725  1  0.4825  0  0.056632  0.049547  0  3.911457  0
C  C112  1  0.66992888  0.80999656  0.19714615  1  0.50521  0  0.061167  0.0558  0  3.914025  0
C  C113  1  0.33008617  0.19001569  0.80284874  1  0.506054  0  0.061284  0.055998  0  3.913529  0
C  C114  1  0.67858362  0.20844361  0.11494759  1  1.58018  0  0.192092  0.518916  0  4.283312  0
C  C115  1  0.32144353  0.79153182  0.88508813  1  1.579092  0  0.192397  0.518984  0  4.282857  0
C  C116  1  0.80257536  0.03365339  0.01807467  1  0.487608  0  0.053144  0.046655  0  3.927767  0
C  C117  1  0.19738091  0.96630287  0.98189303  1  0.474547  0  0.053241  0.046809  0  3.927462  0
N  N118  1  0.57441324  0.80558716  0.23076533  1  -1.213767  0  -0.310351  -0.196782  0  3.51972  0
N  N119  1  0.42559818  0.19441834  0.76923771  1  -1.214374  0  -0.31046  -0.196899  0  3.519907  0
N  N120  1  0.07929833  0.31207903  0.25128376  1  -1.216628  0  -0.308717  -0.203144  0  3.540467  0
N  N121  1  0.92070773  0.68792161  0.74871021  1  -1.216895  0  -0.308634  -0.20288  0  3.540018  0
N  N122  1  0.26831667  0.49099270  0.24044028  1  -1.213382  0  -0.309015  -0.194909  0  3.523451  0
N  N123  1  0.73168585  0.50901363  0.75955694  1  -1.213492  0  -0.308999  -0.194756  0  3.523501  0
N  N124  1  0.22366287  0.64852688  0.11031028  1  -1.201842  0  -0.301051  -0.217261  0  3.480898  0
N  N125  1  0.77634966  0.35148243  0.88968948  1  -1.20168  0  -0.300983  -0.217214  0  3.48082  0
N  N126  1  0.79219817  0.09972305  0.07863864  1  -1.190828  0  -0.300283  -0.229618  0  3.453602  0
N  N127  1  0.20779939  0.90024225  0.92134938  1  -1.190294  0  -0.30037  -0.229566  0  3.454143  0
N  N128  1  0.52478546  0.65640695  0.40323420  1  -1.195429  0  -0.299556  -0.222246  0  3.472885  0
N  N129  1  0.47518312  0.34358845  0.59676501  1  -1.195426  0  -0.299878  -0.222758  0  3.473191  0
N  N130  1  0.07424213  0.11281145  0.38308267  1  -1.203533  0  -0.303433  -0.227909  0  3.471131  0
N  N131  1  0.92577216  0.88720303  0.61693410  1  -1.203316  0  -0.303371  -0.227947  0  3.471487  0
N  N132  1  0.76181243  0.99503106  0.23926446  1  -1.218411  0  -0.315402  -0.190284  0  3.529971  0
N  N133  1  0.23820047  0.00497370  0.76074139  1  -1.21856  0  -0.315512  -0.190484  0  3.530217  0
N  N134  1  0.63558762  0.63234497  0.58053567  1  -1.172323  0  -0.300421  -0.217462  0  3.322419  0
N  N135  1  0.36440471  0.36765455  0.41946251  1  -1.172094  0  -0.300355  -0.217395  0  3.32195  0
N  N136  1  0.00489903  0.63018886  0.95484294  1  -1.178074  0  -0.300983  -0.213582  0  3.325636  0
N  N137  1  0.99511700  0.36982350  0.04515658  1  -1.177994  0  -0.300918  -0.213428  0  3.325574  0
N  N138  1  0.60167299  0.02531214  0.89837942  1  -1.170426  0  -0.298606  -0.21751  0  3.304133  0
N  N139  1  0.39830039  0.97469920  0.10160430  1  -1.170083  0  -0.298689  -0.217502  0  3.304759  0
N  N140  1  0.22185990  0.06698218  0.54118736  1  -1.174989  0  -0.294946  -0.209364  0  3.309962  0
N  N141  1  0.77815176  0.93302207  0.45882694  1  -1.175275  0  -0.295089  -0.209392  0  3.310489  0
O  O142  1  0.60013217  0.58365966  0.27302348  1  -1.171594  0  -0.314861  -0.539544  0  2.286573  0
O  O143  1  0.39984317  0.41634308  0.72696334  1  -1.171596  0  -0.314895  -0.539624  0  2.286816  0
O  O144  1  0.07680042  0.11953270  0.19159807  1  -1.177231  0  -0.330873  -0.556193  0  2.258559  0
O  O145  1  0.92326443  0.88048181  0.80843443  1  -1.177666  0  -0.33105  -0.556526  0  2.258306  0
O  O146  1  0.41923353  0.58328281  0.09621195  1  -1.16352  0  -0.319449  -0.517614  0  2.262299  0
O  O147  1  0.58078442  0.41674192  0.90378185  1  -1.163412  0  -0.319587  -0.517857  0  2.262299  0
O  O148  1  0.91791637  0.22360276  0.39233756  1  -1.177299  0  -0.329696  -0.551171  0  2.291398  0
O  O149  1  0.08211681  0.77641899  0.60767471  1  -1.176967  0  -0.329661  -0.551045  0  2.291436  0
O  O150  1  0.85608432  0.38444450  0.37928598  1  -1.244689  0  -0.584201  -0.772046  0  2.088927  0
O  O151  1  0.14388103  0.61553944  0.62069488  1  -1.244843  0  -0.584288  -0.772175  0  2.088613  0
O  O152  1  0.29786946  0.51168651  0.94668534  1  -1.191596  0  -0.322989  -0.567675  0  2.214499  0
O  O153  1  0.70211744  0.48829757  0.05331817  1  -1.191538  0  -0.322994  -0.56777  0  2.214343  0
O  O154  1  0.44925613  0.96982220  0.32822958  1  -1.154086  0  -0.347186  -0.551715  0  2.041765  0
O  O155  1  0.55072306  0.03015792  0.67176624  1  -1.153904  0  -0.347135  -0.551779  0  2.041669  0
O  O156  1  0.26306704  0.19910376  0.16134830  1  -1.184074  0  -0.3192  -0.545957  0  2.197903  0
O  O157  1  0.73695056  0.80091672  0.83863451  1  -1.184014  0  -0.319213  -0.54601  0  2.197936  0
O  O158  1  0.52530295  0.41648555  0.14550688  1  -1.258571  0  -0.58515  -0.758264  0  2.110224  0
O  O159  1  0.47469157  0.58351634  0.85449321  1  -1.258663  0  -0.585136  -0.758236  0  2.11034  0
O  O160  1  0.84753537  0.50636902  0.22495333  1  -1.245944  0  -0.580265  -0.778762  0  2.032013  0
O  O161  1  0.15247372  0.49361968  0.77503816  1  -1.245678  0  -0.580011  -0.778688  0  2.031896  0
O  O162  1  0.75666944  0.22963868  0.19968586  1  -1.161202  0  -0.328695  -0.555236  0  2.308779  0
O  O163  1  0.24336080  0.77031433  0.80033863  1  -1.160679  0  -0.328962  -0.555379  0  2.308064  0
O  O164  1  0.38119607  0.79316992  0.30296411  1  -1.178407  0  -0.350534  -0.580911  0  2.234311  0
O  O165  1  0.61882608  0.20681355  0.69704708  1  -1.178553  0  -0.350543  -0.58089  0  2.234176  0
O  O166  1  0.66624043  0.47654951  0.35982065  1  -1.160181  0  -0.31888  -0.560665  0  2.235884  0
O  O167  1  0.33374262  0.52345720  0.64017387  1  -1.159808  0  -0.318896  -0.560846  0  2.235936  0
O  O168  1  0.02420933  0.26932748  0.54640956  1  -1.163236  0  -0.345665  -0.54286  0  2.038314  0
O  O169  1  0.97579413  0.73068952  0.45360418  1  -1.162908  0  -0.345675  -0.542765  0  2.038408  0
O  O170  1  0.59569323  0.25012767  0.08414145  1  -1.146856  0  -0.311388  -0.521451  0  2.158894  0
O  O171  1  0.40434535  0.74985349  0.91591172  1  -1.146189  0  -0.311411  -0.521341  0  2.158474  0
O  O172  1  0.50775187  0.22241267  0.26911261  1  -1.245634  0  -0.569813  -0.760437  0  2.034447  0
O  O173  1  0.49223105  0.77759915  0.73089533  1  -1.245381  0  -0.569749  -0.760223  0  2.034772  0
