# generated using pymatgen
data_KH24C12(BrO2)3
_symmetry_space_group_name_H-M   'P 1'
_cell_length_a   7.95349794
_cell_length_b   8.95202405
_cell_length_c   14.02802126
_cell_angle_alpha   104.38935850
_cell_angle_beta   89.99999474
_cell_angle_gamma   89.99998144
_symmetry_Int_Tables_number   1
_chemical_formula_structural   KH24C12(BrO2)3
_chemical_formula_sum   'K2 H48 C24 Br6 O12'
_cell_volume   967.46095224
_cell_formula_units_Z   2
loop_
 _symmetry_equiv_pos_site_id
 _symmetry_equiv_pos_as_xyz
  1  'x, y, z'
loop_
 _atom_site_type_symbol
 _atom_site_label
 _atom_site_symmetry_multiplicity
 _atom_site_fract_x
 _atom_site_fract_y
 _atom_site_fract_z
 _atom_site_occupancy
 _atom_site_hle17_bader_spin_density
 _atom_site_hle17_ddec_charge
 _atom_site_hle17_ddec_spin_density
 _atom_site_hle17_ddec_sum_bond_order
 _atom_site_hle17_magmom
 _atom_site_hse06_10hf_bader_spin_density
 _atom_site_hse06_10hf_ddec_charge
 _atom_site_hse06_10hf_ddec_spin_density
 _atom_site_hse06_10hf_ddec_sum_bond_order
 _atom_site_hse06_10hf_magmom
 _atom_site_hse06_bader_spin_density
 _atom_site_hse06_ddec_charge
 _atom_site_hse06_ddec_spin_density
 _atom_site_hse06_ddec_sum_bond_order
 _atom_site_hse06_magmom
 _atom_site_pbe_bader_spin_density
 _atom_site_pbe_cm5_charge
 _atom_site_pbe_ddec_charge
 _atom_site_pbe_ddec_spin_density
 _atom_site_pbe_ddec_sum_bond_order
 _atom_site_pbe_magmom
K  K0  1  0.50000126  0.49999930  0.50000005  1  0  0.874753  0  0.518704  0  0  0.790312  0  0.72916  0  0  0.808386  0  0.706425  0  0  0.695565  0.777186  0  0.745103  0
K  K1  1  0.99999900  0.00000099  0.00000013  1  0  0.874759  0  0.518695  0  0  0.790315  0  0.729152  0  0  0.808393  0  0.706415  0  0  0.695565  0.777189  0  0.745098  0
H  H2  1  0.36615315  0.79770756  0.81402488  1  0  0.052074  0  0.950913  0  0  0.059488  0  1.028261  0  0  0.060108  0  1.02738  0  0  0.092537  0.058643  0  1.029219  0
H  H3  1  0.86615331  0.70229269  0.68597493  1  0  0.052077  0  0.950935  0  0  0.059496  0  1.028283  0  0  0.060116  0  1.027402  0  0  0.092534  0.058653  0  1.029234  0
H  H4  1  0.63384685  0.20229219  0.18597540  1  0  0.052084  0  0.950899  0  0  0.059507  0  1.028256  0  0  0.060128  0  1.027374  0  0  0.092541  0.058661  0  1.029205  0
H  H5  1  0.13384795  0.29770822  0.31402482  1  0  0.052073  0  0.950907  0  0  0.059487  0  1.02826  0  0  0.060107  0  1.027378  0  0  0.09254  0.058644  0  1.029211  0
H  H6  1  0.57415221  0.77140961  0.76546136  1  0  0.062368  0  0.931513  0  0  0.074957  0  0.998462  0  0  0.075874  0  0.997732  0  0  0.101137  0.074053  0  0.999231  0
H  H7  1  0.07415209  0.72858958  0.73454043  1  0  0.062386  0  0.931457  0  0  0.074991  0  0.998398  0  0  0.075909  0  0.997668  0  0  0.101149  0.074077  0  0.999181  0
H  H8  1  0.42584779  0.22859014  0.23454034  1  0  0.062348  0  0.931464  0  0  0.074962  0  0.99841  0  0  0.075879  0  0.997682  0  0  0.101134  0.074043  0  0.999192  0
H  H9  1  0.92584917  0.27141017  0.26546056  1  0  0.062391  0  0.931456  0  0  0.074983  0  0.9984  0  0  0.0759  0  0.99767  0  0  0.101137  0.074068  0  0.999181  0
H  H10  1  0.46926632  0.55817965  0.83995709  1  0  0.049319  0  0.94555  0  0  0.062976  0  1.014015  0  0  0.063191  0  1.013976  0  0  0.09317  0.062654  0  1.014379  0
H  H11  1  0.96926639  0.94181941  0.66004323  1  0  0.049289  0  0.94553  0  0  0.062954  0  1.014006  0  0  0.063169  0  1.013969  0  0  0.093162  0.06263  0  1.014373  0
H  H12  1  0.53073368  0.44182010  0.16004318  1  0  0.049298  0  0.94552  0  0  0.062964  0  1.01399  0  0  0.06318  0  1.013952  0  0  0.093163  0.062637  0  1.014357  0
H  H13  1  0.03073361  0.05818034  0.33995704  1  0  0.049289  0  0.945518  0  0  0.062957  0  1.013996  0  0  0.063173  0  1.013957  0  0  0.093154  0.06263  0  1.014362  0
H  H14  1  0.31394851  0.51155762  0.74454174  1  0  0.046039  0  0.935721  0  0  0.055864  0  1.011496  0  0  0.057068  0  1.009492  0  0  0.095117  0.054886  0  1.013028  0
H  H15  1  0.81394855  0.98844149  0.75545932  1  0  0.046006  0  0.935689  0  0  0.055843  0  1.011475  0  0  0.057048  0  1.009471  0  0  0.095117  0.054864  0  1.013005  0
H  H16  1  0.68605149  0.48844213  0.25545925  1  0  0.046013  0  0.935719  0  0  0.055848  0  1.011499  0  0  0.057052  0  1.009496  0  0  0.095119  0.054865  0  1.013029  0
H  H17  1  0.18605145  0.01155826  0.24454167  1  0  0.046034  0  0.935723  0  0  0.055871  0  1.011507  0  0  0.057076  0  1.009502  0  0  0.095114  0.054888  0  1.013036  0
H  H18  1  0.44043630  0.26525866  0.69311772  1  0  0.051743  0  0.932753  0  0  0.066208  0  1.000051  0  0  0.06679  0  0.999602  0  0  0.095178  0.065709  0  1.000434  0
H  H19  1  0.94043517  0.23474121  0.80688230  1  0  0.051739  0  0.932756  0  0  0.066208  0  1.000059  0  0  0.066791  0  0.999609  0  0  0.095171  0.065713  0  1.00044  0
H  H20  1  0.55956370  0.73474109  0.30688255  1  0  0.05173  0  0.932738  0  0  0.066203  0  1.000046  0  0  0.066786  0  0.999596  0  0  0.095163  0.065709  0  1.000427  0
H  H21  1  0.05956483  0.76525854  0.19311726  1  0  0.051748  0  0.932706  0  0  0.066218  0  1.000016  0  0  0.066801  0  0.999566  0  0  0.095159  0.065726  0  1.000391  0
H  H22  1  0.61459110  0.30923563  0.77638561  1  0  0.044252  0  0.956141  0  0  0.054475  0  1.032323  0  0  0.055215  0  1.031367  0  0  0.085997  0.053886  0  1.033075  0
H  H23  1  0.11458974  0.19076205  0.72361409  1  0  0.044255  0  0.956155  0  0  0.054488  0  1.032327  0  0  0.05523  0  1.031369  0  0  0.085994  0.0539  0  1.033082  0
H  H24  1  0.38541015  0.69076182  0.22361430  1  0  0.044247  0  0.956136  0  0  0.054483  0  1.032317  0  0  0.055223  0  1.031361  0  0  0.085989  0.053896  0  1.033068  0
H  H25  1  0.88541026  0.80923770  0.27638548  1  0  0.044252  0  0.956146  0  0  0.054483  0  1.032329  0  0  0.055228  0  1.031369  0  0  0.085991  0.053896  0  1.033083  0
H  H26  1  0.80613200  0.28445606  0.62585819  1  0  0.051736  0  0.94059  0  0  0.061187  0  1.014995  0  0  0.061918  0  1.01404  0  0  0.09246  0.060422  0  1.016072  0
H  H27  1  0.30613061  0.21554386  0.87414256  1  0  0.051721  0  0.940654  0  0  0.061187  0  1.015051  0  0  0.061919  0  1.014093  0  0  0.092454  0.060419  0  1.01613  0
H  H28  1  0.19386800  0.71554369  0.37414208  1  0  0.051731  0  0.940597  0  0  0.061186  0  1.015006  0  0  0.061917  0  1.014051  0  0  0.092454  0.060418  0  1.016082  0
H  H29  1  0.69386939  0.78445704  0.12585790  1  0  0.051744  0  0.940632  0  0  0.061205  0  1.015025  0  0  0.061937  0  1.014069  0  0  0.092455  0.060435  0  1.016104  0
H  H30  1  0.70441955  0.11057308  0.63519595  1  0  0.044558  0  0.943181  0  0  0.059555  0  1.012508  0  0  0.059446  0  1.012392  0  0  0.09619  0.059435  0  1.012875  0
H  H31  1  0.20442187  0.38942688  0.86480197  1  0  0.044564  0  0.943157  0  0  0.059558  0  1.012497  0  0  0.059448  0  1.012382  0  0  0.096175  0.059438  0  1.012865  0
H  H32  1  0.29557919  0.88942667  0.36480362  1  0  0.044554  0  0.943187  0  0  0.059556  0  1.012514  0  0  0.059446  0  1.012399  0  0  0.096186  0.059434  0  1.012881  0
H  H33  1  0.79557939  0.61057403  0.13519636  1  0  0.04459  0  0.943178  0  0  0.05958  0  1.01251  0  0  0.059471  0  1.012395  0  0  0.096197  0.05946  0  1.012874  0
H  H34  1  0.70527455  0.00072495  0.46043362  1  0  0.054666  0  0.956624  0  0  0.068544  0  1.026423  0  0  0.06898  0  1.025744  0  0  0.085884  0.067873  0  1.027503  0
H  H35  1  0.20527688  0.49927659  0.03956748  1  0  0.054781  0  0.956585  0  0  0.068623  0  1.026379  0  0  0.06906  0  1.0257  0  0  0.08592  0.067945  0  1.027458  0
H  H36  1  0.29472293  0.99927596  0.53956684  1  0  0.054704  0  0.956561  0  0  0.068576  0  1.026366  0  0  0.069014  0  1.025688  0  0  0.085904  0.067904  0  1.027445  0
H  H37  1  0.79472563  0.50072431  0.96043369  1  0  0.054709  0  0.956582  0  0  0.068586  0  1.026375  0  0  0.069022  0  1.025695  0  0  0.08591  0.067915  0  1.02745  0
H  H38  1  0.82704107  0.16524927  0.45163679  1  0  0.050117  0  0.956987  0  0  0.058949  0  1.033322  0  0  0.059413  0  1.032756  0  0  0.089679  0.058287  0  1.03434  0
H  H39  1  0.32704095  0.33474992  0.04836251  1  0  0.050144  0  0.956987  0  0  0.058959  0  1.033303  0  0  0.059421  0  1.03274  0  0  0.089672  0.058289  0  1.034322  0
H  H40  1  0.17295767  0.83474933  0.54836402  1  0  0.050099  0  0.95698  0  0  0.05894  0  1.033313  0  0  0.059407  0  1.032745  0  0  0.089662  0.058274  0  1.034339  0
H  H41  1  0.67295780  0.66524867  0.95163687  1  0  0.050106  0  0.956985  0  0  0.058938  0  1.033321  0  0  0.059401  0  1.032757  0  0  0.089672  0.058273  0  1.034344  0
H  H42  1  0.32534970  0.96466244  0.70495002  1  0  0.058693  0  0.941657  0  0  0.073893  0  1.005209  0  0  0.07431  0  1.005185  0  0  0.101632  0.073648  0  1.005128  0
H  H43  1  0.82534864  0.53533667  0.79504961  1  0  0.058664  0  0.941677  0  0  0.07386  0  1.005239  0  0  0.074276  0  1.005214  0  0  0.101607  0.073617  0  1.005156  0
H  H44  1  0.67465030  0.03533731  0.29505025  1  0  0.058686  0  0.941667  0  0  0.073881  0  1.005233  0  0  0.074297  0  1.005208  0  0  0.101624  0.07364  0  1.00515  0
H  H45  1  0.17465010  0.46466193  0.20494977  1  0  0.058684  0  0.941673  0  0  0.073882  0  1.005231  0  0  0.074298  0  1.005206  0  0  0.101622  0.073635  0  1.005153  0
H  H46  1  0.52190726  0.91685696  0.64161665  1  0  0.046823  0  0.929233  0  0  0.06079  0  0.997218  0  0  0.061793  0  0.995865  0  0  0.096272  0.059864  0  0.99842  0
H  H47  1  0.02190591  0.58314340  0.85838319  1  0  0.046819  0  0.92925  0  0  0.060792  0  0.997229  0  0  0.061797  0  0.995874  0  0  0.09627  0.059865  0  0.998432  0
H  H48  1  0.47809400  0.08314394  0.35838309  1  0  0.046841  0  0.929214  0  0  0.060809  0  0.997197  0  0  0.061812  0  0.995844  0  0  0.096278  0.059882  0  0.998401  0
H  H49  1  0.97809409  0.41685635  0.14161709  1  0  0.046847  0  0.929205  0  0  0.060816  0  0.997188  0  0  0.061818  0  0.995834  0  0  0.096282  0.059887  0  0.998393  0
C  C50  1  0.44452875  0.72572515  0.75523735  1  0  0.049855  0  3.671342  0  0  -0.007738  0  3.94339  0  0  -0.001845  0  3.949344  0  0  -0.078722  -0.011544  0  3.93932  0
C  C51  1  0.94452887  0.77427507  0.74476387  1  0  0.049783  0  3.671329  0  0  -0.007832  0  3.943422  0  0  -0.001938  0  3.949377  0  0  -0.078747  -0.011631  0  3.939348  0
C  C52  1  0.55547125  0.27427575  0.24476311  1  0  0.049848  0  3.671237  0  0  -0.007803  0  3.943375  0  0  -0.001911  0  3.949331  0  0  -0.078754  -0.011597  0  3.939292  0
C  C53  1  0.05547113  0.22572468  0.25523640  1  0  0.04984  0  3.671307  0  0  -0.007749  0  3.943384  0  0  -0.001855  0  3.949338  0  0  -0.078723  -0.011556  0  3.939315  0
C  C54  1  0.44069650  0.56115816  0.76339154  1  0  0.057874  0  3.677429  0  0  -0.002268  0  3.949548  0  0  0.004128  0  3.955536  0  0  -0.078173  -0.00639  0  3.945029  0
C  C55  1  0.94069657  0.93884090  0.73660878  1  0  0.058006  0  3.677298  0  0  -0.002186  0  3.949481  0  0  0.004205  0  3.955477  0  0  -0.078159  -0.006303  0  3.944955  0
C  C56  1  0.55930476  0.43884158  0.23660873  1  0  0.05797  0  3.677313  0  0  -0.002203  0  3.94949  0  0  0.004195  0  3.955473  0  0  -0.078155  -0.006314  0  3.944957  0
C  C57  1  0.05930469  0.06115885  0.26339149  1  0  0.057942  0  3.677424  0  0  -0.002272  0  3.949602  0  0  0.004121  0  3.955591  0  0  -0.078172  -0.00638  0  3.945071  0
C  C58  1  0.56800783  0.31601397  0.70321143  1  0  0.053488  0  3.677508  0  0  -0.004896  0  3.948159  0  0  0.000997  0  3.954404  0  0  -0.080036  -0.008784  0  3.943612  0
C  C59  1  0.06800772  0.18398603  0.79678792  1  0  0.053478  0  3.677544  0  0  -0.004928  0  3.94823  0  0  0.00096  0  3.954478  0  0  -0.080031  -0.008821  0  3.943694  0
C  C60  1  0.43199217  0.68398463  0.29678795  1  0  0.053553  0  3.677396  0  0  -0.004877  0  3.948123  0  0  0.001012  0  3.954369  0  0  -0.079986  -0.008778  0  3.943587  0
C  C61  1  0.93199228  0.81601488  0.20321182  1  0  0.053539  0  3.677429  0  0  -0.004906  0  3.948152  0  0  0.00098  0  3.954394  0  0  -0.080008  -0.008807  0  3.943613  0
C  C62  1  0.68267815  0.22678322  0.62365863  1  0  0.057804  0  3.677085  0  0  -0.001714  0  3.948483  0  0  0.004532  0  3.955238  0  0  -0.0782  -0.005794  0  3.943701  0
C  C63  1  0.18267674  0.27321673  0.87634071  1  0  0.057808  0  3.677229  0  0  -0.001731  0  3.948649  0  0  0.004512  0  3.95541  0  0  -0.078206  -0.005817  0  3.943882  0
C  C64  1  0.31732185  0.77321653  0.37634093  1  0  0.057784  0  3.677077  0  0  -0.00174  0  3.948512  0  0  0.004505  0  3.955269  0  0  -0.078217  -0.005818  0  3.943731  0
C  C65  1  0.81732200  0.72678417  0.12365904  1  0  0.057708  0  3.677216  0  0  -0.001803  0  3.948616  0  0  0.004441  0  3.955376  0  0  -0.07823  -0.005876  0  3.943832  0
C  C66  1  0.69781492  0.11989077  0.45137108  1  0  0.054084  0  3.667152  0  0  -0.002397  0  3.934062  0  0  0.003547  0  3.940601  0  0  -0.081185  -0.006271  0  3.929576  0
C  C67  1  0.19781478  0.38011076  0.04862932  1  0  0.05389  0  3.667262  0  0  -0.002489  0  3.934036  0  0  0.003456  0  3.940575  0  0  -0.081216  -0.006348  0  3.929536  0
C  C68  1  0.30218382  0.88010898  0.54862991  1  0  0.054044  0  3.667115  0  0  -0.002458  0  3.934049  0  0  0.003492  0  3.940573  0  0  -0.081208  -0.006333  0  3.929569  0
C  C69  1  0.80218396  0.61989014  0.95137114  1  0  0.054036  0  3.667093  0  0  -0.00245  0  3.93401  0  0  0.003497  0  3.940548  0  0  -0.08122  -0.006322  0  3.929521  0
C  C70  1  0.38898839  0.88146244  0.64429068  1  0  0.06323  0  3.66346  0  0  0.005356  0  3.932719  0  0  0.011262  0  3.939001  0  0  -0.076125  0.001568  0  3.928061  0
C  C71  1  0.88898729  0.61853665  0.85570966  1  0  0.063285  0  3.663417  0  0  0.005392  0  3.932683  0  0  0.011304  0  3.938951  0  0  -0.076096  0.001602  0  3.928024  0
C  C72  1  0.61101161  0.11853847  0.35570978  1  0  0.06326  0  3.663414  0  0  0.005368  0  3.932693  0  0  0.011281  0  3.93896  0  0  -0.07611  0.001571  0  3.928043  0
C  C73  1  0.11101145  0.38146195  0.14429044  1  0  0.063259  0  3.663425  0  0  0.005348  0  3.932673  0  0  0.01126  0  3.938942  0  0  -0.07613  0.001554  0  3.92802  0
Br  Br74  1  0.83176845  0.72488471  0.46404874  1  0  -0.338892  0  0.983935  0  0  -0.319837  0  1.274922  0  0  -0.329623  0  1.257291  0  0  -0.157347  -0.313051  0  1.288429  0
Br  Br75  1  0.33176835  0.77511713  0.03595212  1  0  -0.338905  0  0.983977  0  0  -0.319848  0  1.274967  0  0  -0.329631  0  1.257336  0  0  -0.15735  -0.313061  0  1.288477  0
Br  Br76  1  0.16823155  0.27511619  0.53595243  1  0  -0.338898  0  0.983961  0  0  -0.319841  0  1.274954  0  0  -0.329627  0  1.257322  0  0  -0.157347  -0.313059  0  1.288469  0
Br  Br77  1  0.66823165  0.22488377  0.96404762  1  0  -0.338898  0  0.983945  0  0  -0.319847  0  1.274942  0  0  -0.329631  0  1.25731  0  0  -0.157351  -0.313061  0  1.288453  0
Br  Br78  1  0.00000013  0.49999921  0.50000002  1  0  -0.069481  0  1.400807  0  0  -0.048355  0  1.755432  0  0  -0.036094  0  1.735579  0  0  0.001951  -0.056291  0  1.770433  0
Br  Br79  1  0.49999987  0.99999868  0.99999941  1  0  -0.069472  0  1.40083  0  0  -0.048342  0  1.755453  0  0  -0.036084  0  1.735601  0  0  0.001962  -0.056285  0  1.770464  0
O  O80  1  0.38116921  0.73020133  0.66052328  1  0  -0.339615  0  2.285719  0  0  -0.268664  0  2.540927  0  0  -0.284621  0  2.542871  0  0  -0.285176  -0.257432  0  2.539245  0
O  O81  1  0.88116932  0.76979660  0.83947687  1  0  -0.339642  0  2.285729  0  0  -0.26867  0  2.540936  0  0  -0.284626  0  2.542878  0  0  -0.285164  -0.257438  0  2.539255  0
O  O82  1  0.61883079  0.26979726  0.33947681  1  0  -0.339671  0  2.285721  0  0  -0.268692  0  2.540943  0  0  -0.284649  0  2.542885  0  0  -0.285173  -0.25746  0  2.539257  0
O  O83  1  0.11883068  0.23020200  0.16052322  1  0  -0.339659  0  2.285709  0  0  -0.268701  0  2.540925  0  0  -0.284658  0  2.542866  0  0  -0.285202  -0.257468  0  2.539243  0
O  O84  1  0.56127994  0.47290139  0.69674128  1  0  -0.335611  0  2.27136  0  0  -0.261928  0  2.521448  0  0  -0.278108  0  2.523594  0  0  -0.275258  -0.25055  0  2.519583  0
O  O85  1  0.06127989  0.02709861  0.80325878  1  0  -0.33564  0  2.271334  0  0  -0.261933  0  2.521438  0  0  -0.27811  0  2.523586  0  0  -0.275268  -0.250555  0  2.519577  0
O  O86  1  0.43872006  0.52709951  0.30325918  1  0  -0.335677  0  2.271318  0  0  -0.261964  0  2.52143  0  0  -0.278143  0  2.523575  0  0  -0.275293  -0.250589  0  2.519567  0
O  O87  1  0.93871886  0.97290114  0.19674149  1  0  -0.335676  0  2.271407  0  0  -0.261918  0  2.521497  0  0  -0.278095  0  2.523643  0  0  -0.275243  -0.250541  0  2.519634  0
O  O88  1  0.60382355  0.21438036  0.53059669  1  0  -0.337227  0  2.298461  0  0  -0.263759  0  2.550306  0  0  -0.280509  0  2.553178  0  0  -0.283777  -0.251524  0  2.547489  0
O  O89  1  0.10382086  0.28562309  0.96940249  1  0  -0.337166  0  2.298482  0  0  -0.263705  0  2.550274  0  0  -0.280458  0  2.553149  0  0  -0.283726  -0.25147  0  2.547451  0
O  O90  1  0.39617519  0.78562055  0.46940306  1  0  -0.337196  0  2.298455  0  0  -0.263707  0  2.55028  0  0  -0.280456  0  2.553154  0  0  -0.283743  -0.251472  0  2.54746  0
O  O91  1  0.89617663  0.71438012  0.03059691  1  0  -0.337181  0  2.298476  0  0  -0.263704  0  2.550302  0  0  -0.280456  0  2.553175  0  0  -0.283744  -0.251469  0  2.547478  0
