# generated using pymatgen
data_MnH6(CO)4
_symmetry_space_group_name_H-M   'P 1'
_cell_length_a   4.92730512
_cell_length_b   6.05096945
_cell_length_c   9.69711020
_cell_angle_alpha   102.80085323
_cell_angle_beta   90.00026224
_cell_angle_gamma   89.99988573
_symmetry_Int_Tables_number   1
_chemical_formula_structural   MnH6(CO)4
_chemical_formula_sum   'Mn2 H12 C8 O8'
_cell_volume   281.93332645
_cell_formula_units_Z   2
loop_
 _symmetry_equiv_pos_site_id
 _symmetry_equiv_pos_as_xyz
  1  'x, y, z'
loop_
 _atom_site_type_symbol
 _atom_site_label
 _atom_site_symmetry_multiplicity
 _atom_site_fract_x
 _atom_site_fract_y
 _atom_site_fract_z
 _atom_site_occupancy
 _atom_site_hle17_ddec_charge
 _atom_site_hle17_ddec_spin_density
 _atom_site_hle17_ddec_sum_bond_order
 _atom_site_hle17_magmom
 _atom_site_hse06_10hf_ddec_charge
 _atom_site_hse06_10hf_ddec_spin_density
 _atom_site_hse06_10hf_ddec_sum_bond_order
 _atom_site_hse06_10hf_magmom
 _atom_site_hse06_ddec_charge
 _atom_site_hse06_ddec_spin_density
 _atom_site_hse06_ddec_sum_bond_order
 _atom_site_hse06_magmom
 _atom_site_pbe_cm5_charge
 _atom_site_pbe_ddec_charge
 _atom_site_pbe_ddec_spin_density
 _atom_site_pbe_ddec_sum_bond_order
 _atom_site_pbe_magmom
Mn  Mn0  1  0.18749795  0.25000407  0.49999774  1  1.285096  4.784536  1.685397  4.684  1.129834  4.70795  2.180037  4.545  1.186633  4.751439  2.106712  4.607  0.626716  1.084295  4.663405  2.234943  4.483
Mn  Mn1  1  0.81249823  0.75000748  0.50000243  1  1.285095  4.784535  1.685387  4.684  1.129854  4.707948  2.18002  4.545  1.186657  4.751437  2.106692  4.607  0.626719  1.084315  4.663405  2.234928  4.483
H  H2  1  0.72358446  0.24633208  0.12972285  1  0.137317  -0.000131  0.957881  0.0  0.15632  0.000112  1.018472  0.0  0.158381  -2.7e-05  1.01854  0.0  0.099078  0.154474  0.000314  1.019282  0.001
H  H3  1  0.72358778  0.25366542  0.87026931  1  0.137287  -0.000123  0.957988  0.0  0.156318  0.000111  1.018544  0.0  0.15835  -2.7e-05  1.018643  0.0  0.099112  0.154468  0.000314  1.019362  0.001
H  H4  1  0.27641171  0.75366252  0.87027599  1  0.137249  -0.000129  0.957968  0.0  0.156266  0.000111  1.018559  0.0  0.158299  -2.7e-05  1.018655  0.0  0.099068  0.154395  0.000314  1.019396  0.001
H  H5  1  0.27641854  0.74633428  0.12972200  1  0.137345  -0.00013  0.957928  0.0  0.156347  0.000112  1.018513  0.0  0.15841  -2.7e-05  1.018575  0.0  0.099105  0.154501  0.000314  1.019325  0.001
H  H6  1  0.73380402  0.94534937  0.08264825  1  0.13136  0.000673  0.942328  0.001  0.15307  0.001369  1.000763  0.001  0.155066  0.000968  1.000266  0.001  0.099207  0.15136  0.001746  1.001786  0.002
H  H7  1  0.73381838  0.55464025  0.91734568  1  0.131364  0.000676  0.942362  0.001  0.153076  0.001368  1.000793  0.001  0.155071  0.000968  1.000293  0.001  0.099248  0.151368  0.001746  1.001812  0.002
H  H8  1  0.26617795  0.05464522  0.91735575  1  0.131339  0.000677  0.942353  0.001  0.153042  0.001369  1.000798  0.001  0.155041  0.000968  1.000297  0.001  0.099215  0.151335  0.001746  1.001813  0.002
H  H9  1  0.26618998  0.44534757  0.08265119  1  0.131387  0.000671  0.942359  0.001  0.153101  0.001369  1.000775  0.001  0.1551  0.000968  1.000275  0.001  0.099212  0.151388  0.001747  1.001799  0.002
H  H10  1  0.02235159  0.09796833  0.16534303  1  0.140943  -0.000126  0.963169  0.0  0.158168  7.2e-05  1.024293  0.0  0.160723  -6.9e-05  1.023642  0.0  0.098938  0.156177  0.000284  1.025009  0.001
H  H11  1  0.02235220  0.40202469  0.83465718  1  0.140938  -0.000126  0.963198  0.0  0.15817  7.2e-05  1.024311  0.0  0.160724  -6.8e-05  1.023659  0.0  0.098963  0.156179  0.000284  1.025026  0.001
H  H12  1  0.97763038  0.90201778  0.83466082  1  0.14095  -0.000121  0.963207  0.0  0.15821  7.2e-05  1.024281  0.0  0.160766  -6.8e-05  1.023626  0.0  0.098979  0.156217  0.000284  1.024994  0.001
H  H13  1  0.97764804  0.59797668  0.16534570  1  0.140949  -0.000136  0.963179  0.0  0.158168  7.2e-05  1.02431  0.0  0.160722  -6.9e-05  1.023661  0.0  0.098938  0.156177  0.000284  1.025026  0.001
C  C14  1  0.68324898  0.08344965  0.30315603  1  0.800494  0.018197  3.762442  0.018  0.752064  0.028449  4.055902  0.026  0.790025  0.021505  4.045213  0.02  0.241558  0.724624  0.035801  4.062722  0.032
C  C15  1  0.68326456  0.41655973  0.69684697  1  0.800685  0.018209  3.762453  0.018  0.752132  0.028441  4.056093  0.026  0.790082  0.0215  4.045416  0.02  0.241572  0.724693  0.035791  4.062909  0.032
C  C16  1  0.31674313  0.91654664  0.69684409  1  0.800512  0.018208  3.762373  0.018  0.752003  0.028446  4.055969  0.026  0.789933  0.021504  4.045327  0.02  0.241514  0.724565  0.035798  4.062783  0.032
C  C17  1  0.31675394  0.58345521  0.30315264  1  0.800343  0.018214  3.762481  0.018  0.751949  0.028454  4.055892  0.026  0.789869  0.02151  4.045266  0.02  0.241469  0.724507  0.035809  4.062712  0.032
C  C18  1  0.80061675  0.09529554  0.16155283  1  -0.4652  0.000454  3.64135  0.001  -0.543469  0.001637  3.872731  0.001  -0.551269  0.000795  3.875582  0.001  -0.244884  -0.537703  0.002702  3.871558  0.002
C  C19  1  0.80062348  0.40469849  0.83844419  1  -0.465212  0.00042  3.641645  0.001  -0.543457  0.001639  3.873035  0.001  -0.551226  0.000793  3.875914  0.001  -0.24496  -0.53769  0.002702  3.871864  0.002
C  C20  1  0.19936928  0.90469736  0.83844682  1  -0.46514  0.00043  3.641542  0.001  -0.543411  0.001638  3.872883  0.001  -0.551177  0.000794  3.875767  0.001  -0.244914  -0.537623  0.002703  3.871727  0.002
C  C21  1  0.19938284  0.59529950  0.16155410  1  -0.465207  0.000463  3.64167  0.001  -0.543465  0.001638  3.872995  0.001  -0.551252  0.000794  3.875853  0.001  -0.244861  -0.537696  0.002702  3.871825  0.002
O  O22  1  0.84473936  0.03885346  0.39811198  1  -0.721487  0.051604  2.106241  0.026  -0.641927  0.066541  2.397293  0.035  -0.675886  0.059665  2.378079  0.029  -0.307092  -0.615463  0.073391  2.410156  0.041
O  O23  1  0.84474789  0.46115070  0.60188758  1  -0.721546  0.051611  2.106059  0.026  -0.642  0.066545  2.397234  0.035  -0.675956  0.05967  2.37803  0.029  -0.30709  -0.615527  0.073396  2.410087  0.041
O  O24  1  0.15524464  0.96115978  0.60189358  1  -0.721479  0.051597  2.105883  0.026  -0.641922  0.06654  2.397007  0.035  -0.675869  0.059665  2.377814  0.029  -0.307087  -0.615451  0.07339  2.409861  0.041
O  O25  1  0.15526249  0.53885575  0.39811807  1  -0.721474  0.051604  2.106165  0.026  -0.641942  0.066544  2.397227  0.035  -0.67589  0.059668  2.378036  0.029  -0.307041  -0.615473  0.073396  2.410087  0.041
O  O26  1  0.43087172  0.11388201  0.32172848  1  -0.665981  0.037062  2.044889  0.024  -0.599133  0.047844  2.31514  0.031  -0.63035  0.041442  2.30037  0.025  -0.300177  -0.575611  0.054056  2.325276  0.037
O  O27  1  0.43090142  0.38612254  0.67826295  1  -0.666109  0.037058  2.045107  0.024  -0.599206  0.047845  2.315433  0.031  -0.630411  0.041441  2.300662  0.025  -0.300218  -0.575684  0.054057  2.325565  0.037
O  O28  1  0.56911633  0.88611937  0.67827234  1  -0.665929  0.037057  2.045045  0.024  -0.599053  0.047841  2.315335  0.031  -0.630259  0.041439  2.300587  0.025  -0.300112  -0.575532  0.054053  2.325466  0.037
O  O29  1  0.56913332  0.61387885  0.32173168  1  -0.665888  0.037062  2.044771  0.024  -0.599106  0.047847  2.315091  0.031  -0.630306  0.041445  2.300342  0.025  -0.300175  -0.575583  0.05406  2.325226  0.037
