# generated using pymatgen
data_ZnH22C35(NO2)6
_symmetry_space_group_name_H-M   'P 1'
_cell_length_a   18.23345899
_cell_length_b   19.66379537
_cell_length_c   23.71608875
_cell_angle_alpha   90.54221390
_cell_angle_beta   90.06897528
_cell_angle_gamma   90.00941411
_symmetry_Int_Tables_number   1
_chemical_formula_structural   ZnH22C35(NO2)6
_chemical_formula_sum   'Zn2 H44 C70 N12 O24'
_cell_volume   8502.75585278
_cell_formula_units_Z   2
loop_
 _symmetry_equiv_pos_site_id
 _symmetry_equiv_pos_as_xyz
  1  'x, y, z'
loop_
 _atom_site_type_symbol
 _atom_site_label
 _atom_site_symmetry_multiplicity
 _atom_site_fract_x
 _atom_site_fract_y
 _atom_site_fract_z
 _atom_site_occupancy
 _atom_site_pbe_bader_charge
 _atom_site_pbe_bader_spin_density
 _atom_site_pbe_cm5_charge
 _atom_site_pbe_ddec_charge
 _atom_site_pbe_ddec_spin_density
 _atom_site_pbe_ddec_sum_bond_order
 _atom_site_pbe_magmom
Zn  Zn0  1  0.42032125  0.49995896  0.50054495  1  1.26325  0  0.668039  0.816078  0  2.424385  0
Zn  Zn1  1  0.57465453  0.50138068  0.49969058  1  1.306354  0  0.672753  0.824755  0  2.4266  0
H  H2  1  0.30556615  0.57486393  0.56228489  1  0.111422  0  0.12315  0.112741  0  0.983769  0
H  H3  1  0.44244879  0.65770005  0.94436515  1  0.158534  0  0.124734  0.135697  0  0.968416  0
H  H4  1  0.61325500  0.54231539  0.22029960  1  0.047534  0  0.103071  0.113974  0  0.99149  0
H  H5  1  0.61557311  0.53617420  0.78209706  1  0.052038  0  0.103097  0.113579  0  0.990703  0
H  H6  1  0.60669483  0.53563790  0.32610628  1  0.101376  0  0.102576  0.111768  0  1.00729  0
H  H7  1  0.60842252  0.53776974  0.67607451  1  0.081643  0  0.100614  0.10738  0  1.005637  0
H  H8  1  0.38701342  0.71911344  0.47049306  1  0.138513  0  0.115173  0.125955  0  0.987706  0
H  H9  1  0.39059113  0.28286347  0.53185983  1  0.105989  0  0.112876  0.122391  0  0.995234  0
H  H10  1  0.61043677  0.28378598  0.46817260  1  0.132281  0  0.11343  0.121973  0  0.995985  0
H  H11  1  0.60828092  0.71642641  0.53166840  1  0.159609  0  0.112744  0.121275  0  0.999964  0
H  H12  1  0.50227784  0.93900345  0.59201620  1  0.072577  0  0.104519  0.104631  0  0.988463  0
H  H13  1  0.68833653  0.42222849  0.44047064  1  0.123488  0  0.123146  0.113817  0  0.985598  0
H  H14  1  0.50161827  0.06210906  0.40990491  1  0.072454  0  0.104063  0.104291  0  0.988259  0
H  H15  1  0.50200614  0.06542577  0.59138926  1  0.062929  0  0.104417  0.104977  0  0.987847  0
H  H16  1  0.49972692  0.93568779  0.41053482  1  0.077798  0  0.10441  0.104949  0  0.9883  0
H  H17  1  0.65003520  0.26700252  0.90998418  1  0.62844  0  0.352539  0.391688  0  0.836177  0
H  H18  1  0.44638052  0.76099995  0.09033360  1  0.629508  0  0.353505  0.392724  0  0.834389  0
H  H19  1  0.10565672  0.59510339  0.56803267  1  0.433099  0  0.30333  0.295485  0  0.968729  0
H  H20  1  0.18868542  0.62377034  0.59260048  1  0.433399  0  0.320162  0.316752  0  0.922906  0
H  H21  1  0.80484499  0.37070031  0.41278784  1  0.449673  0  0.319695  0.317834  0  0.921376  0
H  H22  1  0.88785098  0.40089701  0.43533988  1  0.420661  0  0.300355  0.291177  0  0.975651  0
H  H23  1  0.10614766  0.40181373  0.43444673  1  0.439526  0  0.301117  0.293166  0  0.970947  0
H  H24  1  0.30566896  0.42064898  0.44200046  1  0.105592  0  0.120754  0.109234  0  0.993436  0
H  H25  1  0.18896243  0.37125135  0.41232607  1  0.478203  0  0.316047  0.311472  0  0.928672  0
H  H26  1  0.80528371  0.63214316  0.58411064  1  0.450069  0  0.318659  0.31578  0  0.924149  0
H  H27  1  0.88818858  0.60145467  0.56224112  1  0.416214  0  0.299906  0.290576  0  0.976066  0
H  H28  1  0.32303903  0.47383380  0.29916495  1  0.404422  0  0.292076  0.27211  0  0.977104  0
H  H29  1  0.36983539  0.46495071  0.36120557  1  0.490978  0  0.284004  0.291851  0  1.0286  0
H  H30  1  0.37334309  0.45977653  0.63612032  1  0.48329  0  0.29017  0.300099  0  0.992854  0
H  H31  1  0.35459750  0.40674696  0.69038127  1  0.413642  0  0.296021  0.278633  0  0.963437  0
H  H32  1  0.36357394  0.48826352  0.16992969  1  0.452591  0  0.301054  0.294337  0  0.959092  0
H  H33  1  0.33898460  0.43486876  0.22211339  1  0.402612  0  0.299856  0.288708  0  0.972769  0
H  H34  1  0.39488171  0.41526135  0.82676530  1  0.424273  0  0.301105  0.294241  0  0.959118  0
H  H35  1  0.68875816  0.58056160  0.55690546  1  0.090595  0  0.122348  0.115065  0  0.985803  0
H  H36  1  0.33799911  0.43663582  0.77328916  1  0.432667  0  0.299603  0.288908  0  0.974712  0
H  H37  1  0.30086366  0.92142683  0.48363311  1  0.614534  0  0.341365  0.375191  0  0.859304  0
H  H38  1  0.30227572  0.08121916  0.52137274  1  0.604439  0  0.341738  0.375568  0  0.858518  0
H  H39  1  0.70108755  0.08191756  0.47924389  1  0.609862  0  0.342639  0.376621  0  0.856065  0
H  H40  1  0.70072854  0.91733205  0.52104303  1  0.617884  0  0.342437  0.37594  0  0.857578  0
H  H41  1  0.06406259  0.40721614  0.54834993  1  0.07164  0  0.109194  0.114535  0  0.982244  0
H  H42  1  0.93008582  0.59269278  0.45113659  1  0.063941  0  0.109938  0.115336  0  0.982068  0
H  H43  1  0.06660495  0.59178487  0.45212398  1  0.073622  0  0.109702  0.115699  0  0.981607  0
H  H44  1  0.92754136  0.40833992  0.54755001  1  0.07928  0  0.110114  0.115612  0  0.980975  0
H  H45  1  0.57392334  0.34192172  0.05554979  1  0.107792  0  0.124696  0.135466  0  0.96832  0
C  C46  1  0.49876534  0.36785599  0.49916005  1  1.541388  0  0.214256  0.591817  0  4.183616  0
C  C47  1  0.43783541  0.47433007  0.70414863  1  0.355799  0  0.092595  0.19115  0  4.012789  0
C  C48  1  0.43888630  0.48053118  0.23448549  1  0.42221  0  0.086673  0.126779  0  4.041543  0
C  C49  1  0.44295437  0.47102596  0.76390682  1  0.498944  0  0.089354  0.134148  0  4.04725  0
C  C50  1  0.50358931  0.50359627  0.20973058  1  0.304861  0  0.07474  0.093917  0  4.02929  0
C  C51  1  0.50709996  0.49421184  0.79009006  1  0.264453  0  0.072073  0.086665  0  4.028367  0
C  C52  1  0.43604568  0.74618850  0.48434581  1  -0.050063  0  -0.059887  -0.076616  0  3.909658  0
C  C53  1  0.43909597  0.25529100  0.51776538  1  0.004981  0  -0.062178  -0.078192  0  3.917383  0
C  C54  1  0.56227210  0.25590355  0.48207857  1  -0.010466  0  -0.059736  -0.073288  0  3.908716  0
C  C55  1  0.56002053  0.74478349  0.51860214  1  -0.023992  0  -0.060551  -0.073657  0  3.913523  0
C  C56  1  0.43659197  0.81739036  0.48522992  1  0.032136  0  -0.010979  -0.0873  0  3.943941  0
C  C57  1  0.49691506  0.63317779  0.50173591  1  1.585596  0  0.215913  0.592814  0  4.181315  0
C  C58  1  0.43892172  0.18415117  0.51723473  1  -0.097646  0  -0.011746  -0.088157  0  3.945326  0
C  C59  1  0.56424220  0.18476064  0.48331209  1  -0.075533  0  -0.011734  -0.088663  0  3.939136  0
C  C60  1  0.56262793  0.81586828  0.51770323  1  -0.073521  0  -0.011901  -0.089496  0  3.942837  0
C  C61  1  0.50018880  0.85378638  0.50156082  1  0.001824  0  0.019617  0.058534  0  3.903492  0
C  C62  1  0.50189742  0.14729291  0.50029540  1  0.032612  0  0.02043  0.060283  0  3.901508  0
C  C63  1  0.49732381  0.70956466  0.50168319  1  0.041826  0  -0.011616  -0.024885  0  3.968967  0
C  C64  1  0.50016061  0.29150795  0.49953447  1  0.137797  0  -0.011435  -0.024474  0  3.969953  0
C  C65  1  0.49590061  0.49906376  0.38975113  1  1.496581  0  0.21513  0.606089  0  4.140663  0
C  C66  1  0.49789293  0.50028373  0.61051873  1  1.517367  0  0.21468  0.604992  0  4.154552  0
C  C67  1  0.50210893  0.96610318  0.55208187  1  -0.024604  0  -0.089827  -0.119152  0  3.985607  0
C  C68  1  0.56412750  0.52432704  0.24159586  1  0.030396  0  -0.106582  -0.180948  0  4.074942  0
C  C69  1  0.50176908  0.03499709  0.44983157  1  -0.062662  0  -0.089678  -0.1202  0  3.986039  0
C  C70  1  0.50168190  0.03686230  0.55172472  1  -0.0172  0  -0.090754  -0.122207  0  3.98559  0
C  C71  1  0.50036377  0.96424979  0.45019616  1  -0.009298  0  -0.089854  -0.120683  0  3.984393  0
C  C72  1  0.50202293  0.07187955  0.50060257  1  -0.008235  0  -0.012337  0.072593  0  4.020059  0
C  C73  1  0.50103627  0.92921853  0.50131840  1  -0.003168  0  -0.012565  0.07273  0  4.019713  0
C  C74  1  0.27233895  0.54159954  0.53550800  1  0.581507  0  0.022351  -0.064902  0  3.928438  0
C  C75  1  0.72175317  0.45676320  0.46596044  1  0.506317  0  0.021882  -0.068765  0  3.932871  0
C  C76  1  0.27241878  0.45496166  0.46779001  1  0.570906  0  0.016397  -0.076405  0  3.945048  0
C  C77  1  0.72201292  0.54596988  0.53140797  1  0.522462  0  0.02147  -0.071216  0  3.936731  0
C  C78  1  0.19523626  0.54336624  0.53684402  1  0.355035  0  0.101816  0.237079  0  4.147668  0
C  C79  1  0.56689753  0.51849476  0.75964612  1  -0.002489  0  -0.105912  -0.176841  0  4.075396  0
C  C80  1  0.79877356  0.45478047  0.46452924  1  0.398137  0  0.100107  0.235927  0  4.14501  0
C  C81  1  0.19543217  0.45371975  0.46559126  1  0.334293  0  0.098209  0.233993  0  4.148467  0
C  C82  1  0.79900845  0.54766039  0.53298495  1  0.415537  0  0.099226  0.2343  0  4.14851  0
C  C83  1  0.15605176  0.49885351  0.50080604  1  0.074172  0  -0.023206  -0.150333  0  3.951883  0
C  C84  1  0.83815325  0.50108058  0.49886701  1  0.100093  0  -0.023887  -0.152457  0  3.950384  0
C  C85  1  0.03465045  0.44760249  0.52660539  1  -0.164692  0  -0.090115  -0.139177  0  3.995186  0
C  C86  1  0.95953471  0.55232728  0.47288083  1  -0.108792  0  -0.089117  -0.138235  0  3.992167  0
C  C87  1  0.03606051  0.55179181  0.47340195  1  -0.04884  0  -0.089572  -0.138562  0  3.992282  0
C  C88  1  0.95813125  0.44819611  0.52612547  1  -0.008252  0  -0.089082  -0.138289  0  3.991896  0
C  C89  1  0.91952593  0.50055201  0.49925420  1  -0.029221  0  -0.007756  0.094927  0  4.014424  0
C  C90  1  0.56049571  0.52050953  0.29976559  1  -0.014479  0  -0.097717  -0.091139  0  4.052611  0
C  C91  1  0.07463290  0.49940019  0.50024688  1  -0.017814  0  -0.009775  0.090082  0  4.020184  0
C  C92  1  0.48831743  0.55771474  0.87737753  1  1.316377  0  0.247772  0.437301  0  4.084626  0
C  C93  1  0.53667049  0.44493806  0.12255777  1  1.317736  0  0.247223  0.437098  0  4.088136  0
C  C94  1  0.52734801  0.43577851  0.87889545  1  1.360122  0  0.244927  0.430257  0  4.101663  0
C  C95  1  0.47729765  0.55966264  0.12098473  1  1.363267  0  0.244614  0.429782  0  4.099896  0
C  C96  1  0.53176535  0.43920056  0.94120804  1  -0.02685  0  0.001775  -0.082949  0  3.957309  0
C  C97  1  0.48263407  0.55973516  0.05868920  1  -0.007042  0  0.001672  -0.083309  0  3.957231  0
C  C98  1  0.50966680  0.49922373  0.96997818  1  -0.101726  0  0.006582  0.034736  0  4.007657  0
C  C99  1  0.50922590  0.50129118  0.02994611  1  0.001061  0  0.00651  0.034488  0  4.008775  0
C  C100  1  0.48637167  0.55725353  0.93994587  1  0.044451  0  0.00134  -0.047563  0  3.980047  0
C  C101  1  0.56254467  0.52018631  0.70137918  1  0.013231  0  -0.10007  -0.098898  0  4.059766  0
C  C102  1  0.53416685  0.44382978  0.05996835  1  0.089166  0  0.001767  -0.047596  0  3.97995  0
C  C103  1  0.55407895  0.38256143  0.97174145  1  0.053183  0  0.01683  -0.002083  0  3.899311  0
C  C104  1  0.45801270  0.61556515  0.02815583  1  0.072662  0  0.016856  -0.001301  0  3.898422  0
C  C105  1  0.55599100  0.38562699  0.03115079  1  -0.026619  0  -0.054133  -0.089978  0  3.883625  0
C  C106  1  0.46097944  0.61420181  0.96874151  1  -0.05967  0  -0.053374  -0.089757  0  3.882523  0
C  C107  1  0.57235831  0.31545470  0.94410747  1  1.584471  0  0.233929  0.588466  0  4.149556  0
C  C108  1  0.42335950  0.67686079  0.05575802  1  1.570643  0  0.234444  0.588321  0  4.149638  0
C  C109  1  0.36600997  0.84996065  0.46808121  1  1.502897  0  0.229142  0.579432  0  4.125872  0
C  C110  1  0.36826596  0.15252898  0.53523463  1  1.510722  0  0.227887  0.579758  0  4.124528  0
C  C111  1  0.63620381  0.15418910  0.46672652  1  1.503866  0  0.227936  0.578686  0  4.123723  0
C  C112  1  0.49630625  0.49826407  0.32684450  1  0.026657  0  -0.031943  -0.147139  0  3.953375  0
C  C113  1  0.63532206  0.84556831  0.53356942  1  1.516289  0  0.228618  0.580637  0  4.121895  0
C  C114  1  0.49844884  0.49897487  0.67335407  1  0.053698  0  -0.029352  -0.134911  0  3.967837  0
C  C115  1  0.43423851  0.47902610  0.29435427  1  0.439791  0  0.097365  0.205539  0  4.00634  0
N  N116  1  0.50952024  0.49605100  0.85093832  1  -1.185268  0  -0.228575  -0.188278  0  3.586293  0
N  N117  1  0.37210843  0.45379960  0.67886807  1  -1.216713  0  -0.611838  -0.624614  0  3.303792  0
N  N118  1  0.38084065  0.45703227  0.20107530  1  -1.200401  0  -0.608168  -0.619202  0  3.335582  0
N  N119  1  0.38351722  0.44889442  0.79576263  1  -1.198363  0  -0.606597  -0.615336  0  3.336215  0
N  N120  1  0.50772059  0.50379209  0.14894914  1  -1.189177  0  -0.228387  -0.18932  0  3.585455  0
N  N121  1  0.30836522  0.49833809  0.50169646  1  -1.24138  0  -0.329395  -0.164032  0  3.673603  0
N  N122  1  0.68598887  0.50139150  0.49871143  1  -1.253367  0  -0.328476  -0.158809  0  3.675322  0
N  N123  1  0.15956989  0.58559845  0.57444166  1  -1.220005  0  -0.59092  -0.613002  0  3.340714  0
N  N124  1  0.83412545  0.41056813  0.42813321  1  -1.205245  0  -0.593227  -0.615306  0  3.332551  0
N  N125  1  0.16000371  0.41133737  0.42757435  1  -1.267859  0  -0.59538  -0.615776  0  3.32928  0
N  N126  1  0.83445724  0.59186986  0.56944890  1  -1.215153  0  -0.593528  -0.613935  0  3.332686  0
N  N127  1  0.36920874  0.45653701  0.31844612  1  -1.223934  0  -0.614261  -0.625479  0  3.318469  0
O  O128  1  0.43755225  0.39598070  0.51005211  1  -1.163902  0  -0.317663  -0.54964  0  2.318987  0
O  O129  1  0.56167776  0.39801993  0.15026721  1  -1.084896  0  -0.266284  -0.416432  0  2.061891  0
O  O130  1  0.53775894  0.38245702  0.85240337  1  -1.087642  0  -0.263384  -0.422325  0  2.100566  0
O  O131  1  0.44670355  0.60576511  0.14747657  1  -1.088282  0  -0.262477  -0.420336  0  2.099405  0
O  O132  1  0.52947909  0.26800003  0.94235886  1  -1.116263  0  -0.290485  -0.474725  0  2.030947  0
O  O133  1  0.64328643  0.31208981  0.92727989  1  -1.11377  0  -0.335904  -0.481995  0  2.198571  0
O  O134  1  0.35725254  0.68555278  0.05716464  1  -1.110102  0  -0.290983  -0.475354  0  2.029043  0
O  O135  1  0.47372485  0.72326590  0.07300490  1  -1.117751  0  -0.335264  -0.480977  0  2.198641  0
O  O136  1  0.32586218  0.82737730  0.43104839  1  -1.132992  0  -0.305649  -0.497049  0  2.0385  0
O  O137  1  0.34755935  0.90585707  0.49947041  1  -1.109312  0  -0.33526  -0.48226  0  2.245166  0
O  O138  1  0.32869738  0.17644743  0.57202826  1  -1.136782  0  -0.307887  -0.501087  0  2.038972  0
O  O139  1  0.55789755  0.60453528  0.51177848  1  -1.170542  0  -0.312892  -0.542665  0  2.33517  0
O  O140  1  0.34894116  0.09597774  0.50503000  1  -1.110619  0  -0.333767  -0.480417  0  2.246484  0
O  O141  1  0.67859190  0.18025466  0.43326671  1  -1.144278  0  -0.310139  -0.504787  0  2.04267  0
O  O142  1  0.65317997  0.09569283  0.49418535  1  -1.111693  0  -0.331819  -0.478447  0  2.250346  0
O  O143  1  0.67842357  0.81846137  0.56600280  1  -1.151983  0  -0.311782  -0.507431  0  2.042347  0
O  O144  1  0.65217963  0.90446980  0.50669176  1  -1.119958  0  -0.331975  -0.478275  0  2.252841  0
O  O145  1  0.43602518  0.60378878  0.49170712  1  -1.165264  0  -0.316487  -0.545875  0  2.304884  0
O  O146  1  0.55877296  0.39776915  0.48812965  1  -1.168523  0  -0.312837  -0.543408  0  2.320997  0
O  O147  1  0.43562222  0.48494790  0.41541968  1  -1.173018  0  -0.315933  -0.5512  0  2.356515  0
O  O148  1  0.55870762  0.49204527  0.58529067  1  -1.162804  0  -0.315445  -0.541158  0  2.316601  0
O  O149  1  0.43582257  0.50941070  0.58600093  1  -1.169783  0  -0.318149  -0.555821  0  2.344823  0
O  O150  1  0.55532640  0.51418652  0.41496012  1  -1.169807  0  -0.315817  -0.543307  0  2.33121  0
O  O151  1  0.47231808  0.60790462  0.84971183  1  -1.088045  0  -0.265647  -0.415577  0  2.061935  0
