# generated using pymatgen
data_CuH8C12N2ClO4
_symmetry_space_group_name_H-M   'P 1'
_cell_length_a   3.62273658
_cell_length_b   9.92045902
_cell_length_c   16.53082841
_cell_angle_alpha   89.99793043
_cell_angle_beta   92.55243245
_cell_angle_gamma   90.00285543
_symmetry_Int_Tables_number   1
_chemical_formula_structural   CuH8C12N2ClO4
_chemical_formula_sum   'Cu2 H16 C24 N4 Cl2 O8'
_cell_volume   593.51548945
_cell_formula_units_Z   2
loop_
 _symmetry_equiv_pos_site_id
 _symmetry_equiv_pos_as_xyz
  1  'x, y, z'
loop_
 _atom_site_type_symbol
 _atom_site_label
 _atom_site_symmetry_multiplicity
 _atom_site_fract_x
 _atom_site_fract_y
 _atom_site_fract_z
 _atom_site_occupancy
 _atom_site_hle17_bader_spin_density
 _atom_site_hle17_ddec_charge
 _atom_site_hle17_ddec_spin_density
 _atom_site_hle17_ddec_sum_bond_order
 _atom_site_hle17_magmom
 _atom_site_hse06_10hf_bader_spin_density
 _atom_site_hse06_10hf_ddec_charge
 _atom_site_hse06_10hf_ddec_spin_density
 _atom_site_hse06_10hf_ddec_sum_bond_order
 _atom_site_hse06_10hf_magmom
 _atom_site_hse06_bader_spin_density
 _atom_site_hse06_ddec_charge
 _atom_site_hse06_ddec_spin_density
 _atom_site_hse06_ddec_sum_bond_order
 _atom_site_hse06_magmom
 _atom_site_pbe_bader_spin_density
 _atom_site_pbe_cm5_charge
 _atom_site_pbe_ddec_charge
 _atom_site_pbe_ddec_spin_density
 _atom_site_pbe_ddec_sum_bond_order
 _atom_site_pbe_magmom
Cu  Cu0  1  0.86492419  0.02775193  0.27624073  1  0  0.445303  0  1.973043  0  0  0.336175  0  2.473987  0  0  0.327579  0  2.43579  0  0  0.4325  0.346429  0  2.496025  0
Cu  Cu1  1  0.36492085  0.97226472  0.77623744  1  0  0.445269  0  1.973001  0  0  0.336153  0  2.473983  0  0  0.327483  0  2.435723  0  0  0.432504  0.346366  0  2.496185  0
H  H2  1  0.51236928  0.28805089  0.25447527  1  0  0.385739  0  0.895169  0  0  0.353392  0  0.983722  0  0  0.366177  0  0.969762  0  0  0.276157  0.343844  0  0.994136  0
H  H3  1  0.01233442  0.71195169  0.75446623  1  0  0.385608  0  0.895259  0  0  0.353253  0  0.983836  0  0  0.36604  0  0.969876  0  0  0.276094  0.343708  0  0.994252  0
H  H4  1  0.70996278  0.38611795  0.63402198  1  0  0.41157  0  0.876316  0  0  0.380207  0  0.955202  0  0  0.392481  0  0.939909  0  0  0.308963  0.371675  0  0.964577  0
H  H5  1  0.20991471  0.61388261  0.13402613  1  0  0.411757  0  0.876134  0  0  0.380337  0  0.955077  0  0  0.392609  0  0.939737  0  0  0.309057  0.371813  0  0.964434  0
H  H6  1  0.58542935  0.74906686  0.21091597  1  0  0.094716  0  0.948391  0  0  0.100657  0  1.017136  0  0  0.104786  0  1.012176  0  0  0.120871  0.097504  0  1.020924  0
H  H7  1  0.08547153  0.25093673  0.71090673  1  0  0.094646  0  0.948471  0  0  0.100592  0  1.017187  0  0  0.10472  0  1.012233  0  0  0.120898  0.097442  0  1.020978  0
H  H8  1  0.81499154  0.47975956  0.41297552  1  0  0.118742  0  0.954511  0  0  0.123895  0  1.022804  0  0  0.127663  0  1.018571  0  0  0.114155  0.12161  0  1.024676  0
H  H9  1  0.31489223  0.52023153  0.91297279  1  0  0.118799  0  0.95458  0  0  0.123962  0  1.022849  0  0  0.127736  0  1.018621  0  0  0.114153  0.121673  0  1.024732  0
H  H10  1  0.03447799  0.67455453  0.49258920  1  0  0.129496  0  0.923925  0  0  0.141526  0  0.975418  0  0  0.146009  0  0.972861  0  0  0.119253  0.137798  0  0.978415  0
H  H11  1  0.53438794  0.32543157  0.99258770  1  0  0.129545  0  0.923702  0  0  0.141619  0  0.975167  0  0  0.146104  0  0.972605  0  0  0.119272  0.137894  0  0.978164  0
H  H12  1  0.30833475  0.84113841  0.54413861  1  0  0.118472  0  0.937234  0  0  0.129304  0  0.992335  0  0  0.133062  0  0.991378  0  0  0.110635  0.126356  0  0.993781  0
H  H13  1  0.80828646  0.15885038  0.04414031  1  0  0.118545  0  0.937262  0  0  0.129318  0  0.992432  0  0  0.133063  0  0.991507  0  0  0.110628  0.126371  0  0.993878  0
H  H14  1  0.51250689  0.05488836  0.60787014  1  0  0.106833  0  0.972137  0  0  0.110649  0  1.046533  0  0  0.116226  0  1.0399  0  0  0.097173  0.106426  0  1.051392  0
H  H15  1  0.01244735  0.94509818  0.10787742  1  0  0.106887  0  0.972074  0  0  0.11065  0  1.046494  0  0  0.116215  0  1.039873  0  0  0.097177  0.106429  0  1.051345  0
H  H16  1  0.08947463  0.26396823  0.39422410  1  0  0.091749  0  0.944922  0  0  0.09487  0  1.019275  0  0  0.099105  0  1.01427  0  0  0.117346  0.092441  0  1.021687  0
H  H17  1  0.58950270  0.73604315  0.89422198  1  0  0.091872  0  0.944891  0  0  0.094937  0  1.019319  0  0  0.099178  0  1.014312  0  0  0.117356  0.092508  0  1.021735  0
C  C18  1  0.68846915  0.72817369  0.27246903  1  0  0.1413  0  3.65398  0  0  0.097385  0  3.913542  0  0  0.106221  0  3.926696  0  0  0.05483  0.091543  0  3.905383  0
C  C19  1  0.18849191  0.27183598  0.77246153  1  0  0.141196  0  3.653964  0  0  0.097306  0  3.913521  0  0  0.106131  0  3.92668  0  0  0.054718  0.091477  0  3.905397  0
C  C20  1  0.68400582  0.59772505  0.30464130  1  0  -0.145889  0  3.765122  0  0  -0.120914  0  4.004434  0  0  -0.134788  0  4.029832  0  0  -0.019867  -0.112747  0  3.988439  0
C  C21  1  0.18398224  0.40227346  0.80463532  1  0  -0.145536  0  3.765062  0  0  -0.120603  0  4.004326  0  0  -0.13447  0  4.029743  0  0  -0.019771  -0.112444  0  3.988364  0
C  C22  1  0.81501094  0.57873469  0.38500426  1  0  0.015289  0  3.659523  0  0  -0.019435  0  3.915088  0  0  -0.010426  0  3.928752  0  0  -0.058083  -0.024981  0  3.905416  0
C  C23  1  0.31494822  0.42126117  0.88500225  1  0  0.015084  0  3.659676  0  0  -0.019601  0  3.915192  0  0  -0.010593  0  3.928855  0  0  -0.058087  -0.02514  0  3.905569  0
C  C24  1  0.94081863  0.68911339  0.42971281  1  0  -0.127507  0  3.667713  0  0  -0.144928  0  3.92027  0  0  -0.153439  0  3.939145  0  0  -0.071828  -0.13975  0  3.908019  0
C  C25  1  0.44079394  0.31087691  0.92970754  1  0  -0.127523  0  3.667582  0  0  -0.145108  0  3.920137  0  0  -0.153621  0  3.939011  0  0  -0.071821  -0.13993  0  3.907951  0
C  C26  1  0.94717060  0.81614098  0.39289902  1  0  0.175036  0  3.734596  0  0  0.167085  0  3.980537  0  0  0.175728  0  3.997444  0  0  0.113801  0.161395  0  3.96884  0
C  C27  1  0.44716505  0.18385778  0.89289244  1  0  0.174808  0  3.734966  0  0  0.167061  0  3.980715  0  0  0.175703  0  3.997616  0  0  0.113695  0.161381  0  3.969106  0
C  C28  1  0.08278406  0.93827742  0.43506226  1  0  0.166916  0  3.740104  0  0  0.162585  0  3.984059  0  0  0.170006  0  4.000336  0  0  0.110725  0.157987  0  3.972693  0
C  C29  1  0.58274459  0.06172524  0.93506332  1  0  0.16681  0  3.740661  0  0  0.162392  0  3.984603  0  0  0.169815  0  4.000877  0  0  0.110744  0.157795  0  3.97331  0
C  C30  1  0.25887709  0.93572128  0.51213522  1  0  -0.126171  0  3.692033  0  0  -0.146229  0  3.946344  0  0  -0.153593  0  3.965269  0  0  -0.076701  -0.141831  0  3.933942  0
C  C31  1  0.75881336  0.06427365  0.01213935  1  0  -0.126135  0  3.692282  0  0  -0.146197  0  3.946639  0  0  -0.153557  0  3.96554  0  0  -0.076712  -0.141808  0  3.934309  0
C  C32  1  0.37390538  0.05581332  0.54814389  1  0  0.003757  0  3.66938  0  0  -0.029214  0  3.922528  0  0  -0.02108  0  3.936084  0  0  -0.067055  -0.03416  0  3.913711  0
C  C33  1  0.87385071  0.94418346  0.04814643  1  0  0.003711  0  3.669547  0  0  -0.029136  0  3.922636  0  0  -0.020993  0  3.936205  0  0  -0.067009  -0.034103  0  3.913861  0
C  C34  1  0.31297847  0.17685788  0.50609064  1  0  -0.121397  0  3.749916  0  0  -0.094745  0  3.983021  0  0  -0.107745  0  4.007379  0  0  -0.015504  -0.087195  0  3.967596  0
C  C35  1  0.81296582  0.82314043  0.00609261  1  0  -0.121508  0  3.750136  0  0  -0.094855  0  3.98319  0  0  -0.107863  0  4.007566  0  0  -0.015493  -0.08724  0  3.967729  0
C  C36  1  0.13876394  0.17189523  0.42903610  1  0  0.131628  0  3.662192  0  0  0.088453  0  3.921204  0  0  0.096518  0  3.934261  0  0  0.053582  0.083539  0  3.91203  0
C  C37  1  0.63875985  0.82811285  0.92903708  1  0  0.131453  0  3.662367  0  0  0.08825  0  3.921462  0  0  0.096306  0  3.934522  0  0  0.053494  0.083315  0  3.912304  0
C  C38  1  0.54584455  0.48264401  0.25445881  1  0  0.669644  0  3.79828  0  0  0.616999  0  4.09495  0  0  0.650292  0  4.087893  0  0  0.238827  0.593943  0  4.100303  0
C  C39  1  0.04579226  0.51736119  0.75444763  1  0  0.669356  0  3.798722  0  0  0.616734  0  4.095426  0  0  0.649999  0  4.08842  0  0  0.238713  0.593698  0  4.100762  0
C  C40  1  0.42569664  0.30975085  0.54092529  1  0  0.652612  0  3.835856  0  0  0.600134  0  4.138198  0  0  0.633477  0  4.129995  0  0  0.228212  0.577445  0  4.143457  0
C  C41  1  0.92568588  0.69024429  0.04092345  1  0  0.652545  0  3.836204  0  0  0.60005  0  4.13854  0  0  0.633389  0  4.13035  0  0  0.228165  0.577341  0  4.143809  0
N  N42  1  0.82517880  0.83413848  0.31426995  1  0  -0.315544  0  3.303443  0  0  -0.25479  0  3.60942  0  0  -0.2617  0  3.612247  0  0  -0.35038  -0.251399  0  3.607744  0
N  N43  1  0.32518468  0.16586904  0.81426329  1  0  -0.315281  0  3.303345  0  0  -0.254583  0  3.609248  0  0  -0.261469  0  3.612029  0  0  -0.350268  -0.251234  0  3.607707  0
N  N44  1  0.02465820  0.05635729  0.39416280  1  0  -0.314306  0  3.316163  0  0  -0.254977  0  3.619726  0  0  -0.260895  0  3.623136  0  0  -0.352968  -0.251897  0  3.616743  0
N  N45  1  0.52468334  0.94365292  0.89416229  1  0  -0.314154  0  3.316584  0  0  -0.254773  0  3.620152  0  0  -0.260671  0  3.623523  0  0  -0.352932  -0.251688  0  3.617239  0
Cl  Cl46  1  0.35701541  0.11025179  0.20549573  1  0  -0.519167  0  1.380928  0  0  -0.444359  0  1.753082  0  0  -0.462033  0  1.722785  0  0  -0.268029  -0.431331  0  1.772765  0
Cl  Cl47  1  0.85701119  0.88975906  0.70549722  1  0  -0.519116  0  1.380943  0  0  -0.444324  0  1.753132  0  0  -0.461971  0  1.722778  0  0  -0.267997  -0.431268  0  1.772889  0
O  O48  1  0.38250429  0.49225003  0.18729047  1  0  -0.551486  0  1.977592  0  0  -0.505182  0  2.191467  0  0  -0.525465  0  2.180761  0  0  -0.281292  -0.491902  0  2.199313  0
O  O49  1  0.88249438  0.50775032  0.68727518  1  0  -0.551404  0  1.977772  0  0  -0.505141  0  2.191652  0  0  -0.525418  0  2.180968  0  0  -0.281302  -0.491866  0  2.1995  0
O  O50  1  0.61352200  0.36395344  0.28973049  1  0  -0.528744  0  2.122493  0  0  -0.475846  0  2.348318  0  0  -0.498409  0  2.33377  0  0  -0.318405  -0.460107  0  2.358117  0
O  O51  1  0.11347996  0.63604171  0.78971873  1  0  -0.528487  0  2.122925  0  0  -0.475555  0  2.348686  0  0  -0.498107  0  2.334156  0  0  -0.318224  -0.459819  0  2.358483  0
O  O52  1  0.34288215  0.41819870  0.50918199  1  0  -0.535191  0  1.916228  0  0  -0.493037  0  2.130241  0  0  -0.512726  0  2.122178  0  0  -0.282354  -0.479157  0  2.135359  0
O  O53  1  0.84285689  0.58179895  0.00918227  1  0  -0.535093  0  1.916272  0  0  -0.492931  0  2.130288  0  0  -0.512603  0  2.122217  0  0  -0.282349  -0.479049  0  2.135413  0
O  O54  1  0.62684037  0.29625818  0.61045496  1  0  -0.573445  0  2.133683  0  0  -0.519692  0  2.3634  0  0  -0.54305  0  2.348427  0  0  -0.33462  -0.503505  0  2.372341  0
O  O55  1  0.12675430  0.70373731  0.11046280  1  0  -0.573609  0  2.133796  0  0  -0.519774  0  2.363569  0  0  -0.543134  0  2.348557  0  0  -0.334652  -0.503593  0  2.372512  0
