# generated using pymatgen
data_CdH15C16SN2ClO2
_symmetry_space_group_name_H-M   'P 1'
_cell_length_a   9.06914401
_cell_length_b   9.39647191
_cell_length_c   10.60548325
_cell_angle_alpha   72.53495323
_cell_angle_beta   78.40724869
_cell_angle_gamma   82.40781699
_symmetry_Int_Tables_number   1
_chemical_formula_structural   CdH15C16SN2ClO2
_chemical_formula_sum   'Cd2 H30 C32 S2 N4 Cl2 O4'
_cell_volume   842.02970662
_cell_formula_units_Z   2
loop_
 _symmetry_equiv_pos_site_id
 _symmetry_equiv_pos_as_xyz
  1  'x, y, z'
loop_
 _atom_site_type_symbol
 _atom_site_label
 _atom_site_symmetry_multiplicity
 _atom_site_fract_x
 _atom_site_fract_y
 _atom_site_fract_z
 _atom_site_occupancy
 _atom_site_hle17_bader_spin_density
 _atom_site_hle17_ddec_charge
 _atom_site_hle17_ddec_spin_density
 _atom_site_hle17_ddec_sum_bond_order
 _atom_site_hle17_magmom
 _atom_site_hse06_10hf_bader_spin_density
 _atom_site_hse06_10hf_ddec_charge
 _atom_site_hse06_10hf_ddec_spin_density
 _atom_site_hse06_10hf_ddec_sum_bond_order
 _atom_site_hse06_10hf_magmom
 _atom_site_hse06_bader_spin_density
 _atom_site_hse06_ddec_charge
 _atom_site_hse06_ddec_spin_density
 _atom_site_hse06_ddec_sum_bond_order
 _atom_site_hse06_magmom
 _atom_site_pbe_bader_spin_density
 _atom_site_pbe_cm5_charge
 _atom_site_pbe_ddec_charge
 _atom_site_pbe_ddec_spin_density
 _atom_site_pbe_ddec_sum_bond_order
 _atom_site_pbe_magmom
Cd  Cd0  1  0.17508686  0.06087724  0.53987759  1  0  1.042668  0  1.943426  0  0  0.870778  0  2.423705  0  0  0.919434  0  2.377001  0  0  0.657691  0.837139  0  2.454642  0
Cd  Cd1  1  0.82491348  0.93912438  0.46012203  1  0  1.042705  0  1.943426  0  0  0.870813  0  2.423724  0  0  0.91947  0  2.377016  0  0  0.657711  0.837178  0  2.454656  0
H  H2  1  0.27381165  0.98723565  0.86996622  1  0  0.303121  0  0.911294  0  0  0.283444  0  0.970708  0  0  0.293396  0  0.962827  0  0  0.313871  0.276958  0  0.975692  0
H  H3  1  0.72619298  0.01276824  0.13003106  1  0  0.303112  0  0.911337  0  0  0.28343  0  0.970751  0  0  0.293382  0  0.962869  0  0  0.313845  0.276944  0  0.975736  0
H  H4  1  0.66481627  0.52563259  0.35157647  1  0  0.110183  0  0.950831  0  0  0.132681  0  1.01054  0  0  0.133883  0  1.010653  0  0  0.089257  0.131846  0  1.010164  0
H  H5  1  0.33517661  0.47436446  0.64842669  1  0  0.110197  0  0.950816  0  0  0.132687  0  1.010523  0  0  0.133911  0  1.010609  0  0  0.089279  0.131847  0  1.010153  0
H  H6  1  0.79598857  0.54469089  0.19941508  1  0  0.106174  0  0.976365  0  0  0.128095  0  1.039378  0  0  0.127474  0  1.042783  0  0  0.087187  0.127555  0  1.038425  0
H  H7  1  0.20400461  0.45530278  0.80058707  1  0  0.106221  0  0.976314  0  0  0.128134  0  1.039336  0  0  0.127514  0  1.04274  0  0  0.087182  0.127593  0  1.038381  0
H  H8  1  0.65555819  0.41642590  0.24297435  1  0  0.109524  0  0.960251  0  0  0.131182  0  1.02103  0  0  0.131595  0  1.021837  0  0  0.086383  0.130473  0  1.020568  0
H  H9  1  0.34442905  0.58357105  0.75702795  1  0  0.109564  0  0.960284  0  0  0.131228  0  1.02104  0  0  0.131641  0  1.021849  0  0  0.086392  0.130519  0  1.020576  0
H  H10  1  0.50151968  0.74639661  0.33833067  1  0  0.093402  0  0.973026  0  0  0.101977  0  1.038726  0  0  0.104273  0  1.038064  0  0  0.096684  0.100617  0  1.038565  0
H  H11  1  0.49848466  0.25361067  0.66166761  1  0  0.093389  0  0.973065  0  0  0.101949  0  1.038784  0  0  0.10425  0  1.038112  0  0  0.096696  0.100578  0  1.038652  0
H  H12  1  0.32540060  0.94175153  0.22495884  1  0  0.104483  0  0.961294  0  0  0.11335  0  1.02631  0  0  0.116032  0  1.025201  0  0  0.10047  0.111728  0  1.026127  0
H  H13  1  0.67460681  0.05825914  0.77503701  1  0  0.104545  0  0.961246  0  0  0.113437  0  1.026211  0  0  0.116121  0  1.025095  0  0  0.100494  0.11181  0  1.026035  0
H  H14  1  0.44815003  0.78027968  0.87345767  1  0  0.103046  0  0.950977  0  0  0.114122  0  1.011048  0  0  0.117028  0  1.009962  0  0  0.103646  0.112186  0  1.011498  0
H  H15  1  0.55185114  0.21972532  0.12654181  1  0  0.102991  0  0.950855  0  0  0.114109  0  1.010902  0  0  0.117013  0  1.009819  0  0  0.103666  0.112174  0  1.011352  0
H  H16  1  0.61808061  0.58083510  0.99121040  1  0  0.088762  0  0.971919  0  0  0.102407  0  1.030008  0  0  0.104847  0  1.029454  0  0  0.098746  0.10096  0  1.029608  0
H  H17  1  0.38191872  0.41916539  0.00879065  1  0  0.088753  0  0.971913  0  0  0.102394  0  1.030004  0  0  0.104835  0  1.029451  0  0  0.098735  0.100944  0  1.02961  0
H  H18  1  0.17392906  0.08645799  0.11477700  1  0  0.087493  0  0.974417  0  0  0.09775  0  1.040328  0  0  0.100565  0  1.035408  0  0  0.112383  0.096003  0  1.043032  0
H  H19  1  0.82607252  0.91354255  0.88522458  1  0  0.087527  0  0.974409  0  0  0.097798  0  1.040304  0  0  0.100611  0  1.035385  0  0  0.112404  0.096048  0  1.043007  0
H  H20  1  0.98925436  0.28996208  0.08826788  1  0  0.101825  0  0.964373  0  0  0.111364  0  1.02907  0  0  0.114355  0  1.026867  0  0  0.09393  0.109084  0  1.030607  0
H  H21  1  0.01074483  0.71003947  0.91172913  1  0  0.101835  0  0.964358  0  0  0.111384  0  1.029054  0  0  0.114378  0  1.026847  0  0  0.093928  0.109103  0  1.030589  0
H  H22  1  0.81703206  0.47240304  0.95144990  1  0  0.086799  0  0.976364  0  0  0.098959  0  1.035863  0  0  0.101571  0  1.035731  0  0  0.095839  0.097485  0  1.035334  0
H  H23  1  0.18296610  0.52759734  0.04854480  1  0  0.086745  0  0.976388  0  0  0.098885  0  1.035924  0  0  0.101494  0  1.035796  0  0  0.095812  0.097427  0  1.035375  0
H  H24  1  0.80635802  0.46419889  0.72248116  1  0  0.105684  0  0.9718  0  0  0.117147  0  1.035257  0  0  0.120012  0  1.033242  0  0  0.097789  0.115464  0  1.035769  0
H  H25  1  0.19363983  0.53579254  0.27751702  1  0  0.105645  0  0.971924  0  0  0.117073  0  1.035413  0  0  0.119941  0  1.033392  0  0  0.097798  0.115393  0  1.035927  0
H  H26  1  0.87556464  0.48252423  0.50355956  1  0  0.082664  0  0.969579  0  0  0.096071  0  1.042938  0  0  0.096952  0  1.042452  0  0  0.091854  0.095282  0  1.043367  0
H  H27  1  0.12444090  0.51746960  0.49644035  1  0  0.082629  0  0.969543  0  0  0.096007  0  1.042938  0  0  0.096885  0  1.042451  0  0  0.091829  0.095219  0  1.043365  0
H  H28  1  0.75979692  0.32733103  0.57656581  1  0  0.08772  0  0.958988  0  0  0.104015  0  1.028009  0  0  0.103892  0  1.029145  0  0  0.096  0.103874  0  1.027464  0
H  H29  1  0.24020605  0.67266610  0.42343176  1  0  0.087698  0  0.958941  0  0  0.103985  0  1.027975  0  0  0.103864  0  1.029108  0  0  0.096021  0.103845  0  1.027432  0
H  H30  1  0.89466854  0.33347769  0.42603897  1  0  0.10319  0  0.957801  0  0  0.118599  0  1.024584  0  0  0.119225  0  1.024632  0  0  0.095082  0.118365  0  1.023893  0
H  H31  1  0.10533445  0.66651948  0.57396141  1  0  0.103138  0  0.957816  0  0  0.118536  0  1.024581  0  0  0.119156  0  1.024644  0  0  0.095087  0.118297  0  1.023904  0
C  C32  1  0.67753245  0.52730484  0.24612545  1  0  -0.342417  0  3.726832  0  0  -0.422578  0  3.955913  0  0  -0.42455  0  3.967787  0  0  -0.245518  -0.42123  0  3.949897  0
C  C33  1  0.32245931  0.47269220  0.75387791  1  0  -0.34254  0  3.726849  0  0  -0.422687  0  3.955948  0  0  -0.424678  0  3.967805  0  0  -0.24555  -0.421333  0  3.949932  0
C  C34  1  0.57244454  0.64755902  0.17468735  1  0  0.14248  0  3.753917  0  0  0.166816  0  3.991251  0  0  0.166483  0  4.017366  0  0  -0.009082  0.166354  0  3.974937  0
C  C35  1  0.42755255  0.35244148  0.82531599  1  0  0.142524  0  3.753953  0  0  0.16682  0  3.991325  0  0  0.166484  0  4.017449  0  0  -0.00908  0.166361  0  3.975  0
C  C36  1  0.48862481  0.75215045  0.23685253  1  0  -0.110321  0  3.73046  0  0  -0.128971  0  3.977268  0  0  -0.130884  0  3.998543  0  0  -0.091081  -0.127975  0  3.963146  0
C  C37  1  0.51137646  0.24785344  0.76314724  1  0  -0.110248  0  3.730445  0  0  -0.128876  0  3.977271  0  0  -0.130788  0  3.998549  0  0  -0.091046  -0.127883  0  3.963139  0
C  C38  1  0.38964929  0.86377245  0.17236146  1  0  -0.148525  0  3.73224  0  0  -0.169399  0  3.988124  0  0  -0.173377  0  4.009962  0  0  -0.09401  -0.165861  0  3.973018  0
C  C39  1  0.61035167  0.13623479  0.82763743  1  0  -0.148594  0  3.732112  0  0  -0.169468  0  3.987984  0  0  -0.173445  0  4.009822  0  0  -0.094034  -0.165931  0  3.972863  0
C  C40  1  0.37426928  0.87351564  0.04115935  1  0  0.209764  0  3.818992  0  0  0.200218  0  4.06958  0  0  0.204738  0  4.094588  0  0  0.090247  0.197572  0  4.054045  0
C  C41  1  0.62573313  0.12648829  0.95884209  1  0  0.209773  0  3.818991  0  0  0.200214  0  4.069603  0  0  0.204734  0  4.094612  0  0  0.090257  0.197582  0  4.054045  0
C  C42  1  0.45904636  0.77202266  0.97613129  1  0  -0.148288  0  3.7502  0  0  -0.168129  0  4.005936  0  0  -0.171946  0  4.027619  0  0  -0.090689  -0.166536  0  3.990767  0
C  C43  1  0.54095499  0.22798006  0.02386596  1  0  -0.148192  0  3.750015  0  0  -0.168065  0  4.005774  0  0  -0.17188  0  4.027454  0  0  -0.090704  -0.166481  0  3.990607  0
C  C44  1  0.55562406  0.66025519  0.04291228  1  0  -0.118743  0  3.74732  0  0  -0.136234  0  3.990761  0  0  -0.139533  0  4.013828  0  0  -0.093143  -0.134456  0  3.974574  0
C  C45  1  0.44437618  0.33974756  0.95708798  1  0  -0.11878  0  3.747324  0  0  -0.136255  0  3.990797  0  0  -0.139555  0  4.013863  0  0  -0.093157  -0.13448  0  3.974618  0
C  C46  1  0.18117439  0.08308219  0.01167128  1  0  0.189377  0  3.588186  0  0  0.13625  0  3.845538  0  0  0.157714  0  3.852032  0  0  0.088631  0.122435  0  3.8413  0
C  C47  1  0.81882821  0.91691947  0.98832887  1  0  0.189446  0  3.588106  0  0  0.136285  0  3.845481  0  0  0.157752  0  3.85198  0  0  0.088639  0.122468  0  3.841242  0
C  C48  1  0.08536114  0.18515570  0.93051128  1  0  -0.109303  0  3.828642  0  0  -0.090388  0  4.076625  0  0  -0.105921  0  4.10387  0  0  -0.035561  -0.082093  0  4.061088  0
C  C49  1  0.91464034  0.81484595  0.06948907  1  0  -0.109415  0  3.828567  0  0  -0.09049  0  4.076556  0  0  -0.106028  0  4.103807  0  0  -0.035574  -0.082193  0  4.061017  0
C  C50  1  0.98687538  0.29052651  0.98572496  1  0  -0.093534  0  3.763498  0  0  -0.123661  0  4.024842  0  0  -0.119014  0  4.044224  0  0  -0.098549  -0.125778  0  4.012027  0
C  C51  1  0.01312485  0.70947619  0.01427250  1  0  -0.093472  0  3.76335  0  0  -0.123618  0  4.024695  0  0  -0.118969  0  4.044075  0  0  -0.098521  -0.125733  0  4.011881  0
C  C52  1  0.89094021  0.39037192  0.91027973  1  0  -0.090557  0  3.829018  0  0  -0.10802  0  4.095857  0  0  -0.11474  0  4.11833  0  0  -0.110526  -0.102887  0  4.079229  0
C  C53  1  0.10905692  0.60962732  0.08971546  1  0  -0.090494  0  3.828966  0  0  -0.107947  0  4.095822  0  0  -0.114666  0  4.118296  0  0  -0.110526  -0.102825  0  4.079194  0
C  C54  1  0.88678826  0.38727893  0.77865077  1  0  -0.14252  0  3.755603  0  0  -0.168932  0  4.012804  0  0  -0.166304  0  4.030505  0  0  -0.100516  -0.170236  0  3.999758  0
C  C55  1  0.11321385  0.61271475  0.22134319  1  0  -0.142544  0  3.755751  0  0  -0.168907  0  4.012956  0  0  -0.166271  0  4.03066  0  0  -0.100544  -0.170216  0  3.999925  0
C  C56  1  0.98219553  0.28693007  0.72194452  1  0  0.129536  0  3.781201  0  0  0.122692  0  4.038777  0  0  0.125099  0  4.056262  0  0  0.062697  0.120632  0  4.027269  0
C  C57  1  0.01780664  0.71306370  0.27805507  1  0  0.129523  0  3.781203  0  0  0.12265  0  4.038815  0  0  0.12504  0  4.056327  0  0  0.062706  0.120593  0  4.027311  0
C  C58  1  0.08765035  0.18320596  0.79495214  1  0  0.272895  0  3.81467  0  0  0.250346  0  4.073461  0  0  0.268741  0  4.08725  0  0  0.095063  0.238374  0  4.065361  0
C  C59  1  0.91235471  0.81679352  0.20505006  1  0  0.272971  0  3.814672  0  0  0.250463  0  4.073414  0  0  0.268865  0  4.087203  0  0  0.095161  0.238491  0  4.065316  0
C  C60  1  0.87133254  0.36163276  0.52131569  1  0  -0.080945  0  3.599097  0  0  -0.17945  0  3.861261  0  0  -0.172956  0  3.865482  0  0  -0.148302  -0.183883  0  3.858711  0
C  C61  1  0.12867054  0.63836324  0.47868217  1  0  -0.080744  0  3.598912  0  0  -0.179165  0  3.861052  0  0  -0.172672  0  3.865269  0  0  -0.148243  -0.1836  0  3.858501  0
C  C62  1  0.52271755  0.18831511  0.43018975  1  0  0.313534  0  4.018249  0  0  0.294009  0  4.316385  0  0  0.316334  0  4.330267  0  0  0.154894  0.279163  0  4.304674  0
C  C63  1  0.47728202  0.81168324  0.56981752  1  0  0.313534  0  4.018327  0  0  0.29401  0  4.316448  0  0  0.316334  0  4.330326  0  0  0.154955  0.279164  0  4.304741  0
S  S64  1  0.36215405  0.28099293  0.40151534  1  0  -0.342285  0  2.144598  0  0  -0.307948  0  2.464964  0  0  -0.325137  0  2.457116  0  0  -0.135478  -0.295579  0  2.469689  0
S  S65  1  0.63784630  0.71900872  0.59848616  1  0  -0.342302  0  2.14463  0  0  -0.307959  0  2.464979  0  0  -0.325149  0  2.457131  0  0  -0.135499  -0.295597  0  2.469713  0
N  N66  1  0.27645838  0.98167087  0.96926950  1  0  -0.285213  0  3.454115  0  0  -0.216418  0  3.683631  0  0  -0.235039  0  3.697113  0  0  -0.357416  -0.2041  0  3.675232  0
N  N67  1  0.72354393  0.01833416  0.03073071  1  0  -0.285331  0  3.454162  0  0  -0.216544  0  3.683749  0  0  -0.235163  0  3.697221  0  0  -0.357456  -0.204225  0  3.675345  0
N  N68  1  0.64117379  0.12524213  0.45049263  1  0  -0.540842  0  2.891465  0  0  -0.479997  0  3.166785  0  0  -0.502031  0  3.172251  0  0  -0.395662  -0.463393  0  3.160208  0
N  N69  1  0.35882937  0.87475405  0.54951648  1  0  -0.540799  0  2.891462  0  0  -0.479962  0  3.166787  0  0  -0.501992  0  3.172251  0  0  -0.395693  -0.463359  0  3.160216  0
Cl  Cl70  1  0.05261037  0.11347068  0.33299708  1  0  -0.565315  0  1.031103  0  0  -0.49779  0  1.314109  0  0  -0.51725  0  1.291036  0  0  -0.279413  -0.483864  0  1.329132  0
Cl  Cl71  1  0.94738926  0.88652645  0.66700391  1  0  -0.565317  0  1.031085  0  0  -0.497801  0  1.314084  0  0  -0.517259  0  1.291011  0  0  -0.279424  -0.483874  0  1.329106  0
O  O72  1  0.98776145  0.27814636  0.59427125  1  0  -0.277654  0  2.473462  0  0  -0.186993  0  2.715437  0  0  -0.207352  0  2.721243  0  0  -0.196457  -0.173012  0  2.710868  0
O  O73  1  0.01223744  0.72184623  0.40572830  1  0  -0.27771  0  2.473419  0  0  -0.187099  0  2.715433  0  0  -0.207452  0  2.721244  0  0  -0.196523  -0.173119  0  2.710871  0
O  O74  1  0.18157291  0.09085176  0.74201397  1  0  -0.577912  0  2.105346  0  0  -0.507398  0  2.3515  0  0  -0.537652  0  2.349191  0  0  -0.326954  -0.488689  0  2.353513  0
O  O75  1  0.81843532  0.90914998  0.25798610  1  0  -0.577929  0  2.105413  0  0  -0.507414  0  2.351556  0  0  -0.537667  0  2.349238  0  0  -0.327012  -0.48871  0  2.353572  0
