# generated using pymatgen
data_LiH23(C6N)3
_symmetry_space_group_name_H-M   'P 1'
_cell_length_a   8.28537347
_cell_length_b   10.14621307
_cell_length_c   11.57821236
_cell_angle_alpha   114.35411228
_cell_angle_beta   93.14973537
_cell_angle_gamma   107.70934954
_symmetry_Int_Tables_number   1
_chemical_formula_structural   LiH23(C6N)3
_chemical_formula_sum   'Li2 H46 C36 N6'
_cell_volume   826.24431275
_cell_formula_units_Z   2
loop_
 _symmetry_equiv_pos_site_id
 _symmetry_equiv_pos_as_xyz
  1  'x, y, z'
loop_
 _atom_site_type_symbol
 _atom_site_label
 _atom_site_symmetry_multiplicity
 _atom_site_fract_x
 _atom_site_fract_y
 _atom_site_fract_z
 _atom_site_occupancy
 _atom_site_hle17_bader_spin_density
 _atom_site_hle17_ddec_charge
 _atom_site_hle17_ddec_spin_density
 _atom_site_hle17_ddec_sum_bond_order
 _atom_site_hle17_magmom
 _atom_site_hse06_10hf_bader_spin_density
 _atom_site_hse06_10hf_ddec_charge
 _atom_site_hse06_10hf_ddec_spin_density
 _atom_site_hse06_10hf_ddec_sum_bond_order
 _atom_site_hse06_10hf_magmom
 _atom_site_hse06_bader_spin_density
 _atom_site_hse06_ddec_charge
 _atom_site_hse06_ddec_spin_density
 _atom_site_hse06_ddec_sum_bond_order
 _atom_site_hse06_magmom
 _atom_site_pbe_bader_spin_density
 _atom_site_pbe_cm5_charge
 _atom_site_pbe_ddec_charge
 _atom_site_pbe_ddec_spin_density
 _atom_site_pbe_ddec_sum_bond_order
 _atom_site_pbe_magmom
Li  Li0  1  0.15377647  0.02184581  0.49488754  1  0  0.778537  0  0.515258  0  0  0.712257  0  0.650677  0  0  0.721726  0  0.638005  0  0  0.588273  0.70571  0  0.659378  0
Li  Li1  1  0.84621964  0.97814935  0.50510881  1  0  0.778571  0  0.515193  0  0  0.712289  0  0.650626  0  0  0.721756  0  0.637955  0  0  0.588278  0.705741  0  0.659328  0
H  H2  1  0.84991551  0.03384215  0.87776555  1  0  0.095113  0  0.951526  0  0  0.109097  0  1.008111  0  0  0.11222  0  1.006476  0  0  0.099259  0.106658  0  1.009644  0
H  H3  1  0.15008519  0.96615301  0.12222228  1  0  0.095118  0  0.951548  0  0  0.10912  0  1.008108  0  0  0.112244  0  1.006475  0  0  0.09926  0.10668  0  1.00964  0
H  H4  1  0.63852230  0.95830376  0.00385873  1  0  0.086801  0  0.96084  0  0  0.102235  0  1.015702  0  0  0.104485  0  1.015413  0  0  0.097736  0.100634  0  1.01598  0
H  H5  1  0.36149177  0.04169725  0.99613763  1  0  0.086708  0  0.960891  0  0  0.102177  0  1.015723  0  0  0.104428  0  1.015431  0  0  0.097707  0.10057  0  1.015999  0
H  H6  1  0.32596761  0.55610679  0.65648299  1  0  0.080641  0  0.975879  0  0  0.090933  0  1.04171  0  0  0.093102  0  1.041131  0  0  0.091164  0.089345  0  1.042376  0
H  H7  1  0.67403212  0.44389418  0.34351904  1  0  0.08065  0  0.975851  0  0  0.090932  0  1.041699  0  0  0.0931  0  1.041119  0  0  0.091157  0.089342  0  1.042365  0
H  H8  1  0.53498805  0.63178916  0.52959425  1  0  0.086604  0  0.975787  0  0  0.096077  0  1.043938  0  0  0.098715  0  1.043161  0  0  0.095387  0.094231  0  1.044496  0
H  H9  1  0.46500673  0.36820253  0.47040253  1  0  0.086687  0  0.975752  0  0  0.096185  0  1.043869  0  0  0.098826  0  1.043086  0  0  0.095441  0.094333  0  1.044434  0
H  H10  1  0.36693793  0.60790150  0.93386951  1  0  0.098283  0  0.953054  0  0  0.121271  0  1.014161  0  0  0.12249  0  1.013809  0  0  0.086536  0.120369  0  1.014382  0
H  H11  1  0.63306595  0.39209485  0.06612921  1  0  0.098318  0  0.953025  0  0  0.121295  0  1.014143  0  0  0.122516  0  1.01379  0  0  0.086551  0.120391  0  1.014367  0
H  H12  1  0.35961218  0.79664182  0.01182726  1  0  0.098924  0  0.973068  0  0  0.116652  0  1.043189  0  0  0.118132  0  1.04269  0  0  0.085029  0.115454  0  1.043604  0
H  H13  1  0.64038771  0.20335336  0.98817439  1  0  0.098871  0  0.973067  0  0  0.116588  0  1.043213  0  0  0.118066  0  1.042716  0  0  0.085038  0.115385  0  1.043632  0
H  H14  1  0.20826597  0.65311791  0.86540301  1  0  0.107888  0  0.972404  0  0  0.127478  0  1.035234  0  0  0.127724  0  1.037733  0  0  0.086737  0.127275  0  1.033464  0
H  H15  1  0.79174571  0.34688309  0.13459415  1  0  0.107836  0  0.972499  0  0  0.127437  0  1.035323  0  0  0.127683  0  1.037823  0  0  0.086725  0.127229  0  1.033553  0
H  H16  1  0.06094324  0.58720130  0.47743207  1  0  0.085041  0  0.987338  0  0  0.096016  0  1.052627  0  0  0.098596  0  1.051517  0  0  0.094353  0.094316  0  1.053159  0
H  H17  1  0.93907069  0.41279277  0.52256865  1  0  0.085088  0  0.987313  0  0  0.096035  0  1.052638  0  0  0.098611  0  1.051528  0  0  0.094379  0.094339  0  1.053167  0
H  H18  1  0.16172157  0.40183590  0.30972595  1  0  0.085084  0  0.975903  0  0  0.095751  0  1.038999  0  0  0.097542  0  1.039334  0  0  0.091933  0.094393  0  1.038785  0
H  H19  1  0.83829696  0.59816743  0.69026791  1  0  0.085085  0  0.975944  0  0  0.095778  0  1.039012  0  0  0.097567  0  1.039349  0  0  0.091948  0.09442  0  1.038797  0
H  H20  1  0.12344098  0.61939439  0.06579915  1  0  0.087476  0  0.978778  0  0  0.102079  0  1.03766  0  0  0.103794  0  1.038013  0  0  0.097787  0.101059  0  1.037138  0
H  H21  1  0.87655339  0.38060540  0.93420059  1  0  0.087492  0  0.978801  0  0  0.102117  0  1.037655  0  0  0.103827  0  1.038003  0  0  0.09781  0.101098  0  1.037134  0
H  H22  1  0.01693602  0.80217311  0.23173100  1  0  0.093691  0  0.973732  0  0  0.098709  0  1.048274  0  0  0.10296  0  1.044624  0  0  0.105424  0.09533  0  1.051487  0
H  H23  1  0.98306200  0.19783248  0.76827528  1  0  0.09371  0  0.973742  0  0  0.098735  0  1.048273  0  0  0.102985  0  1.044622  0  0  0.105437  0.095357  0  1.051486  0
H  H24  1  0.21646392  0.40512387  0.98750493  1  0  0.09662  0  0.976972  0  0  0.116993  0  1.042306  0  0  0.118282  0  1.042271  0  0  0.085224  0.115957  0  1.042513  0
H  H25  1  0.78353251  0.59487477  0.01249789  1  0  0.096569  0  0.97693  0  0  0.11698  0  1.042241  0  0  0.118269  0  1.042208  0  0  0.085222  0.115944  0  1.042447  0
H  H26  1  0.34296105  0.39643286  0.11203487  1  0  0.104294  0  0.973224  0  0  0.127062  0  1.032657  0  0  0.127476  0  1.034613  0  0  0.087755  0.126909  0  1.031199  0
H  H27  1  0.65703312  0.60356579  0.88797308  1  0  0.104301  0  0.973196  0  0  0.127113  0  1.032585  0  0  0.127529  0  1.034538  0  0  0.087808  0.12696  0  1.031124  0
H  H28  1  0.12991302  0.26306433  0.04208383  1  0  0.10355  0  0.941901  0  0  0.126389  0  1.000392  0  0  0.127343  0  1.000614  0  0  0.087789  0.125473  0  1.000717  0
H  H29  1  0.87007872  0.73693430  0.95792406  1  0  0.103544  0  0.941932  0  0  0.12638  0  1.000442  0  0  0.127336  0  1.00066  0  0  0.087794  0.125464  0  1.000771  0
H  H30  1  0.82901446  0.65401310  0.52071030  1  0  0.026273  0  0.948344  0  0  0.043973  0  1.013071  0  0  0.045248  0  1.009647  0  0  0.11057  0.043215  0  1.015129  0
H  H31  1  0.17097684  0.34598205  0.47928679  1  0  0.026291  0  0.948377  0  0  0.043977  0  1.013112  0  0  0.045252  0  1.009688  0  0  0.110592  0.043226  0  1.015156  0
H  H32  1  0.57687109  0.17676281  0.55063096  1  0  0.065836  0  0.940691  0  0  0.082645  0  1.003309  0  0  0.082264  0  1.005097  0  0  0.108879  0.082854  0  1.002157  0
H  H33  1  0.42312747  0.82323816  0.44937277  1  0  0.065843  0  0.940682  0  0  0.082676  0  1.003294  0  0  0.082299  0  1.005074  0  0  0.108892  0.082884  0  1.002144  0
H  H34  1  0.62571662  0.07477208  0.63208501  1  0  0.0521  0  0.946255  0  0  0.065648  0  1.015663  0  0  0.066199  0  1.016162  0  0  0.1036  0.06531  0  1.015125  0
H  H35  1  0.37428292  0.92523121  0.36792132  1  0  0.052071  0  0.946262  0  0  0.065676  0  1.015628  0  0  0.066227  0  1.016128  0  0  0.103596  0.065338  0  1.015091  0
H  H36  1  0.29547482  0.85798467  0.61280684  1  0  0.091457  0  0.96162  0  0  0.110155  0  1.026832  0  0  0.110234  0  1.028537  0  0  0.101002  0.109824  0  1.026253  0
H  H37  1  0.70452181  0.14201745  0.38719812  1  0  0.091415  0  0.961586  0  0  0.110139  0  1.026782  0  0  0.110218  0  1.028489  0  0  0.100983  0.109809  0  1.026203  0
H  H38  1  0.20788945  0.98547028  0.72371176  1  0  0.096719  0  0.934212  0  0  0.117868  0  0.99294  0  0  0.118699  0  0.992946  0  0  0.107803  0.116955  0  0.993589  0
H  H39  1  0.79210786  0.01453068  0.27629021  1  0  0.096735  0  0.93414  0  0  0.117879  0  0.992885  0  0  0.118711  0  0.99289  0  0  0.107814  0.116964  0  0.993535  0
H  H40  1  0.43035273  0.00757594  0.76394088  1  0  0.075867  0  0.957824  0  0  0.09335  0  1.028906  0  0  0.09346  0  1.030543  0  0  0.088992  0.093147  0  1.027903  0
H  H41  1  0.56964216  0.99242501  0.23606102  1  0  0.075893  0  0.957783  0  0  0.093382  0  1.028863  0  0  0.093491  0  1.0305  0  0  0.089013  0.093183  0  1.027855  0
H  H42  1  0.29381165  0.25242120  0.76317100  1  0  0.091172  0  0.951056  0  0  0.111617  0  1.014304  0  0  0.112094  0  1.014834  0  0  0.105143  0.111204  0  1.013999  0
H  H43  1  0.70618196  0.74757974  0.23682828  1  0  0.091181  0  0.951081  0  0  0.111613  0  1.014323  0  0  0.112088  0  1.014852  0  0  0.105181  0.1112  0  1.014017  0
H  H44  1  0.44506158  0.32331224  0.67997087  1  0  0.090243  0  0.941375  0  0  0.110699  0  1.005213  0  0  0.110905  0  1.006172  0  0  0.103016  0.110011  0  1.005426  0
H  H45  1  0.55493347  0.67668638  0.32002587  1  0  0.090306  0  0.941393  0  0  0.110757  0  1.005225  0  0  0.110962  0  1.006185  0  0  0.103054  0.110069  0  1.005437  0
H  H46  1  0.51768456  0.28046897  0.80392118  1  0  0.080649  0  0.948261  0  0  0.10169  0  1.012101  0  0  0.102069  0  1.013171  0  0  0.092203  0.101434  0  1.011147  0
H  H47  1  0.48231236  0.71953430  0.19607817  1  0  0.08065  0  0.948292  0  0  0.101682  0  1.012134  0  0  0.102062  0  1.013203  0  0  0.092193  0.101427  0  1.01118  0
C  C48  1  0.71191136  0.83559638  0.69562937  1  0  0.246383  0  3.879798  0  0  0.246835  0  4.127455  0  0  0.254383  0  4.150235  0  0  0.086327  0.241871  0  4.111508  0
C  C49  1  0.28807623  0.16440222  0.30436025  1  0  0.246528  0  3.879476  0  0  0.246796  0  4.127427  0  0  0.254343  0  4.150207  0  0  0.086248  0.241831  0  4.111478  0
C  C50  1  0.73496640  0.92850652  0.82955545  1  0  -0.162471  0  3.749076  0  0  -0.180953  0  4.000046  0  0  -0.18489  0  4.019266  0  0  -0.100565  -0.17774  0  3.986242  0
C  C51  1  0.26502937  0.07149442  0.17043524  1  0  -0.162453  0  3.748944  0  0  -0.180907  0  3.999999  0  0  -0.184845  0  4.019223  0  0  -0.100462  -0.177692  0  3.986189  0
C  C52  1  0.61570033  0.88576567  0.89965380  1  0  -0.131029  0  3.794951  0  0  -0.148493  0  4.038926  0  0  -0.149861  0  4.059958  0  0  -0.097336  -0.147509  0  4.024224  0
C  C53  1  0.38429903  0.11424108  0.10034170  1  0  -0.130945  0  3.794865  0  0  -0.148433  0  4.038821  0  0  -0.149804  0  4.059846  0  0  -0.097332  -0.147442  0  4.02411  0
C  C54  1  0.46758029  0.75039797  0.83978851  1  0  0.113955  0  3.788001  0  0  0.141616  0  4.019338  0  0  0.140952  0  4.044499  0  0  -0.023689  0.141989  0  4.002463  0
C  C55  1  0.53242706  0.24960418  0.16021069  1  0  0.113885  0  3.78809  0  0  0.141573  0  4.0194  0  0  0.14092  0  4.044542  0  0  -0.023721  0.141946  0  4.002519  0
C  C56  1  0.44215744  0.66029163  0.70570560  1  0  -0.122338  0  3.775524  0  0  -0.137747  0  4.01604  0  0  -0.139151  0  4.037914  0  0  -0.100231  -0.137546  0  4.002916  0
C  C57  1  0.55784077  0.33971164  0.29429637  1  0  -0.122319  0  3.775595  0  0  -0.137724  0  4.01609  0  0  -0.139131  0  4.037962  0  0  -0.100191  -0.137519  0  4.002964  0
C  C58  1  0.56072575  0.70148144  0.63447495  1  0  -0.184064  0  3.766478  0  0  -0.199756  0  4.016103  0  0  -0.205109  0  4.038133  0  0  -0.105691  -0.196051  0  4.00167  0
C  C59  1  0.43926666  0.29851370  0.36551871  1  0  -0.18424  0  3.766578  0  0  -0.199889  0  4.01624  0  0  -0.205241  0  4.038268  0  0  -0.105762  -0.196183  0  4.001806  0
C  C60  1  0.34378997  0.70031537  0.91665333  1  0  -0.335705  0  3.741388  0  0  -0.414759  0  3.976192  0  0  -0.416609  0  3.986078  0  0  -0.243521  -0.412965  0  3.969183  0
C  C61  1  0.65621821  0.29968563  0.08334806  1  0  -0.335621  0  3.74144  0  0  -0.414678  0  3.976219  0  0  -0.41653  0  3.9861  0  0  -0.243548  -0.412875  0  3.969212  0
C  C62  1  0.02152229  0.70281716  0.36353859  1  0  0.245488  0  3.890518  0  0  0.246969  0  4.132744  0  0  0.254715  0  4.155342  0  0  0.084241  0.241725  0  4.117131  0
C  C63  1  0.97848518  0.29718499  0.63646493  1  0  0.245596  0  3.890537  0  0  0.247089  0  4.132719  0  0  0.254836  0  4.155315  0  0  0.084265  0.241844  0  4.117109  0
C  C64  1  0.06676883  0.58992165  0.38455718  1  0  -0.187884  0  3.773308  0  0  -0.20574  0  4.026531  0  0  -0.211294  0  4.047982  0  0  -0.108067  -0.201827  0  4.011571  0
C  C65  1  0.93324155  0.41008167  0.61544770  1  0  -0.187998  0  3.77344  0  0  -0.205847  0  4.02669  0  0  -0.211398  0  4.048137  0  0  -0.108109  -0.201937  0  4.011733  0
C  C66  1  0.12640265  0.48747782  0.29086047  1  0  -0.121789  0  3.767609  0  0  -0.138086  0  4.009345  0  0  -0.138839  0  4.030523  0  0  -0.100924  -0.137223  0  3.99461  0
C  C67  1  0.87361141  0.51252898  0.70914146  1  0  -0.121809  0  3.767777  0  0  -0.138118  0  4.009523  0  0  -0.138872  0  4.0307  0  0  -0.100963  -0.137255  0  3.994787  0
C  C68  1  0.14649856  0.49431791  0.17361613  1  0  0.110896  0  3.78747  0  0  0.138916  0  4.021091  0  0  0.138061  0  4.045877  0  0  -0.024218  0.139343  0  4.004038  0
C  C69  1  0.85350293  0.50568769  0.82638505  1  0  0.11095  0  3.787308  0  0  0.13893  0  4.021027  0  0  0.138074  0  4.045811  0  0  -0.024199  0.139356  0  4.003974  0
C  C70  1  0.10631172  0.60962865  0.15491697  1  0  -0.126719  0  3.783889  0  0  -0.145749  0  4.027053  0  0  -0.146856  0  4.048447  0  0  -0.096928  -0.144753  0  4.012057  0
C  C71  1  0.89368634  0.39037115  0.84508459  1  0  -0.126762  0  3.783834  0  0  -0.145804  0  4.027032  0  0  -0.1469  0  4.048418  0  0  -0.096956  -0.144808  0  4.012039  0
C  C72  1  0.04442541  0.71125602  0.24688583  1  0  -0.179574  0  3.769063  0  0  -0.198633  0  4.027419  0  0  -0.202588  0  4.045683  0  0  -0.097596  -0.195817  0  4.01488  0
C  C73  1  0.95558272  0.28875076  0.75312026  1  0  -0.179626  0  3.769159  0  0  -0.198685  0  4.027506  0  0  -0.202641  0  4.045771  0  0  -0.097618  -0.195869  0  4.014968  0
C  C74  1  0.21241742  0.38465744  0.07341587  1  0  -0.332818  0  3.741647  0  0  -0.412918  0  3.973146  0  0  -0.414964  0  3.983876  0  0  -0.243259  -0.411307  0  3.965888  0
C  C75  1  0.78757846  0.61534004  0.92658306  1  0  -0.332783  0  3.741577  0  0  -0.412939  0  3.973099  0  0  -0.414987  0  3.983828  0  0  -0.243304  -0.411328  0  3.965839  0
C  C76  1  0.87522172  0.77540367  0.53545195  1  0  0.315288  0  3.91995  0  0  0.267072  0  4.189101  0  0  0.288638  0  4.196568  0  0  0.144069  0.252558  0  4.183681  0
C  C77  1  0.12477686  0.22459150  0.46454620  1  0  0.315238  0  3.919982  0  0  0.267035  0  4.189125  0  0  0.288601  0  4.196591  0  0  0.144032  0.252522  0  4.183705  0
C  C78  1  0.52361789  0.07250542  0.56476828  1  0  -0.025091  0  3.643766  0  0  -0.076679  0  3.895597  0  0  -0.073693  0  3.907107  0  0  -0.062844  -0.078576  0  3.887682  0
C  C79  1  0.47638119  0.92749671  0.43523761  1  0  -0.025073  0  3.643573  0  0  -0.076773  0  3.895472  0  0  -0.07379  0  3.906983  0  0  -0.062831  -0.078671  0  3.887557  0
C  C80  1  0.32461826  0.97816578  0.68481342  1  0  -0.175371  0  3.672358  0  0  -0.263457  0  3.919934  0  0  -0.261723  0  3.93099  0  0  -0.144663  -0.264448  0  3.912796  0
C  C81  1  0.67537784  0.02183518  0.31518851  1  0  -0.175355  0  3.672236  0  0  -0.263478  0  3.919825  0  0  -0.261743  0  3.930879  0  0  -0.144692  -0.264474  0  3.91268  0
C  C82  1  0.40968704  0.24358797  0.72369581  1  0  -0.169398  0  3.678108  0  0  -0.259839  0  3.928658  0  0  -0.257677  0  3.939195  0  0  -0.14236  -0.260891  0  3.921511  0
C  C83  1  0.59030777  0.75641297  0.27630350  1  0  -0.169473  0  3.678207  0  0  -0.259879  0  3.928762  0  0  -0.257716  0  3.939296  0  0  -0.142432  -0.260932  0  3.921615  0
N  N84  1  0.96737876  0.81290552  0.45523241  1  0  -0.691568  0  3.274052  0  0  -0.630286  0  3.550564  0  0  -0.650716  0  3.559881  0  0  -0.52965  -0.61585  0  3.543679  0
N  N85  1  0.03262426  0.18709778  0.54476882  1  0  -0.691585  0  3.274119  0  0  -0.630302  0  3.550617  0  0  -0.650732  0  3.559936  0  0  -0.529636  -0.615869  0  3.543734  0
N  N86  1  0.83445836  0.88190623  0.62871508  1  0  -0.598606  0  3.175755  0  0  -0.548709  0  3.458501  0  0  -0.569669  0  3.46981  0  0  -0.458154  -0.534509  0  3.450745  0
N  N87  1  0.16553194  0.11808659  0.37127855  1  0  -0.598622  0  3.175562  0  0  -0.548653  0  3.458318  0  0  -0.569618  0  3.469642  0  0  -0.458105  -0.534454  0  3.450561  0
N  N88  1  0.37193358  0.08349373  0.62447254  1  0  -0.246411  0  3.293582  0  0  -0.15621  0  3.547538  0  0  -0.168834  0  3.565732  0  0  -0.436526  -0.147503  0  3.534847  0
N  N89  1  0.62806401  0.91650492  0.37552859  1  0  -0.246508  0  3.293544  0  0  -0.156292  0  3.547505  0  0  -0.168911  0  3.565693  0  0  -0.436567  -0.147584  0  3.534816  0
