# generated using pymatgen
data_Zn2H19C31(NO3)3
_symmetry_space_group_name_H-M   'P 1'
_cell_length_a   9.85977762
_cell_length_b   11.91996591
_cell_length_c   12.68269440
_cell_angle_alpha   107.16405365
_cell_angle_beta   91.36280862
_cell_angle_gamma   110.31362433
_symmetry_Int_Tables_number   1
_chemical_formula_structural   Zn2H19C31(NO3)3
_chemical_formula_sum   'Zn4 H38 C62 N6 O18'
_cell_volume   1322.29403566
_cell_formula_units_Z   2
loop_
 _symmetry_equiv_pos_site_id
 _symmetry_equiv_pos_as_xyz
  1  'x, y, z'
loop_
 _atom_site_type_symbol
 _atom_site_label
 _atom_site_symmetry_multiplicity
 _atom_site_fract_x
 _atom_site_fract_y
 _atom_site_fract_z
 _atom_site_occupancy
 _atom_site_pbe_bader_spin_density
 _atom_site_pbe_cm5_charge
 _atom_site_pbe_ddec_charge
 _atom_site_pbe_ddec_spin_density
 _atom_site_pbe_ddec_sum_bond_order
 _atom_site_pbe_magmom
Zn  Zn0  1  0.89769839  0.89938752  0.29487970  1  0  0.699585  0.86219  0  2.263834  0
Zn  Zn1  1  0.10229896  0.10061513  0.70512232  1  0  0.69961  0.86221  0  2.26385  0
Zn  Zn2  1  0.64118939  0.23942832  0.62688694  1  0  0.707652  0.90564  0  2.261778  0
Zn  Zn3  1  0.35881039  0.76057527  0.37311540  1  0  0.70766  0.905686  0  2.261722  0
H  H4  1  0.20540785  0.02884367  0.39318738  1  0  0.120285  0.099154  0  1.017522  0
H  H5  1  0.79459006  0.97115328  0.60681153  1  0  0.12031  0.099155  0  1.017557  0
H  H6  1  0.41199803  0.22358299  0.39492258  1  0  0.112291  0.126038  0  0.999427  0
H  H7  1  0.58800290  0.77641394  0.60507719  1  0  0.112301  0.12601  0  0.999408  0
H  H8  1  0.38165961  0.34149780  0.26826150  1  0  0.113014  0.112103  0  0.994966  0
H  H9  1  0.61834174  0.65850007  0.73173853  1  0  0.113003  0.112081  0  0.994973  0
H  H10  1  0.94849434  0.05664459  0.14560921  1  0  0.118145  0.099644  0  1.069875  0
H  H11  1  0.05150281  0.94335997  0.85439491  1  0  0.118179  0.099685  0  1.06985  0
H  H12  1  0.34789138  0.41847393  0.14956447  1  0  0.105461  0.112378  0  1.034636  0
H  H13  1  0.65210957  0.58152299  0.85043372  1  0  0.105476  0.1124  0  1.034601  0
H  H14  1  0.03317650  0.41116791  0.90535901  1  0  0.110158  0.123101  0  1.037914  0
H  H15  1  0.96682568  0.58883185  0.09463998  1  0  0.110151  0.12307  0  1.037952  0
H  H16  1  0.87064860  0.30180254  0.79404589  1  0  0.116591  0.09586  0  1.099153  0
H  H17  1  0.12934855  0.69820203  0.20595902  1  0  0.116574  0.095802  0  1.099193  0
H  H18  1  0.73599306  0.05851439  0.99787211  1  0  0.113283  0.122707  0  1.016185  0
H  H19  1  0.26400687  0.94148254  0.00212606  1  0  0.113266  0.122701  0  1.016215  0
H  H20  1  0.49298693  0.95394554  0.87329358  1  0  0.110837  0.117446  0  1.001101  0
H  H21  1  0.50701443  0.04605232  0.12670409  1  0  0.110832  0.117436  0  1.001123  0
H  H22  1  0.45401156  0.03149114  0.71704771  1  0  0.117748  0.088939  0  1.014867  0
H  H23  1  0.54598801  0.96850958  0.28295069  1  0  0.11775  0.08893  0  1.01488  0
H  H24  1  0.20144918  0.48389875  0.82990352  1  0  0.107646  0.117789  0  1.015358  0
H  H25  1  0.79855742  0.51609717  0.17009374  1  0  0.107635  0.117777  0  1.01533  0
H  H26  1  0.37103816  0.66614476  0.78687303  1  0  0.101691  0.100531  0  1.009847  0
H  H27  1  0.62896623  0.33385307  0.21312391  1  0  0.101723  0.10056  0  1.009887  0
H  H28  1  0.58556347  0.82461536  0.92835970  1  0  0.099114  0.095264  0  1.048202  0
H  H29  1  0.41443771  0.17538440  0.07163847  1  0  0.099119  0.09527  0  1.048164  0
H  H30  1  0.46721827  0.60783598  0.14965145  1  0  0.104864  0.108238  0  1.014411  0
H  H31  1  0.53278188  0.39216380  0.85034908  1  0  0.104866  0.108233  0  1.014419  0
H  H32  1  0.71261325  0.17947417  0.30110462  1  0  0.101959  0.101003  0  1.012069  0
H  H33  1  0.28738774  0.82052750  0.69889565  1  0  0.101955  0.101069  0  1.012021  0
H  H34  1  0.86110067  0.36672992  0.24774408  1  0  0.10506  0.10395  0  1.034344  0
H  H35  1  0.13890331  0.63326697  0.75225338  1  0  0.105047  0.103913  0  1.034396  0
H  H36  1  0.21639417  0.44435409  0.49382251  1  0  0.108675  0.119263  0  1.001509  0
H  H37  1  0.78360599  0.55564569  0.50617722  1  0  0.108662  0.119236  0  1.001536  0
H  H38  1  0.38005576  0.26738364  0.60427698  1  0  0.306446  0.418209  0  0.900296  0
H  H39  1  0.61994238  0.73261614  0.39572192  1  0  0.306405  0.418095  0  0.900436  0
H  H40  1  0.35618047  0.12548394  0.58162599  1  0  0.293546  0.381589  0  0.967732  0
H  H41  1  0.64381726  0.87451490  0.41837186  1  0  0.29353  0.381564  0  0.967773  0
C  C42  1  0.19798428  0.08124665  0.33746594  1  0  0.044896  0.091637  0  3.915583  0
C  C43  1  0.80201444  0.91875220  0.66253430  1  0  0.044814  0.091604  0  3.91561  0
C  C44  1  0.31231598  0.18941834  0.33698640  1  0  -0.081228  -0.11827  0  3.978531  0
C  C45  1  0.68768376  0.81058049  0.66301386  1  0  -0.081183  -0.118145  0  3.978403  0
C  C46  1  0.29427811  0.25404589  0.26585361  1  0  -0.056369  -0.060596  0  3.920125  0
C  C47  1  0.70572306  0.74595388  0.73414693  1  0  -0.056367  -0.060631  0  3.920103  0
C  C48  1  0.16357536  0.20683900  0.19292632  1  0  0.005108  0.005438  0  3.944829  0
C  C49  1  0.83642419  0.79316175  0.80707682  1  0  0.005142  0.00556  0  3.944847  0
C  C50  1  0.05373111  0.09684728  0.19822774  1  0  0.058184  0.06836  0  3.860643  0
C  C51  1  0.94626724  0.90315538  0.80177588  1  0  0.058054  0.068159  0  3.860646  0
C  C52  1  0.13479901  0.26798880  0.11311740  1  0  0.121542  0.211078  0  4.014107  0
C  C53  1  0.86520054  0.73201194  0.88688416  1  0  0.121518  0.210975  0  4.014161  0
C  C54  1  0.23992989  0.37671309  0.10092693  1  0  -0.078619  -0.20331  0  3.884748  0
C  C55  1  0.76007229  0.62328667  0.89907284  1  0  -0.078627  -0.203299  0  3.8849  0
C  C56  1  0.20730777  0.42834798  0.02207804  1  0  0.012623  0.129396  0  3.972102  0
C  C57  1  0.79269685  0.57165270  0.97792125  1  0  0.012592  0.129357  0  3.972251  0
C  C58  1  0.06584367  0.37053057  0.96312313  1  0  -0.077601  -0.206103  0  3.878263  0
C  C59  1  0.93415691  0.62947015  0.03687608  1  0  -0.077545  -0.205978  0  3.878402  0
C  C60  1  0.96842388  0.25996008  0.97734583  1  0  0.119464  0.209203  0  4.04536  0
C  C61  1  0.03157508  0.74004162  0.02265597  1  0  0.119471  0.209187  0  4.045453  0
C  C62  1  0.79211492  0.22610354  0.81750254  1  0  0.046448  0.036978  0  3.909727  0
C  C63  1  0.20788426  0.77390100  0.18250083  1  0  0.046478  0.037055  0  3.909658  0
C  C64  1  0.82328311  0.19102929  0.90818694  1  0  0.002944  0.008674  0  3.959783  0
C  C65  1  0.17671484  0.80897240  0.09181326  1  0  0.002986  0.008703  0  3.959763  0
C  C66  1  0.71483235  0.08965178  0.92849323  1  0  -0.054366  -0.054317  0  3.874606  0
C  C67  1  0.28516823  0.91034894  0.07150677  1  0  -0.054352  -0.054307  0  3.87461  0
C  C68  1  0.58148269  0.03064387  0.85871544  1  0  -0.080084  -0.121824  0  3.981882  0
C  C69  1  0.41851848  0.96935590  0.14128432  1  0  -0.08009  -0.121826  0  3.981887  0
C  C70  1  0.55801626  0.07306808  0.77136843  1  0  0.047784  0.091093  0  3.937369  0
C  C71  1  0.44198371  0.92693360  0.22863182  1  0  0.04779  0.091114  0  3.937376  0
C  C72  1  0.31524665  0.53561720  0.99635329  1  0  -0.006576  0.058246  0  3.959997  0
C  C73  1  0.68475430  0.46437971  0.00364332  1  0  -0.006591  0.058153  0  3.959997  0
C  C74  1  0.29300725  0.55237873  0.89272721  1  0  -0.076973  -0.099332  0  3.908461  0
C  C75  1  0.70699632  0.44761721  0.10726999  1  0  -0.076956  -0.099218  0  3.908453  0
C  C76  1  0.38937764  0.65532741  0.86783909  1  0  -0.097381  -0.098033  0  4.038475  0
C  C77  1  0.61062634  0.34466948  0.13215837  1  0  -0.097415  -0.098116  0  4.038664  0
C  C78  1  0.50932596  0.74278369  0.94520850  1  0  -0.088021  -0.108898  0  4.013615  0
C  C79  1  0.49067480  0.25721512  0.05478941  1  0  -0.087992  -0.108854  0  4.013648  0
C  C80  1  0.53857709  0.72373343  0.04568880  1  0  -0.020171  -0.028611  0  3.983403  0
C  C81  1  0.46142611  0.27626632  0.95431021  1  0  -0.020199  -0.028656  0  3.983485  0
C  C82  1  0.44212491  0.62022611  0.07063353  1  0  -0.077846  -0.130094  0  3.911413  0
C  C83  1  0.55787585  0.37977271  0.92936517  1  0  -0.077862  -0.130096  0  3.911545  0
C  C84  1  0.67499721  0.81638196  0.12277503  1  0  0.197656  0.556679  0  4.236542  0
C  C85  1  0.32500253  0.18361687  0.87722523  1  0  0.197668  0.556731  0  4.236455  0
C  C86  1  0.78126334  0.09528982  0.45372833  1  0  0.235031  0.619621  0  4.153989  0
C  C87  1  0.21873319  0.90471094  0.54627237  1  0  0.235032  0.619612  0  4.153775  0
C  C88  1  0.88125562  0.20899010  0.42933490  1  0  -0.007332  -0.053385  0  3.960799  0
C  C89  1  0.11874334  0.79101158  0.57066611  1  0  -0.007348  -0.053357  0  3.960795  0
C  C90  1  0.82275102  0.23893863  0.34414151  1  0  -0.087954  -0.108805  0  3.982042  0
C  C91  1  0.17724895  0.76106305  0.65585952  1  0  -0.087916  -0.108875  0  3.982086  0
C  C92  1  0.90444333  0.34259250  0.31400817  1  0  -0.075088  -0.067948  0  3.954729  0
C  C93  1  0.09555743  0.65740632  0.68599053  1  0  -0.075091  -0.067926  0  3.954785  0
C  C94  1  0.04611693  0.41843061  0.36874294  1  0  -0.018502  -0.038201  0  3.980264  0
C  C95  1  0.95388443  0.58156725  0.63125631  1  0  -0.01848  -0.038175  0  3.98022  0
C  C96  1  0.10564006  0.38708970  0.45166007  1  0  -0.071093  -0.089792  0  3.926334  0
C  C97  1  0.89436152  0.61291101  0.54833995  1  0  -0.07108  -0.089745  0  3.926321  0
C  C98  1  0.02483373  0.28286511  0.48322244  1  0  -0.015129  -0.061637  0  3.942985  0
C  C99  1  0.97516625  0.71713656  0.51677780  1  0  -0.015158  -0.061723  0  3.943091  0
C  C100  1  0.12756053  0.53354802  0.33836281  1  0  0.201845  0.565528  0  4.236255  0
C  C101  1  0.87244004  0.46645270  0.66163640  1  0  0.201812  0.565453  0  4.236324  0
C  C102  1  0.09723080  0.25342425  0.57178604  1  0  0.21091  0.589126  0  4.195645  0
C  C103  1  0.90276834  0.74657554  0.42821446  1  0  0.210923  0.589142  0  4.19566  0
N  N104  1  0.07007103  0.03704395  0.26978301  1  0  -0.33378  -0.255043  0  3.622555  0
N  N105  1  0.92992732  0.96295869  0.73021903  1  0  -0.333731  -0.254992  0  3.622477  0
N  N106  1  0.00230378  0.20963648  0.05082360  1  0  -0.304078  -0.322585  0  3.283842  0
N  N107  1  0.99769701  0.79036710  0.94917954  1  0  -0.304081  -0.322546  0  3.283707  0
N  N108  1  0.66246118  0.16993377  0.75156862  1  0  -0.335649  -0.251815  0  3.632965  0
N  N109  1  0.33753901  0.83007077  0.24843476  1  0  -0.335695  -0.251887  0  3.633015  0
O  O110  1  0.72772618  0.77343856  0.19032065  1  0  -0.330937  -0.555018  0  2.347453  0
O  O111  1  0.27227440  0.22656215  0.80967777  1  0  -0.330943  -0.555046  0  2.347391  0
O  O112  1  0.73001295  0.92647697  0.11846934  1  0  -0.318911  -0.550043  0  2.164202  0
O  O113  1  0.26998661  0.07352377  0.88153143  1  0  -0.318909  -0.550043  0  2.164187  0
O  O114  1  0.78789792  0.98691628  0.40606089  1  0  -0.301353  -0.547002  0  2.421  0
O  O115  1  0.21209517  0.01308354  0.59393712  1  0  -0.30136  -0.547006  0  2.420945  0
O  O116  1  0.67749450  0.10231816  0.50924222  1  0  -0.311367  -0.54001  0  2.344131  0
O  O117  1  0.32250427  0.89768545  0.49076168  1  0  -0.311392  -0.540032  0  2.343979  0
O  O118  1  0.01234594  0.16564431  0.60737646  1  0  -0.327683  -0.55964  0  2.329169  0
O  O119  1  0.98765077  0.83435454  0.39262295  1  0  -0.327659  -0.559602  0  2.329131  0
O  O120  1  0.23156103  0.31190328  0.60366245  1  0  -0.316641  -0.550247  0  2.160882  0
O  O121  1  0.76843709  0.68809652  0.39633882  1  0  -0.316669  -0.550253  0  2.160888  0
O  O122  1  0.26397980  0.59335581  0.38358078  1  0  -0.342689  -0.574788  0  2.308708  0
O  O123  1  0.73602220  0.40664584  0.61641792  1  0  -0.342667  -0.574751  0  2.308701  0
O  O124  1  0.06250858  0.56698736  0.27488107  1  0  -0.311446  -0.538969  0  2.19215  0
O  O125  1  0.93749015  0.43301148  0.72511837  1  0  -0.31146  -0.538943  0  2.192166  0
O  O126  1  0.43284537  0.20786758  0.58270237  1  0  -0.573595  -0.757773  0  2.179017  0
O  O127  1  0.56715419  0.79213315  0.41729761  1  0  -0.573542  -0.757659  0  2.17907  0
