# generated using pymatgen
data_HgH12C15(BrN2)2
_symmetry_space_group_name_H-M   'P 1'
_cell_length_a   9.51893140
_cell_length_b   12.96163307
_cell_length_c   13.38523184
_cell_angle_alpha   89.99990145
_cell_angle_beta   90.00010173
_cell_angle_gamma   99.81425251
_symmetry_Int_Tables_number   1
_chemical_formula_structural   HgH12C15(BrN2)2
_chemical_formula_sum   'Hg4 H48 C60 Br8 N16'
_cell_volume   1627.31333236
_cell_formula_units_Z   4
loop_
 _symmetry_equiv_pos_site_id
 _symmetry_equiv_pos_as_xyz
  1  'x, y, z'
loop_
 _atom_site_type_symbol
 _atom_site_label
 _atom_site_symmetry_multiplicity
 _atom_site_fract_x
 _atom_site_fract_y
 _atom_site_fract_z
 _atom_site_occupancy
 _atom_site_hle17_bader_spin_density
 _atom_site_hle17_ddec_charge
 _atom_site_hle17_ddec_spin_density
 _atom_site_hle17_ddec_sum_bond_order
 _atom_site_hle17_magmom
 _atom_site_hse06_10hf_bader_spin_density
 _atom_site_hse06_10hf_ddec_charge
 _atom_site_hse06_10hf_ddec_spin_density
 _atom_site_hse06_10hf_ddec_sum_bond_order
 _atom_site_hse06_10hf_magmom
 _atom_site_hse06_bader_spin_density
 _atom_site_hse06_ddec_charge
 _atom_site_hse06_ddec_spin_density
 _atom_site_hse06_ddec_sum_bond_order
 _atom_site_hse06_magmom
 _atom_site_pbe_bader_spin_density
 _atom_site_pbe_cm5_charge
 _atom_site_pbe_ddec_charge
 _atom_site_pbe_ddec_spin_density
 _atom_site_pbe_ddec_sum_bond_order
 _atom_site_pbe_magmom
Hg  Hg0  1  0.65870263  0.45866618  0.81117762  1  0  0.699054  0  2.090645  0  0  0.54895  0  2.589198  0  0  0.594819  0  2.558887  0  0  0.485944  0.518011  0  2.609713  0
Hg  Hg1  1  0.84129193  0.04132917  0.31117553  1  0  0.699048  0  2.090767  0  0  0.548944  0  2.589336  0  0  0.594813  0  2.559021  0  0  0.485936  0.518002  0  2.609856  0
Hg  Hg2  1  0.34129183  0.54132940  0.18882429  1  0  0.699027  0  2.090795  0  0  0.548922  0  2.589364  0  0  0.594791  0  2.559049  0  0  0.485929  0.517984  0  2.609879  0
Hg  Hg3  1  0.15870660  0.95867031  0.68882563  1  0  0.699066  0  2.090766  0  0  0.548964  0  2.589341  0  0  0.594833  0  2.559024  0  0  0.485965  0.518023  0  2.609866  0
H  H4  1  0.51458612  0.87008177  0.30129061  1  0  0.093213  0  0.994894  0  0  0.097304  0  1.072599  0  0  0.100677  0  1.069982  0  0  0.086182  0.094054  0  1.07588  0
H  H5  1  0.98541407  0.62991853  0.80129216  1  0  0.093263  0  0.994865  0  0  0.097341  0  1.072572  0  0  0.100712  0  1.069957  0  0  0.086194  0.094087  0  1.075856  0
H  H6  1  0.48541470  0.12991849  0.69870681  1  0  0.093289  0  0.994851  0  0  0.097346  0  1.072578  0  0  0.100716  0  1.069965  0  0  0.08619  0.094093  0  1.075866  0
H  H7  1  0.01458552  0.37008095  0.19870825  1  0  0.093261  0  0.994856  0  0  0.097342  0  1.072566  0  0  0.100713  0  1.069951  0  0  0.086197  0.094088  0  1.075853  0
H  H8  1  0.26555340  0.78764945  0.34710519  1  0  0.089918  0  0.951871  0  0  0.101185  0  1.010279  0  0  0.103842  0  1.009646  0  0  0.094052  0.099118  0  1.011055  0
H  H9  1  0.23444660  0.71235080  0.84710704  1  0  0.089917  0  0.951848  0  0  0.101178  0  1.010264  0  0  0.103834  0  1.00963  0  0  0.094058  0.099111  0  1.011041  0
H  H10  1  0.73444724  0.21235003  0.65289298  1  0  0.08993  0  0.951845  0  0  0.101196  0  1.010254  0  0  0.103852  0  1.009621  0  0  0.094054  0.099128  0  1.011027  0
H  H11  1  0.76555335  0.28765024  0.15289412  1  0  0.089944  0  0.951858  0  0  0.101209  0  1.010264  0  0  0.103865  0  1.009631  0  0  0.094055  0.099137  0  1.01104  0
H  H12  1  0.10095471  0.89145577  0.42584776  1  0  0.081422  0  0.999853  0  0  0.08724  0  1.070576  0  0  0.090344  0  1.069019  0  0  0.078742  0.084366  0  1.072928  0
H  H13  1  0.39904441  0.60854437  0.92584774  1  0  0.081419  0  0.999937  0  0  0.087253  0  1.070645  0  0  0.090357  0  1.069087  0  0  0.078753  0.084375  0  1.072997  0
H  H14  1  0.89904364  0.10854293  0.57415266  1  0  0.081395  0  0.999852  0  0  0.087219  0  1.070581  0  0  0.090324  0  1.069021  0  0  0.078727  0.084345  0  1.072926  0
H  H15  1  0.60095554  0.39145668  0.07415267  1  0  0.081408  0  0.999871  0  0  0.087229  0  1.0706  0  0  0.090335  0  1.069038  0  0  0.07873  0.084352  0  1.072945  0
H  H16  1  0.17442560  0.08216657  0.45880495  1  0  0.096789  0  1.008179  0  0  0.101967  0  1.080576  0  0  0.105341  0  1.078494  0  0  0.084027  0.099686  0  1.082363  0
H  H17  1  0.32557412  0.41783248  0.95880432  1  0  0.096789  0  1.008344  0  0  0.101966  0  1.080729  0  0  0.105341  0  1.078648  0  0  0.084018  0.099694  0  1.08251  0
H  H18  1  0.82557170  0.91783213  0.54119547  1  0  0.096823  0  1.008225  0  0  0.102002  0  1.080609  0  0  0.105377  0  1.078531  0  0  0.084035  0.099731  0  1.082387  0
H  H19  1  0.67442775  0.58216778  0.04119460  1  0  0.096776  0  1.008246  0  0  0.101948  0  1.080651  0  0  0.105324  0  1.078573  0  0  0.084007  0.099676  0  1.082429  0
H  H20  1  0.68280121  0.24929733  0.37368445  1  0  0.094557  0  0.957548  0  0  0.100645  0  1.028938  0  0  0.103533  0  1.024806  0  0  0.129769  0.098397  0  1.031883  0
H  H21  1  0.81719880  0.25070261  0.87368409  1  0  0.094548  0  0.957587  0  0  0.100641  0  1.028958  0  0  0.10353  0  1.024825  0  0  0.129769  0.098393  0  1.031909  0
H  H22  1  0.31719646  0.75070294  0.62631671  1  0  0.09461  0  0.957625  0  0  0.100697  0  1.028999  0  0  0.103585  0  1.024868  0  0  0.129808  0.09844  0  1.031956  0
H  H23  1  0.18280202  0.74929765  0.12631632  1  0  0.094549  0  0.957591  0  0  0.100634  0  1.028983  0  0  0.103523  0  1.024851  0  0  0.129763  0.098389  0  1.031936  0
H  H24  1  0.37394920  0.31573431  0.38050889  1  0  0.082213  0  0.951908  0  0  0.086809  0  1.029944  0  0  0.088253  0  1.028178  0  0  0.111392  0.085753  0  1.031162  0
H  H25  1  0.12605177  0.18426642  0.88050914  1  0  0.082199  0  0.951953  0  0  0.086801  0  1.029958  0  0  0.088244  0  1.028193  0  0  0.111402  0.085747  0  1.031177  0
H  H26  1  0.62604970  0.68426674  0.61949078  1  0  0.082223  0  0.951916  0  0  0.086793  0  1.029949  0  0  0.088236  0  1.028185  0  0  0.111393  0.085737  0  1.031165  0
H  H27  1  0.87395010  0.81573383  0.11949127  1  0  0.08221  0  0.951908  0  0  0.08681  0  1.029951  0  0  0.088255  0  1.028183  0  0  0.111394  0.085755  0  1.03117  0
H  H28  1  0.31337359  0.24560218  0.49156563  1  0  0.094505  0  0.925174  0  0  0.103377  0  0.99589  0  0  0.104538  0  0.994749  0  0  0.126048  0.102737  0  0.99614  0
H  H29  1  0.18662534  0.25439761  0.99156659  1  0  0.09451  0  0.925186  0  0  0.103319  0  0.995956  0  0  0.104481  0  0.994816  0  0  0.126011  0.102683  0  0.996203  0
H  H30  1  0.68662408  0.75439809  0.50843404  1  0  0.094547  0  0.925186  0  0  0.10335  0  0.995958  0  0  0.104514  0  0.994815  0  0  0.126025  0.102708  0  0.99621  0
H  H31  1  0.81337443  0.74560266  0.00843456  1  0  0.094522  0  0.92516  0  0  0.103394  0  0.995882  0  0  0.104557  0  0.994741  0  0  0.126058  0.102759  0  0.996129  0
H  H32  1  0.59599775  0.42525436  0.30510793  1  0  0.101034  0  0.979105  0  0  0.106848  0  1.052042  0  0  0.109477  0  1.051365  0  0  0.093736  0.104982  0  1.052398  0
H  H33  1  0.90400353  0.07474725  0.80510498  1  0  0.101008  0  0.979127  0  0  0.106861  0  1.052014  0  0  0.109496  0  1.051333  0  0  0.093755  0.105001  0  1.052366  0
H  H34  1  0.40400097  0.57474591  0.69489323  1  0  0.100974  0  0.979158  0  0  0.106825  0  1.052058  0  0  0.109454  0  1.051381  0  0  0.093733  0.104963  0  1.052412  0
H  H35  1  0.09599698  0.92525615  0.19489394  1  0  0.101031  0  0.979092  0  0  0.106878  0  1.051984  0  0  0.109514  0  1.051301  0  0  0.093763  0.105014  0  1.052341  0
H  H36  1  0.80305985  0.56957250  0.29004133  1  0  0.08892  0  0.974047  0  0  0.099236  0  1.034134  0  0  0.101036  0  1.035239  0  0  0.094127  0.097956  0  1.033387  0
H  H37  1  0.69694068  0.93042938  0.79003754  1  0  0.08886  0  0.974057  0  0  0.09917  0  1.034157  0  0  0.100972  0  1.035262  0  0  0.09409  0.097896  0  1.033405  0
H  H38  1  0.19693887  0.43042776  0.70996132  1  0  0.088874  0  0.974062  0  0  0.099199  0  1.034143  0  0  0.101001  0  1.035248  0  0  0.094101  0.097922  0  1.033394  0
H  H39  1  0.30306069  0.06957323  0.20996064  1  0  0.088886  0  0.974053  0  0  0.099208  0  1.034137  0  0  0.10101  0  1.035242  0  0  0.094107  0.097932  0  1.033387  0
H  H40  1  0.94063432  0.64217304  0.43877244  1  0  0.093814  0  0.951892  0  0  0.103789  0  1.012217  0  0  0.106866  0  1.010863  0  0  0.092107  0.101795  0  1.012865  0
H  H41  1  0.55936616  0.85782705  0.93876934  1  0  0.093785  0  0.951922  0  0  0.103758  0  1.012248  0  0  0.106835  0  1.010893  0  0  0.092093  0.101766  0  1.012893  0
H  H42  1  0.05936650  0.35782722  0.56122947  1  0  0.093773  0  0.951931  0  0  0.103746  0  1.012258  0  0  0.106823  0  1.010903  0  0  0.092093  0.101749  0  1.012902  0
H  H43  1  0.44063571  0.14217320  0.06122809  1  0  0.093799  0  0.951884  0  0  0.103751  0  1.012229  0  0  0.106826  0  1.010878  0  0  0.092108  0.10176  0  1.012871  0
H  H44  1  0.87372714  0.57416949  0.60928276  1  0  0.109826  0  0.956564  0  0  0.119998  0  1.018389  0  0  0.122978  0  1.016753  0  0  0.095274  0.118023  0  1.019415  0
H  H45  1  0.62627559  0.92583031  0.10927678  1  0  0.109857  0  0.95659  0  0  0.120062  0  1.018376  0  0  0.123034  0  1.016761  0  0  0.095279  0.118087  0  1.019406  0
H  H46  1  0.12627577  0.42583076  0.39072139  1  0  0.109806  0  0.956641  0  0  0.120009  0  1.018434  0  0  0.122981  0  1.016818  0  0  0.095266  0.118034  0  1.019463  0
H  H47  1  0.37372590  0.07416838  0.89072065  1  0  0.109802  0  0.956668  0  0  0.120002  0  1.018467  0  0  0.122975  0  1.016851  0  0  0.095253  0.118027  0  1.019495  0
H  H48  1  0.44691632  0.29185583  0.65265515  1  0  0.092268  0  0.969401  0  0  0.096745  0  1.044795  0  0  0.099914  0  1.040077  0  0  0.121958  0.094337  0  1.048317  0
H  H49  1  0.05308133  0.20814212  0.15265542  1  0  0.092214  0  0.969521  0  0  0.096702  0  1.04489  0  0  0.099867  0  1.040177  0  0  0.121943  0.094289  0  1.04841  0
H  H50  1  0.55308203  0.70814287  0.34734451  1  0  0.092214  0  0.969497  0  0  0.096689  0  1.044878  0  0  0.099857  0  1.040162  0  0  0.121936  0.094283  0  1.048393  0
H  H51  1  0.94691721  0.79185736  0.84734500  1  0  0.092234  0  0.969476  0  0  0.096692  0  1.044876  0  0  0.099857  0  1.040165  0  0  0.121942  0.094285  0  1.048393  0
C  C52  1  0.48498512  0.02117471  0.35901462  1  0  0.143278  0  3.826592  0  0  0.142594  0  4.068034  0  0  0.146106  0  4.091518  0  0  0.083147  0.13969  0  4.052549  0
C  C53  1  0.01501563  0.47882527  0.85901499  1  0  0.143308  0  3.826684  0  0  0.142625  0  4.068131  0  0  0.146137  0  4.091617  0  0  0.083153  0.139726  0  4.052629  0
C  C54  1  0.51501484  0.97882633  0.64098356  1  0  0.143383  0  3.826558  0  0  0.142645  0  4.068035  0  0  0.146158  0  4.091519  0  0  0.083172  0.139742  0  4.052553  0
C  C55  1  0.98498605  0.52117421  0.14098393  1  0  0.143359  0  3.826565  0  0  0.142626  0  4.06805  0  0  0.146138  0  4.091532  0  0  0.083188  0.139723  0  4.052558  0
C  C56  1  0.44206103  0.91485798  0.33778000  1  0  -0.140777  0  3.750939  0  0  -0.162906  0  4.007504  0  0  -0.165206  0  4.027461  0  0  -0.100608  -0.16031  0  3.993784  0
C  C57  1  0.05793790  0.58514229  0.83778033  1  0  -0.140814  0  3.750866  0  0  -0.162925  0  4.007437  0  0  -0.165227  0  4.027394  0  0  -0.100615  -0.160328  0  3.993715  0
C  C58  1  0.55793664  0.08514229  0.66221892  1  0  -0.140845  0  3.750944  0  0  -0.162933  0  4.00753  0  0  -0.165232  0  4.027486  0  0  -0.100604  -0.160337  0  3.993813  0
C  C59  1  0.94206292  0.41485797  0.16221933  1  0  -0.140798  0  3.750881  0  0  -0.162913  0  4.007467  0  0  -0.165213  0  4.027423  0  0  -0.100614  -0.160312  0  3.993746  0
C  C60  1  0.30303540  0.87029782  0.36281724  1  0  -0.071806  0  3.767239  0  0  -0.087576  0  4.020826  0  0  -0.090082  0  4.043533  0  0  -0.103392  -0.085631  0  4.004611  0
C  C61  1  0.19696463  0.62970241  0.86281843  1  0  -0.07186  0  3.767028  0  0  -0.087626  0  4.020633  0  0  -0.090127  0  4.043337  0  0  -0.103429  -0.085685  0  4.00442  0
C  C62  1  0.69696437  0.12970244  0.63718093  1  0  -0.071865  0  3.76721  0  0  -0.087626  0  4.020795  0  0  -0.090132  0  4.043501  0  0  -0.103399  -0.085678  0  4.004574  0
C  C63  1  0.80303619  0.37029785  0.13718199  1  0  -0.071889  0  3.767194  0  0  -0.087652  0  4.020777  0  0  -0.090157  0  4.043486  0  0  -0.103406  -0.085708  0  4.004558  0
C  C64  1  0.20860773  0.92969606  0.40712716  1  0  -0.077808  0  3.793569  0  0  -0.089616  0  4.041252  0  0  -0.092594  0  4.065314  0  0  -0.105074  -0.086416  0  4.024525  0
C  C65  1  0.29139364  0.57030488  0.90712856  1  0  -0.07782  0  3.793399  0  0  -0.089646  0  4.041096  0  0  -0.092625  0  4.06516  0  0  -0.105092  -0.086444  0  4.024382  0
C  C66  1  0.79139223  0.07030499  0.59287250  1  0  -0.077747  0  3.793389  0  0  -0.089569  0  4.041088  0  0  -0.092546  0  4.065151  0  0  -0.105085  -0.086374  0  4.024375  0
C  C67  1  0.70860823  0.42969537  0.09287110  1  0  -0.077791  0  3.793426  0  0  -0.089605  0  4.041114  0  0  -0.092583  0  4.065179  0  0  -0.10508  -0.086407  0  4.024391  0
C  C68  1  0.24905955  0.03616188  0.42708201  1  0  -0.164383  0  3.789609  0  0  -0.180302  0  4.040835  0  0  -0.18437  0  4.062191  0  0  -0.108148  -0.178289  0  4.026694  0
C  C69  1  0.25094220  0.46383721  0.92708271  1  0  -0.164304  0  3.789627  0  0  -0.180197  0  4.040836  0  0  -0.18427  0  4.062196  0  0  -0.10811  -0.178204  0  4.026688  0
C  C70  1  0.75093879  0.96383682  0.57291766  1  0  -0.164433  0  3.789629  0  0  -0.180367  0  4.040847  0  0  -0.184442  0  4.062208  0  0  -0.108163  -0.178368  0  4.026696  0
C  C71  1  0.74906053  0.53616226  0.07291696  1  0  -0.164332  0  3.789579  0  0  -0.180254  0  4.040778  0  0  -0.18433  0  4.062139  0  0  -0.108136  -0.178253  0  4.026617  0
C  C72  1  0.38881961  0.08054986  0.40235481  1  0  0.107238  0  3.767047  0  0  0.097339  0  4.008787  0  0  0.101514  0  4.030627  0  0  0.090599  0.094452  0  3.994293  0
C  C73  1  0.11118037  0.41945084  0.90235540  1  0  0.10719  0  3.767149  0  0  0.097259  0  4.00892  0  0  0.101436  0  4.030761  0  0  0.09061  0.094376  0  3.99442  0
C  C74  1  0.61117930  0.91945119  0.59764336  1  0  0.107201  0  3.76723  0  0  0.097342  0  4.008866  0  0  0.101519  0  4.030702  0  0  0.090637  0.094451  0  3.994375  0
C  C75  1  0.88882150  0.58054942  0.09764426  1  0  0.107156  0  3.767129  0  0  0.097274  0  4.008782  0  0  0.101452  0  4.030618  0  0  0.090574  0.094387  0  3.994286  0
C  C76  1  0.59880471  0.18105980  0.37414840  1  0  0.203663  0  3.653527  0  0  0.136459  0  3.928025  0  0  0.155532  0  3.936772  0  0  0.154612  0.124303  0  3.921294  0
C  C77  1  0.90119406  0.31893936  0.87414878  1  0  0.203646  0  3.653494  0  0  0.136439  0  3.927988  0  0  0.155511  0  3.936737  0  0  0.154604  0.124277  0  3.921269  0
C  C78  1  0.40119191  0.81894047  0.62585127  1  0  0.203607  0  3.653623  0  0  0.13637  0  3.928097  0  0  0.155441  0  3.936848  0  0  0.154581  0.12422  0  3.921373  0
C  C79  1  0.09880762  0.68106011  0.12585163  1  0  0.20366  0  3.653631  0  0  0.136408  0  3.928105  0  0  0.155478  0  3.936858  0  0  0.154596  0.124243  0  3.921393  0
C  C80  1  0.40710244  0.27340250  0.44518694  1  0  0.116272  0  3.60293  0  0  0.043121  0  3.843554  0  0  0.052896  0  3.851842  0  0  0.060482  0.036426  0  3.838012  0
C  C81  1  0.09289849  0.22659735  0.94518709  1  0  0.116256  0  3.60308  0  0  0.043161  0  3.843615  0  0  0.052932  0  3.851908  0  0  0.060505  0.036454  0  3.838085  0
C  C82  1  0.59289628  0.72659777  0.55481347  1  0  0.116222  0  3.603145  0  0  0.043157  0  3.843655  0  0  0.052926  0  3.851947  0  0  0.060497  0.03646  0  3.838113  0
C  C83  1  0.90710338  0.77340291  0.05481333  1  0  0.116291  0  3.603002  0  0  0.043044  0  3.843646  0  0  0.052814  0  3.851937  0  0  0.06045  0.036343  0  3.838108  0
C  C84  1  0.61898770  0.41996449  0.46723214  1  0  0.09905  0  3.775066  0  0  0.088318  0  4.021206  0  0  0.092169  0  4.043785  0  0  0.088184  0.085374  0  4.006221  0
C  C85  1  0.88101442  0.08003452  0.96722841  1  0  0.099102  0  3.774975  0  0  0.08834  0  4.021163  0  0  0.092195  0  4.043739  0  0  0.088194  0.085366  0  4.006223  0
C  C86  1  0.38101207  0.58003578  0.53276976  1  0  0.098961  0  3.775097  0  0  0.08823  0  4.02127  0  0  0.092082  0  4.043847  0  0  0.088156  0.085291  0  4.006283  0
C  C87  1  0.11898726  0.91996495  0.03277050  1  0  0.099058  0  3.775082  0  0  0.088303  0  4.021213  0  0  0.092156  0  4.043791  0  0  0.088161  0.085361  0  4.006228  0
C  C88  1  0.65558749  0.45662289  0.37109708  1  0  -0.157554  0  3.772435  0  0  -0.174624  0  4.025854  0  0  -0.178983  0  4.048013  0  0  -0.102951  -0.171222  0  4.01064  0
C  C89  1  0.84441233  0.04337627  0.87109561  1  0  -0.157587  0  3.772605  0  0  -0.174675  0  4.026013  0  0  -0.179042  0  4.048169  0  0  -0.102978  -0.171269  0  4.010817  0
C  C90  1  0.34441209  0.54337659  0.62890482  1  0  -0.157423  0  3.772466  0  0  -0.174518  0  4.025867  0  0  -0.178878  0  4.048025  0  0  -0.102906  -0.171123  0  4.01066  0
C  C91  1  0.15558954  0.95662399  0.12890406  1  0  -0.157554  0  3.772574  0  0  -0.174652  0  4.025985  0  0  -0.179022  0  4.048141  0  0  -0.102956  -0.171255  0  4.010776  0
C  C92  1  0.77224129  0.53755661  0.36353652  1  0  -0.062155  0  3.767474  0  0  -0.075237  0  4.015992  0  0  -0.077368  0  4.040018  0  0  -0.097714  -0.07418  0  3.999452  0
C  C93  1  0.72776026  0.96244437  0.86353196  1  0  -0.062075  0  3.767624  0  0  -0.075157  0  4.016141  0  0  -0.077291  0  4.040174  0  0  -0.097666  -0.07411  0  3.999614  0
C  C94  1  0.22775953  0.46244365  0.63646614  1  0  -0.062113  0  3.767622  0  0  -0.075203  0  4.016142  0  0  -0.07734  0  4.04018  0  0  -0.097666  -0.074159  0  3.999616  0
C  C95  1  0.27224179  0.03755667  0.13646547  1  0  -0.062095  0  3.767688  0  0  -0.075182  0  4.016194  0  0  -0.077316  0  4.040227  0  0  -0.097663  -0.074133  0  3.99966  0
C  C96  1  0.85024476  0.57888963  0.44810810  1  0  -0.074575  0  3.775965  0  0  -0.091286  0  4.029381  0  0  -0.093911  0  4.051842  0  0  -0.100262  -0.088774  0  4.013813  0
C  C97  1  0.64975575  0.92111045  0.94810351  1  0  -0.074495  0  3.776045  0  0  -0.091201  0  4.02945  0  0  -0.093823  0  4.051908  0  0  -0.100215  -0.088678  0  4.013875  0
C  C98  1  0.14975501  0.42111063  0.55189530  1  0  -0.07454  0  3.77601  0  0  -0.091246  0  4.029423  0  0  -0.093869  0  4.051884  0  0  -0.100264  -0.088721  0  4.013844  0
C  C99  1  0.35024594  0.07888903  0.05189392  1  0  -0.074555  0  3.776049  0  0  -0.091245  0  4.029472  0  0  -0.093863  0  4.051928  0  0  -0.100266  -0.088724  0  4.013894  0
C  C100  1  0.81369006  0.54161134  0.54390174  1  0  -0.13391  0  3.738095  0  0  -0.150518  0  3.984616  0  0  -0.152935  0  4.004916  0  0  -0.094546  -0.148762  0  3.971139  0
C  C101  1  0.68630939  0.95838857  0.04389727  1  0  -0.133971  0  3.738138  0  0  -0.150594  0  3.984656  0  0  -0.153018  0  4.004956  0  0  -0.09457  -0.148842  0  3.971182  0
C  C102  1  0.18630885  0.45838971  0.45610017  1  0  -0.133874  0  3.738052  0  0  -0.150502  0  3.984575  0  0  -0.152921  0  4.004871  0  0  -0.094539  -0.148746  0  3.971102  0
C  C103  1  0.31369211  0.04161013  0.95610090  1  0  -0.133828  0  3.738071  0  0  -0.150462  0  3.984578  0  0  -0.152881  0  4.004867  0  0  -0.094516  -0.148709  0  3.971102  0
C  C104  1  0.69549184  0.46184097  0.55294304  1  0  0.140137  0  3.828366  0  0  0.137872  0  4.075094  0  0  0.141521  0  4.098119  0  0  0.081026  0.13461  0  4.059841  0
C  C105  1  0.80450730  0.03815867  0.05294017  1  0  0.140149  0  3.82822  0  0  0.137833  0  4.075028  0  0  0.14148  0  4.098051  0  0  0.081012  0.134576  0  4.059788  0
C  C106  1  0.30450898  0.53815929  0.44705887  1  0  0.140187  0  3.828213  0  0  0.137888  0  4.074983  0  0  0.141536  0  4.098006  0  0  0.08103  0.134619  0  4.05974  0
C  C107  1  0.19549228  0.96184081  0.94705875  1  0  0.140074  0  3.8283  0  0  0.137802  0  4.075036  0  0  0.141449  0  4.098059  0  0  0.081018  0.13454  0  4.059785  0
C  C108  1  0.52183463  0.34262989  0.60533360  1  0  0.209172  0  3.668707  0  0  0.145576  0  3.945127  0  0  0.163241  0  3.956086  0  0  0.160253  0.134083  0  3.937065  0
C  C109  1  0.97816443  0.15736889  0.10533225  1  0  0.209277  0  3.668808  0  0  0.14566  0  3.945207  0  0  0.163328  0  3.956166  0  0  0.160299  0.134179  0  3.937122  0
C  C110  1  0.47816476  0.65736881  0.39466606  1  0  0.209266  0  3.668781  0  0  0.145677  0  3.945227  0  0  0.163342  0  3.956185  0  0  0.160273  0.134177  0  3.93716  0
C  C111  1  0.02183305  0.84263060  0.89466667  1  0  0.209237  0  3.668721  0  0  0.145631  0  3.945133  0  0  0.163298  0  3.956088  0  0  0.160274  0.134136  0  3.937063  0
Br  Br112  1  0.67261094  0.65764778  0.81771900  1  0  -0.437394  0  1.000718  0  0  -0.381742  0  1.304073  0  0  -0.398973  0  1.284212  0  0  -0.215194  -0.369627  0  1.31872  0
Br  Br113  1  0.82738767  0.84235015  0.31771939  1  0  -0.437372  0  1.000768  0  0  -0.381724  0  1.304128  0  0  -0.398957  0  1.28427  0  0  -0.215169  -0.369604  0  1.318777  0
Br  Br114  1  0.32738827  0.34235014  0.18228141  1  0  -0.437371  0  1.000775  0  0  -0.381721  0  1.304135  0  0  -0.398952  0  1.284276  0  0  -0.215172  -0.369603  0  1.31878  0
Br  Br115  1  0.17261210  0.15765011  0.68228028  1  0  -0.437389  0  1.000738  0  0  -0.381749  0  1.304115  0  0  -0.39898  0  1.284253  0  0  -0.21518  -0.369627  0  1.318763  0
Br  Br116  1  0.50549651  0.28849435  0.87579589  1  0  -0.458559  0  0.982441  0  0  -0.402019  0  1.278196  0  0  -0.421126  0  1.260364  0  0  -0.235115  -0.389658  0  1.290222  0
Br  Br117  1  0.99450621  0.21149931  0.37579148  1  0  -0.458571  0  0.982477  0  0  -0.402027  0  1.278239  0  0  -0.421127  0  1.260391  0  0  -0.235123  -0.389668  0  1.290271  0
Br  Br118  1  0.49450578  0.71149886  0.12420825  1  0  -0.458566  0  0.982485  0  0  -0.402023  0  1.278251  0  0  -0.421125  0  1.260406  0  0  -0.235123  -0.389666  0  1.290286  0
Br  Br119  1  0.00549356  0.78850095  0.62420893  1  0  -0.458587  0  0.98249  0  0  -0.402039  0  1.278237  0  0  -0.421144  0  1.260392  0  0  -0.23513  -0.389677  0  1.290274  0
N  N120  1  0.63096191  0.41162237  0.63733455  1  0  -0.39171  0  3.20079  0  0  -0.324799  0  3.482348  0  0  -0.346636  0  3.498935  0  0  -0.334642  -0.309388  0  3.470088  0
N  N121  1  0.86903685  0.08837480  0.13733317  1  0  -0.391735  0  3.200815  0  0  -0.324798  0  3.482387  0  0  -0.346635  0  3.49897  0  0  -0.334649  -0.309384  0  3.470117  0
N  N122  1  0.36903835  0.58837554  0.36266661  1  0  -0.391744  0  3.200813  0  0  -0.32482  0  3.482374  0  0  -0.346658  0  3.498959  0  0  -0.334655  -0.309406  0  3.470116  0
N  N123  1  0.13096255  0.91162390  0.86266574  1  0  -0.391696  0  3.200807  0  0  -0.324784  0  3.482366  0  0  -0.34662  0  3.498948  0  0  -0.334657  -0.309371  0  3.470105  0
N  N124  1  0.50971979  0.34335198  0.50353334  1  0  -0.146057  0  3.515523  0  0  -0.061306  0  3.743179  0  0  -0.079367  0  3.76776  0  0  -0.242198  -0.048929  0  3.726554  0
N  N125  1  0.99028029  0.15664773  0.00353275  1  0  -0.146111  0  3.515554  0  0  -0.061305  0  3.743132  0  0  -0.079362  0  3.767712  0  0  -0.242208  -0.048915  0  3.726511  0
N  N126  1  0.49027874  0.65664750  0.49646632  1  0  -0.146084  0  3.515605  0  0  -0.061348  0  3.743246  0  0  -0.079403  0  3.767825  0  0  -0.2422  -0.048965  0  3.726617  0
N  N127  1  0.00971843  0.84335253  0.99646766  1  0  -0.146085  0  3.515517  0  0  -0.061237  0  3.74307  0  0  -0.079291  0  3.767648  0  0  -0.242173  -0.048856  0  3.726442  0
N  N128  1  0.46501432  0.18197934  0.41069083  1  0  -0.139615  0  3.475887  0  0  -0.055101  0  3.705373  0  0  -0.072277  0  3.727336  0  0  -0.238442  -0.043699  0  3.689968  0
N  N129  1  0.03498672  0.31802135  0.91069149  1  0  -0.139599  0  3.47588  0  0  -0.05507  0  3.705338  0  0  -0.072243  0  3.7273  0  0  -0.23848  -0.043666  0  3.689936  0
N  N130  1  0.53498458  0.81802171  0.58930884  1  0  -0.139704  0  3.476016  0  0  -0.055101  0  3.705333  0  0  -0.072274  0  3.727294  0  0  -0.238518  -0.043693  0  3.68992  0
N  N131  1  0.96501515  0.68197891  0.08930892  1  0  -0.139735  0  3.476002  0  0  -0.055081  0  3.70532  0  0  -0.072256  0  3.727284  0  0  -0.238452  -0.043673  0  3.689916  0
N  N132  1  0.61455939  0.08666352  0.34305526  1  0  -0.380042  0  3.205376  0  0  -0.308361  0  3.483621  0  0  -0.330785  0  3.500543  0  0  -0.333384  -0.293283  0  3.47162  0
N  N133  1  0.88544074  0.41333724  0.84305547  1  0  -0.380022  0  3.205333  0  0  -0.308346  0  3.483577  0  0  -0.330769  0  3.500504  0  0  -0.333364  -0.293267  0  3.471573  0
N  N134  1  0.38543847  0.91333753  0.65694440  1  0  -0.380016  0  3.205343  0  0  -0.308328  0  3.483601  0  0  -0.330751  0  3.500528  0  0  -0.333361  -0.29325  0  3.4716  0
N  N135  1  0.11456007  0.58666302  0.15694345  1  0  -0.379977  0  3.205393  0  0  -0.308293  0  3.483656  0  0  -0.330714  0  3.500583  0  0  -0.333353  -0.293217  0  3.471666  0
