# generated using pymatgen
data_HgH16C28(BrN)2
_symmetry_space_group_name_H-M   'P 1'
_cell_length_a   5.08259593
_cell_length_b   14.99222979
_cell_length_c   16.63346743
_cell_angle_alpha   104.16758006
_cell_angle_beta   90.04922748
_cell_angle_gamma   99.70059971
_symmetry_Int_Tables_number   1
_chemical_formula_structural   HgH16C28(BrN)2
_chemical_formula_sum   'Hg2 H32 C56 Br4 N4'
_cell_volume   1210.16269625
_cell_formula_units_Z   2
loop_
 _symmetry_equiv_pos_site_id
 _symmetry_equiv_pos_as_xyz
  1  'x, y, z'
loop_
 _atom_site_type_symbol
 _atom_site_label
 _atom_site_symmetry_multiplicity
 _atom_site_fract_x
 _atom_site_fract_y
 _atom_site_fract_z
 _atom_site_occupancy
 _atom_site_hle17_bader_spin_density
 _atom_site_hle17_ddec_charge
 _atom_site_hle17_ddec_spin_density
 _atom_site_hle17_ddec_sum_bond_order
 _atom_site_hle17_magmom
 _atom_site_hse06_10hf_bader_spin_density
 _atom_site_hse06_10hf_ddec_charge
 _atom_site_hse06_10hf_ddec_spin_density
 _atom_site_hse06_10hf_ddec_sum_bond_order
 _atom_site_hse06_10hf_magmom
 _atom_site_hse06_bader_spin_density
 _atom_site_hse06_ddec_charge
 _atom_site_hse06_ddec_spin_density
 _atom_site_hse06_ddec_sum_bond_order
 _atom_site_hse06_magmom
 _atom_site_pbe_bader_spin_density
 _atom_site_pbe_cm5_charge
 _atom_site_pbe_ddec_charge
 _atom_site_pbe_ddec_spin_density
 _atom_site_pbe_ddec_sum_bond_order
 _atom_site_pbe_magmom
Hg  Hg0  1  0.91526539  0.99996623  0.24991048  1  0  0.670662  0  2.072962  0  0  0.508834  0  2.575383  0  0  0.556667  0  2.547379  0  0  0.46596  0.476617  0  2.593742  0
Hg  Hg1  1  0.08473605  0.00003451  0.75009082  1  0  0.670668  0  2.072991  0  0  0.508858  0  2.575397  0  0  0.556689  0  2.547401  0  0  0.465961  0.476641  0  2.593753  0
H  H2  1  0.58647535  0.00793594  0.41955064  1  0  0.070359  0  0.961118  0  0  0.077164  0  1.030467  0  0  0.079807  0  1.027717  0  0  0.101849  0.075173  0  1.032536  0
H  H3  1  0.57789616  0.99194300  0.08032350  1  0  0.070944  0  0.960392  0  0  0.077582  0  1.029891  0  0  0.080216  0  1.027142  0  0  0.102052  0.075637  0  1.031944  0
H  H4  1  0.41352308  0.99206271  0.58045200  1  0  0.070421  0  0.961093  0  0  0.077213  0  1.030446  0  0  0.079851  0  1.027708  0  0  0.101879  0.075222  0  1.032513  0
H  H5  1  0.42210457  0.00805632  0.91967267  1  0  0.070964  0  0.960207  0  0  0.077584  0  1.029734  0  0  0.080218  0  1.026983  0  0  0.102025  0.075637  0  1.031786  0
H  H6  1  0.27338359  0.09724952  0.51075612  1  0  0.109295  0  0.979123  0  0  0.116527  0  1.045645  0  0  0.120731  0  1.043058  0  0  0.09419  0.113455  0  1.047732  0
H  H7  1  0.17526518  0.90281613  0.98913011  1  0  0.109306  0  0.979065  0  0  0.11672  0  1.045345  0  0  0.120998  0  1.042696  0  0  0.09451  0.113612  0  1.047464  0
H  H8  1  0.72661843  0.90274842  0.48924637  1  0  0.109281  0  0.979115  0  0  0.116523  0  1.045629  0  0  0.120723  0  1.043053  0  0  0.094182  0.113467  0  1.047699  0
H  H9  1  0.82473463  0.09718529  0.01086832  1  0  0.109333  0  0.979039  0  0  0.11676  0  1.045311  0  0  0.121039  0  1.042663  0  0  0.094525  0.113667  0  1.047416  0
H  H10  1  0.38055522  0.29283863  0.35597479  1  0  0.107026  0  0.94897  0  0  0.120543  0  1.003228  0  0  0.124233  0  1.001407  0  0  0.107558  0.117922  0  1.004676  0
H  H11  1  0.08837145  0.70713339  0.14384489  1  0  0.107144  0  0.948637  0  0  0.120798  0  1.002797  0  0  0.124423  0  1.001093  0  0  0.107463  0.118199  0  1.00421  0
H  H12  1  0.61944715  0.70716001  0.64402845  1  0  0.107043  0  0.948842  0  0  0.120539  0  1.003118  0  0  0.124228  0  1.001298  0  0  0.107583  0.117919  0  1.004564  0
H  H13  1  0.91164283  0.29286943  0.85615445  1  0  0.107061  0  0.948753  0  0  0.120724  0  1.002911  0  0  0.124347  0  1.001208  0  0  0.107435  0.118128  0  1.004317  0
H  H14  1  0.69005286  0.19589075  0.27260478  1  0  0.068701  0  0.971409  0  0  0.07503  0  1.043339  0  0  0.077663  0  1.040465  0  0  0.101628  0.073113  0  1.045403  0
H  H15  1  0.49473756  0.80396490  0.22726996  1  0  0.06917  0  0.971059  0  0  0.075671  0  1.042831  0  0  0.078219  0  1.040024  0  0  0.10181  0.073795  0  1.044857  0
H  H16  1  0.30994558  0.80410790  0.72739846  1  0  0.068776  0  0.971415  0  0  0.075101  0  1.043323  0  0  0.077733  0  1.040451  0  0  0.101648  0.073185  0  1.045387  0
H  H17  1  0.50526631  0.19604071  0.77273000  1  0  0.069183  0  0.97094  0  0  0.075676  0  1.042736  0  0  0.078224  0  1.039927  0  0  0.101796  0.073798  0  1.044763  0
H  H18  1  0.66826041  0.23858305  0.64693543  1  0  0.097639  0  0.97282  0  0  0.104967  0  1.04162  0  0  0.108284  0  1.039495  0  0  0.092196  0.102517  0  1.043334  0
H  H19  1  0.42831433  0.76161837  0.85314037  1  0  0.098652  0  0.970973  0  0  0.105391  0  1.040375  0  0  0.10875  0  1.038191  0  0  0.092359  0.1029  0  1.042148  0
H  H20  1  0.33174032  0.76141627  0.35306195  1  0  0.097661  0  0.972817  0  0  0.104977  0  1.041635  0  0  0.108298  0  1.0395  0  0  0.092221  0.102527  0  1.043349  0
H  H21  1  0.57168121  0.23838237  0.14686213  1  0  0.098687  0  0.970916  0  0  0.105417  0  1.040324  0  0  0.108775  0  1.038141  0  0  0.092382  0.102927  0  1.042097  0
H  H22  1  0.33852771  0.32286551  0.73093982  1  0  0.087163  0  0.953513  0  0  0.097722  0  1.014956  0  0  0.100743  0  1.013254  0  0  0.096185  0.095527  0  1.016238  0
H  H23  1  0.01507810  0.67732489  0.76881511  1  0  0.087945  0  0.953326  0  0  0.098327  0  1.015057  0  0  0.101344  0  1.013373  0  0  0.096332  0.096181  0  1.016279  0
H  H24  1  0.66147303  0.67713382  0.26905937  1  0  0.087185  0  0.953483  0  0  0.097732  0  1.014934  0  0  0.100744  0  1.013243  0  0  0.096181  0.095535  0  1.016221  0
H  H25  1  0.98492601  0.32267724  0.23118649  1  0  0.087919  0  0.953406  0  0  0.098292  0  1.015141  0  0  0.101307  0  1.013461  0  0  0.09632  0.096145  0  1.016363  0
H  H26  1  0.27844457  0.47908067  0.71410220  1  0  0.084993  0  0.984698  0  0  0.095018  0  1.047571  0  0  0.096579  0  1.048916  0  0  0.096454  0.093891  0  1.046673  0
H  H27  1  0.79965684  0.52093964  0.78547475  1  0  0.084004  0  0.984744  0  0  0.093433  0  1.048428  0  0  0.094994  0  1.049762  0  0  0.095673  0.092314  0  1.047518  0
H  H28  1  0.72155582  0.52091797  0.28589864  1  0  0.085029  0  0.984749  0  0  0.095054  0  1.047615  0  0  0.096615  0  1.04896  0  0  0.096451  0.093926  0  1.046717  0
H  H29  1  0.20034494  0.47906178  0.21452369  1  0  0.083991  0  0.984709  0  0  0.093411  0  1.04841  0  0  0.09497  0  1.049747  0  0  0.095679  0.092292  0  1.0475  0
H  H30  1  0.54896321  0.55102377  0.61476318  1  0  0.095975  0  0.954102  0  0  0.107713  0  1.012785  0  0  0.1106  0  1.011472  0  0  0.103056  0.105648  0  1.013816  0
H  H31  1  0.99877208  0.44910220  0.88496141  1  0  0.095508  0  0.954999  0  0  0.107402  0  1.013532  0  0  0.110308  0  1.012183  0  0  0.102849  0.105321  0  1.014577  0
H  H32  1  0.45103359  0.44897556  0.38523721  1  0  0.095935  0  0.954135  0  0  0.107652  0  1.012848  0  0  0.11054  0  1.011533  0  0  0.103038  0.105588  0  1.013873  0
H  H33  1  0.00122922  0.55089432  0.11503356  1  0  0.09548  0  0.955062  0  0  0.107421  0  1.01354  0  0  0.110324  0  1.012194  0  0  0.102882  0.105342  0  1.014583  0
C  C34  1  0.53684657  0.07223309  0.40881583  1  0  0.12256  0  3.752778  0  0  0.092029  0  4.005413  0  0  0.099656  0  4.023947  0  0  0.03677  0.087155  0  3.992684  0
C  C35  1  0.46406036  0.92772692  0.09109910  1  0  0.120732  0  3.753396  0  0  0.090185  0  4.006379  0  0  0.097833  0  4.024913  0  0  0.036336  0.085252  0  3.993628  0
C  C36  1  0.46314990  0.92776555  0.59118741  1  0  0.122421  0  3.752897  0  0  0.091939  0  4.005532  0  0  0.099563  0  4.024066  0  0  0.036663  0.087064  0  3.992806  0
C  C37  1  0.53595033  0.07227659  0.90889859  1  0  0.120736  0  3.753234  0  0  0.090203  0  4.006212  0  0  0.097851  0  4.024748  0  0  0.036376  0.085271  0  3.993465  0
C  C38  1  0.36430049  0.12132637  0.45882351  1  0  -0.154938  0  3.67408  0  0  -0.169556  0  3.914161  0  0  -0.177667  0  3.933117  0  0  -0.080408  -0.164208  0  3.901363  0
C  C39  1  0.24228259  0.87873294  0.04108975  1  0  -0.154093  0  3.673783  0  0  -0.168862  0  3.913552  0  0  -0.177069  0  3.932452  0  0  -0.080875  -0.163457  0  3.900768  0
C  C40  1  0.63569400  0.87867227  0.54117793  1  0  -0.154902  0  3.674176  0  0  -0.16951  0  3.91425  0  0  -0.177624  0  3.933214  0  0  -0.080392  -0.16417  0  3.901433  0
C  C41  1  0.75771652  0.12126708  0.95890779  1  0  -0.154117  0  3.673723  0  0  -0.168909  0  3.91354  0  0  -0.17711  0  3.932424  0  0  -0.080856  -0.163516  0  3.900758  0
C  C42  1  0.30338721  0.20307392  0.44114054  1  0  0.173369  0  3.874577  0  0  0.182523  0  4.103433  0  0  0.191032  0  4.121978  0  0  0.016572  0.177024  0  4.090577  0
C  C43  1  0.10025132  0.79696384  0.05872402  1  0  0.173645  0  3.87685  0  0  0.183231  0  4.104849  0  0  0.191813  0  4.12334  0  0  0.017068  0.177679  0  4.092027  0
C  C44  1  0.69660890  0.79692402  0.55886255  1  0  0.173449  0  3.874639  0  0  0.182545  0  4.103582  0  0  0.191058  0  4.122111  0  0  0.016684  0.177045  0  4.090725  0
C  C45  1  0.89974884  0.20303828  0.94127517  1  0  0.173704  0  3.876803  0  0  0.18325  0  4.104881  0  0  0.191835  0  4.12337  0  0  0.017077  0.177695  0  4.092068  0
C  C46  1  0.42430811  0.23108332  0.37297794  1  0  -0.158474  0  3.689619  0  0  -0.17523  0  3.932824  0  0  -0.182677  0  3.950808  0  0  -0.080135  -0.170427  0  3.920694  0
C  C47  1  0.19349083  0.76893094  0.12690651  1  0  -0.158665  0  3.68968  0  0  -0.175689  0  3.932794  0  0  -0.183105  0  3.950775  0  0  -0.080121  -0.170904  0  3.920645  0
C  C48  1  0.57569657  0.76891602  0.62702425  1  0  -0.15845  0  3.689661  0  0  -0.175166  0  3.932904  0  0  -0.182612  0  3.950888  0  0  -0.080191  -0.170365  0  3.920776  0
C  C49  1  0.80652114  0.23107118  0.87309268  1  0  -0.158624  0  3.689845  0  0  -0.175636  0  3.93298  0  0  -0.183055  0  3.950964  0  0  -0.080101  -0.170848  0  3.920831  0
C  C50  1  0.59464570  0.17750662  0.32647832  1  0  0.117369  0  3.766037  0  0  0.085917  0  4.021012  0  0  0.093691  0  4.039289  0  0  0.035291  0.08091  0  4.008431  0
C  C51  1  0.41737450  0.82241958  0.17342589  1  0  0.115848  0  3.7642  0  0  0.084119  0  4.019488  0  0  0.091976  0  4.037764  0  0  0.035019  0.079067  0  4.006879  0
C  C52  1  0.40535864  0.82249203  0.67352553  1  0  0.11718  0  3.766198  0  0  0.08577  0  4.021157  0  0  0.093542  0  4.039435  0  0  0.035233  0.080757  0  4.008577  0
C  C53  1  0.58262867  0.17758464  0.82657316  1  0  0.115804  0  3.763941  0  0  0.084072  0  4.019249  0  0  0.091929  0  4.037527  0  0  0.035031  0.079022  0  4.006639  0
C  C54  1  0.12615332  0.25405800  0.49015944  1  0  -0.098279  0  3.813395  0  0  -0.096621  0  4.066468  0  0  -0.103077  0  4.096641  0  0  -0.03564  -0.092264  0  4.045772  0
C  C55  1  0.87225984  0.74597944  0.00962357  1  0  -0.101265  0  3.816171  0  0  -0.099799  0  4.069374  0  0  -0.1063  0  4.099542  0  0  -0.037437  -0.095403  0  4.048647  0
C  C56  1  0.87384047  0.74593924  0.50984049  1  0  -0.098491  0  3.813379  0  0  -0.09682  0  4.066473  0  0  -0.103278  0  4.096646  0  0  -0.035728  -0.092462  0  4.045775  0
C  C57  1  0.12774286  0.25401989  0.99037501  1  0  -0.101253  0  3.816239  0  0  -0.099783  0  4.069465  0  0  -0.106287  0  4.099635  0  0  -0.037451  -0.095384  0  4.048744  0
C  C58  1  0.97429859  0.29716536  0.53423649  1  0  -0.060145  0  3.852595  0  0  -0.06213  0  4.107045  0  0  -0.063371  0  4.138114  0  0  -0.026407  -0.061221  0  4.085839  0
C  C59  1  0.67691032  0.70293816  0.96568612  1  0  -0.058615  0  3.85462  0  0  -0.060788  0  4.109115  0  0  -0.061997  0  4.140179  0  0  -0.026245  -0.059897  0  4.087881  0
C  C60  1  0.02569694  0.70283537  0.46576240  1  0  -0.059998  0  3.852588  0  0  -0.061969  0  4.107032  0  0  -0.06321  0  4.138105  0  0  -0.026364  -0.061064  0  4.085826  0
C  C61  1  0.32308579  0.29705978  0.03431517  1  0  -0.05859  0  3.854579  0  0  -0.06074  0  4.109063  0  0  -0.06195  0  4.140131  0  0  -0.026199  -0.059847  0  4.087836  0
C  C62  1  0.79678291  0.34706842  0.58421162  1  0  0.072497  0  3.848354  0  0  0.085271  0  4.07208  0  0  0.085708  0  4.093857  0  0  0.005354  0.084908  0  4.05713  0
C  C63  1  0.44944939  0.65305789  0.91573752  1  0  0.071727  0  3.850801  0  0  0.084709  0  4.074182  0  0  0.085142  0  4.095966  0  0  0.006036  0.084353  0  4.059212  0
C  C64  1  0.20320833  0.65293160  0.41578591  1  0  0.072554  0  3.8485  0  0  0.085298  0  4.072266  0  0  0.085735  0  4.094049  0  0  0.005385  0.084937  0  4.057312  0
C  C65  1  0.55054973  0.34694215  0.08426543  1  0  0.0716  0  3.850908  0  0  0.084555  0  4.074326  0  0  0.084988  0  4.096111  0  0  0.005964  0.084198  0  4.059364  0
C  C66  1  0.64332202  0.30769277  0.64142703  1  0  -0.096953  0  3.708646  0  0  -0.11715  0  3.954486  0  0  -0.119696  0  3.975303  0  0  -0.081624  -0.115302  0  3.940253  0
C  C67  1  0.33472357  0.69247507  0.85856161  1  0  -0.097509  0  3.707471  0  0  -0.117221  0  3.953334  0  0  -0.119755  0  3.974022  0  0  -0.081873  -0.115375  0  3.939188  0
C  C68  1  0.35667548  0.69230795  0.35857186  1  0  -0.096991  0  3.708683  0  0  -0.117172  0  3.954525  0  0  -0.119717  0  3.975338  0  0  -0.081652  -0.115325  0  3.940288  0
C  C69  1  0.66527660  0.30752706  0.14144059  1  0  -0.0975  0  3.707621  0  0  -0.117193  0  3.953477  0  0  -0.119728  0  3.974167  0  0  -0.081881  -0.115346  0  3.939334  0
C  C70  1  0.46012744  0.35519583  0.68824381  1  0  -0.062023  0  3.765278  0  0  -0.076615  0  4.017006  0  0  -0.078499  0  4.037704  0  0  -0.088326  -0.075251  0  4.002804  0
C  C71  1  0.10436561  0.64495279  0.81155485  1  0  -0.063892  0  3.763868  0  0  -0.078465  0  4.015455  0  0  -0.080363  0  4.036147  0  0  -0.088958  -0.077131  0  4.001261  0
C  C72  1  0.53986867  0.64480210  0.31175507  1  0  -0.062057  0  3.765273  0  0  -0.076633  0  4.01699  0  0  -0.078508  0  4.037689  0  0  -0.088328  -0.075268  0  4.002783  0
C  C73  1  0.89563618  0.35504864  0.18844720  1  0  -0.063892  0  3.763893  0  0  -0.078454  0  4.015462  0  0  -0.080353  0  4.036154  0  0  -0.088926  -0.077121  0  4.001272  0
C  C74  1  0.42511251  0.44265604  0.67843852  1  0  -0.060538  0  3.775629  0  0  -0.074777  0  4.026202  0  0  -0.075339  0  4.046566  0  0  -0.088386  -0.07421  0  4.012138  0
C  C75  1  0.98249361  0.55744252  0.82124070  1  0  -0.057038  0  3.771612  0  0  -0.070727  0  4.02203  0  0  -0.071274  0  4.042429  0  0  -0.086923  -0.070172  0  4.007952  0
C  C76  1  0.57488360  0.55734190  0.32156156  1  0  -0.060633  0  3.775824  0  0  -0.074878  0  4.026388  0  0  -0.075441  0  4.04675  0  0  -0.088392  -0.074313  0  4.012324  0
C  C77  1  0.01750226  0.44255890  0.17875773  1  0  -0.05685  0  3.771523  0  0  -0.07053  0  4.021945  0  0  -0.071075  0  4.042343  0  0  -0.086896  -0.069974  0  4.007868  0
C  C78  1  0.57656517  0.48329869  0.62299934  1  0  -0.10196  0  3.710146  0  0  -0.120672  0  3.954695  0  0  -0.123374  0  3.973673  0  0  -0.079661  -0.118805  0  3.941756  0
C  C79  1  0.09376570  0.51682278  0.87673990  1  0  -0.102973  0  3.711989  0  0  -0.12184  0  3.956507  0  0  -0.124565  0  3.97552  0  0  -0.079614  -0.119945  0  3.943522  0
C  C80  1  0.42342735  0.51669995  0.37699969  1  0  -0.101787  0  3.71017  0  0  -0.120477  0  3.954701  0  0  -0.123177  0  3.973678  0  0  -0.079591  -0.11861  0  3.941762  0
C  C81  1  0.90623631  0.48317515  0.12325777  1  0  -0.103121  0  3.712192  0  0  -0.122033  0  3.956728  0  0  -0.124758  0  3.975739  0  0  -0.079693  -0.120138  0  3.943744  0
C  C82  1  0.76708045  0.43758731  0.57595829  1  0  0.082523  0  3.85179  0  0  0.093792  0  4.075956  0  0  0.095907  0  4.096593  0  0  0.006778  0.092404  0  4.06187  0
C  C83  1  0.32975199  0.56251985  0.92391902  1  0  0.083682  0  3.853499  0  0  0.094856  0  4.077748  0  0  0.096961  0  4.098436  0  0  0.007202  0.093474  0  4.063626  0
C  C84  1  0.23291346  0.56241411  0.42404075  1  0  0.082401  0  3.851991  0  0  0.093681  0  4.076161  0  0  0.095794  0  4.096798  0  0  0.006716  0.09229  0  4.062074  0
C  C85  1  0.67025036  0.43747878  0.07608001  1  0  0.0837  0  3.853576  0  0  0.094877  0  4.077843  0  0  0.096983  0  4.098529  0  0  0.007223  0.093496  0  4.063729  0
C  C86  1  0.92780844  0.48072822  0.52230519  1  0  -0.094916  0  3.884924  0  0  -0.095376  0  4.139712  0  0  -0.098572  0  4.169778  0  0  -0.038136  -0.093224  0  4.119368  0
C  C87  1  0.44740703  0.51932288  0.97760954  1  0  -0.095014  0  3.880573  0  0  -0.095461  0  4.135414  0  0  -0.098662  0  4.165501  0  0  -0.038426  -0.093301  0  4.115046  0
C  C88  1  0.07219067  0.51927180  0.47769354  1  0  -0.094844  0  3.884968  0  0  -0.095296  0  4.139743  0  0  -0.098489  0  4.169808  0  0  -0.038086  -0.093143  0  4.119398  0
C  C89  1  0.55259624  0.48067364  0.02238663  1  0  -0.094729  0  3.88051  0  0  -0.095157  0  4.135317  0  0  -0.098358  0  4.165404  0  0  -0.038293  -0.093002  0  4.114953  0
Br  Br90  1  0.97199843  0.88753560  0.33855277  1  0  -0.426877  0  1.017393  0  0  -0.368369  0  1.320209  0  0  -0.387898  0  1.303376  0  0  -0.209466  -0.354966  0  1.331575  0
Br  Br91  1  0.08423943  0.11278448  0.16169748  1  0  -0.426981  0  1.018345  0  0  -0.368309  0  1.321324  0  0  -0.387942  0  1.304623  0  0  -0.208924  -0.354856  0  1.332692  0
Br  Br92  1  0.02800034  0.11246374  0.66144762  1  0  -0.426876  0  1.017405  0  0  -0.368369  0  1.320225  0  0  -0.387887  0  1.30338  0  0  -0.209464  -0.354968  0  1.331588  0
Br  Br93  1  0.91576363  0.88721555  0.83830366  1  0  -0.426996  0  1.018371  0  0  -0.368317  0  1.321337  0  0  -0.387954  0  1.304643  0  0  -0.208927  -0.354865  0  1.332704  0
N  N94  1  0.64982735  0.09946562  0.34373094  1  0  -0.30983  0  3.279167  0  0  -0.232193  0  3.544131  0  0  -0.252836  0  3.565865  0  0  -0.318951  -0.218142  0  3.528909  0
N  N95  1  0.55029349  0.90043667  0.15616260  1  0  -0.307621  0  3.27716  0  0  -0.229797  0  3.541909  0  0  -0.25041  0  3.563581  0  0  -0.31812  -0.21576  0  3.52673  0
N  N96  1  0.35017270  0.90053232  0.65627155  1  0  -0.309688  0  3.27928  0  0  -0.232134  0  3.544284  0  0  -0.252775  0  3.566018  0  0  -0.318895  -0.218083  0  3.529061  0
N  N97  1  0.44971651  0.09956545  0.84383600  1  0  -0.307615  0  3.277097  0  0  -0.229772  0  3.541829  0  0  -0.250386  0  3.563505  0  0  -0.318132  -0.215734  0  3.526648  0
