# generated using pymatgen
data_LiH4C5NO
_symmetry_space_group_name_H-M   'P 1'
_cell_length_a   11.01090579
_cell_length_b   11.01091544
_cell_length_c   11.01589463
_cell_angle_alpha   89.99997706
_cell_angle_beta   90.00001338
_cell_angle_gamma   89.99997885
_symmetry_Int_Tables_number   1
_chemical_formula_structural   LiH4C5NO
_chemical_formula_sum   'Li8 H32 C40 N8 O8'
_cell_volume   1335.56874480
_cell_formula_units_Z   8
loop_
 _symmetry_equiv_pos_site_id
 _symmetry_equiv_pos_as_xyz
  1  'x, y, z'
loop_
 _atom_site_type_symbol
 _atom_site_label
 _atom_site_symmetry_multiplicity
 _atom_site_fract_x
 _atom_site_fract_y
 _atom_site_fract_z
 _atom_site_occupancy
 _atom_site_pbe_bader_charge
 _atom_site_pbe_bader_spin_density
 _atom_site_pbe_cm5_charge
 _atom_site_pbe_ddec_charge
 _atom_site_pbe_ddec_spin_density
 _atom_site_pbe_ddec_sum_bond_order
 _atom_site_pbe_magmom
Li  Li0  1  0.91667026  0.58836400  0.83557625  1  0.847844  0  0.544851  0.763353  0  0.595464  0
Li  Li1  1  0.08333195  0.41163589  0.83557528  1  0.847855  0  0.544858  0.763351  0  0.595475  0
Li  Li2  1  0.58836395  0.08333080  0.16442337  1  0.847844  0  0.544865  0.763356  0  0.595459  0
Li  Li3  1  0.41163538  0.91666936  0.16442410  1  0.847853  0  0.544871  0.763341  0  0.595481  0
Li  Li4  1  0.08333190  0.58836328  0.66442346  1  0.847845  0  0.544852  0.763352  0  0.595472  0
Li  Li5  1  0.91666937  0.41163577  0.66442359  1  0.847847  0  0.544852  0.763358  0  0.595464  0
Li  Li6  1  0.41163555  0.08332989  0.33557514  1  0.847843  0  0.544857  0.763344  0  0.595468  0
Li  Li7  1  0.58836382  0.91666929  0.33557681  1  0.847845  0  0.544863  0.76336  0  0.595458  0
H  H8  1  0.21074097  0.52388010  0.04415884  1  0.085708  0  0.110246  0.124107  0  1.021998  0
H  H9  1  0.12805117  0.82598018  0.80691207  1  0.067891  0  0.113192  0.123935  0  1.005666  0
H  H10  1  0.33141223  0.66726504  0.17076497  1  0.041364  0  0.117449  0.073981  0  0.984428  0
H  H11  1  0.25224984  0.95683574  0.94348835  1  0.087761  0  0.112017  0.070911  0  1.007737  0
H  H12  1  0.78925924  0.47612011  0.04415801  1  0.085703  0  0.110243  0.124087  0  1.022029  0
H  H13  1  0.87194922  0.17401881  0.80691229  1  0.0679  0  0.113182  0.123913  0  1.005662  0
H  H14  1  0.66858710  0.33273603  0.17076326  1  0.041371  0  0.117438  0.073963  0  0.984465  0
H  H15  1  0.74775057  0.04316411  0.94348859  1  0.08776  0  0.112032  0.070904  0  1.007743  0
H  H16  1  0.52387876  0.78926016  0.95584238  1  0.085688  0  0.110238  0.12408  0  1.022008  0
H  H17  1  0.82598005  0.87194820  0.19308819  1  0.067901  0  0.113187  0.123915  0  1.005673  0
H  H18  1  0.66726388  0.66858899  0.82923536  1  0.04137  0  0.117459  0.074017  0  0.984416  0
H  H19  1  0.95683577  0.74775054  0.05651103  1  0.087752  0  0.112049  0.070932  0  1.007796  0
H  H20  1  0.47611985  0.21073969  0.95584067  1  0.0857  0  0.110247  0.124102  0  1.021989  0
H  H21  1  0.17401929  0.12805104  0.19308735  1  0.067839  0  0.113191  0.123914  0  1.005676  0
H  H22  1  0.33273470  0.33141273  0.82923630  1  0.041385  0  0.117466  0.074028  0  0.984398  0
H  H23  1  0.04316444  0.25225058  0.05651284  1  0.087753  0  0.112048  0.070939  0  1.007792  0
H  H24  1  0.78925928  0.52387991  0.45584222  1  0.085713  0  0.110235  0.124068  0  1.021985  0
H  H25  1  0.87194818  0.82598098  0.69308845  1  0.067922  0  0.113186  0.123918  0  1.005687  0
H  H26  1  0.66858705  0.66726495  0.32923694  1  0.041395  0  0.117454  0.073985  0  0.984439  0
H  H27  1  0.74774945  0.95683663  0.55651212  1  0.087744  0  0.112045  0.070923  0  1.007798  0
H  H28  1  0.21074103  0.47612014  0.45584035  1  0.08571  0  0.110246  0.124083  0  1.022003  0
H  H29  1  0.12805128  0.17401988  0.69308758  1  0.067952  0  0.113189  0.123928  0  1.005653  0
H  H30  1  0.33141140  0.33273424  0.32923424  1  0.041372  0  0.117459  0.074009  0  0.984407  0
H  H31  1  0.25224997  0.04316428  0.55651134  1  0.087752  0  0.112035  0.070927  0  1.007801  0
H  H32  1  0.47611969  0.78926025  0.54415906  1  0.085705  0  0.110247  0.124097  0  1.022013  0
H  H33  1  0.17401916  0.87194830  0.30691182  1  0.06788  0  0.113192  0.123936  0  1.005679  0
H  H34  1  0.33273462  0.66858727  0.67076340  1  0.041383  0  0.117469  0.074035  0  0.984407  0
H  H35  1  0.04316439  0.74774972  0.44348721  1  0.087754  0  0.112045  0.070922  0  1.007788  0
H  H36  1  0.52387881  0.21074158  0.54415737  1  0.085686  0  0.110239  0.124095  0  1.022014  0
H  H37  1  0.82598020  0.12805181  0.30691205  1  0.067955  0  0.113191  0.123939  0  1.005663  0
H  H38  1  0.66726392  0.33141179  0.67076351  1  0.04137  0  0.117456  0.07399  0  0.984454  0
H  H39  1  0.95683591  0.25224942  0.44348923  1  0.087757  0  0.11202  0.070895  0  1.007742  0
C  C40  1  0.21806732  0.61938987  0.01896886  1  -0.073525  0  -0.105947  -0.289572  0  3.957845  0
C  C41  1  0.17202304  0.78757827  0.88693645  1  -0.121625  0  -0.104001  -0.294375  0  3.974077  0
C  C42  1  0.28516352  0.69940862  0.08895227  1  0.4715  0  0.036966  0.108581  0  4.0769  0
C  C43  1  0.24130072  0.86005904  0.96290576  1  0.439544  0  0.035997  0.112824  0  4.059051  0
C  C44  1  0.15893241  0.66184939  0.91257942  1  0.722429  0  0.110997  0.421785  0  4.158348  0
C  C45  1  0.78193288  0.38061035  0.01896806  1  -0.073526  0  -0.105932  -0.289513  0  3.957895  0
C  C46  1  0.82797645  0.21242161  0.88693573  1  -0.121639  0  -0.103966  -0.29433  0  3.974053  0
C  C47  1  0.71483579  0.30059248  0.08895149  1  0.471536  0  0.036996  0.108602  0  4.076887  0
C  C48  1  0.75869970  0.13994080  0.96290597  1  0.439541  0  0.035953  0.112842  0  4.059054  0
C  C49  1  0.84106800  0.33814957  0.91257957  1  0.722418  0  0.111006  0.421757  0  4.1584  0
C  C50  1  0.61938952  0.78193286  0.98103145  1  -0.073513  0  -0.105921  -0.289479  0  3.957893  0
C  C51  1  0.78757812  0.82797731  0.11306383  1  -0.121635  0  -0.103975  -0.2943  0  3.974076  0
C  C52  1  0.69940747  0.71483671  0.91104805  1  0.471527  0  0.036963  0.108563  0  4.07693  0
C  C53  1  0.86005990  0.75869969  0.03709453  1  0.43963  0  0.035941  0.112823  0  4.05907  0
C  C54  1  0.66184913  0.84106889  0.08742086  1  0.722435  0  0.111012  0.421698  0  4.158474  0
C  C55  1  0.38061000  0.21806698  0.98103063  1  -0.073522  0  -0.10593  -0.28952  0  3.957875  0
C  C56  1  0.21242120  0.17202378  0.11306389  1  -0.121539  0  -0.103977  -0.294295  0  3.974039  0
C  C57  1  0.30059204  0.28516406  0.91104809  1  0.471522  0  0.036951  0.108537  0  4.076899  0
C  C58  1  0.13994031  0.24130143  0.03709455  1  0.439532  0  0.035964  0.112816  0  4.059077  0
C  C59  1  0.33815018  0.15893221  0.08742005  1  0.722436  0  0.110997  0.421713  0  4.158422  0
C  C60  1  0.78193198  0.61939058  0.48103216  1  -0.073509  0  -0.105906  -0.289464  0  3.957843  0
C  C61  1  0.82797541  0.78757911  0.61306499  1  -0.121626  0  -0.103991  -0.294354  0  3.974095  0
C  C62  1  0.71483575  0.69940848  0.41104872  1  0.471523  0  0.036989  0.108592  0  4.07689  0
C  C63  1  0.75869861  0.86005994  0.53709474  1  0.439537  0  0.035978  0.112856  0  4.059088  0
C  C64  1  0.84106699  0.66185024  0.58742116  1  0.722413  0  0.111007  0.421737  0  4.158413  0
C  C65  1  0.21806742  0.38060945  0.48103033  1  -0.073522  0  -0.105913  -0.28948  0  3.957916  0
C  C66  1  0.17202403  0.21242178  0.61306412  1  -0.121613  0  -0.103982  -0.294335  0  3.974  0
C  C67  1  0.28516363  0.30059158  0.41104693  1  0.471516  0  0.036975  0.108576  0  4.076847  0
C  C68  1  0.24130080  0.13994007  0.53709301  1  0.439524  0  0.035952  0.112785  0  4.059121  0
C  C69  1  0.15893334  0.33815067  0.58742024  1  0.722425  0  0.110984  0.421715  0  4.158431  0
C  C70  1  0.38061075  0.78193209  0.51896818  1  -0.073528  0  -0.105926  -0.289508  0  3.957852  0
C  C71  1  0.21242202  0.82797645  0.38693530  1  -0.121626  0  -0.10398  -0.294379  0  3.97405  0
C  C72  1  0.30059192  0.71483594  0.58895251  1  0.47153  0  0.036964  0.108539  0  4.076866  0
C  C73  1  0.13994026  0.75869883  0.46290553  1  0.439551  0  0.035966  0.112871  0  4.059063  0
C  C74  1  0.33815100  0.84106707  0.41257916  1  0.722424  0  0.110999  0.421762  0  4.158384  0
C  C75  1  0.61938866  0.21806703  0.51896832  1  -0.073521  0  -0.105936  -0.289512  0  3.957823  0
C  C76  1  0.78757827  0.17202362  0.38693549  1  -0.121637  0  -0.103993  -0.294384  0  3.973999  0
C  C77  1  0.69940751  0.28516315  0.58895264  1  0.471529  0  0.036978  0.108565  0  4.076873  0
C  C78  1  0.86005913  0.24130121  0.46290662  1  0.439553  0  0.035992  0.112878  0  4.059052  0
C  C79  1  0.66184929  0.15893208  0.41257934  1  0.722423  0  0.111006  0.421737  0  4.158347  0
N  N80  1  0.29879362  0.81874203  0.06323395  1  -1.278905  0  -0.445745  -0.427128  0  3.474817  0
N  N81  1  0.70120750  0.18125817  0.06323413  1  -1.278927  0  -0.445759  -0.42718  0  3.474789  0
N  N82  1  0.81874098  0.70120748  0.93676636  1  -1.279005  0  -0.445766  -0.427234  0  3.474784  0
N  N83  1  0.18125853  0.29879328  0.93676637  1  -1.278927  0  -0.445769  -0.427206  0  3.474792  0
N  N84  1  0.70120652  0.81874188  0.43676699  1  -1.278941  0  -0.445793  -0.427224  0  3.474793  0
N  N85  1  0.29879287  0.18125817  0.43676525  1  -1.278951  0  -0.445768  -0.427181  0  3.474834  0
N  N86  1  0.18125841  0.70120676  0.56323330  1  -1.27893  0  -0.445777  -0.427214  0  3.474837  0
N  N87  1  0.81874101  0.29879233  0.56323436  1  -1.278931  0  -0.445763  -0.427186  0  3.474897  0
O  O88  1  0.09545808  0.58914792  0.84237451  1  -1.289731  0  -0.526026  -0.788397  0  2.29875  0
O  O89  1  0.90454504  0.41085106  0.84237555  1  -1.290295  0  -0.526048  -0.788388  0  2.298719  0
O  O90  1  0.58914848  0.90454500  0.15762485  1  -1.290335  0  -0.526052  -0.788366  0  2.298793  0
O  O91  1  0.41085085  0.09545517  0.15762409  1  -1.289712  0  -0.526052  -0.788373  0  2.298742  0
O  O92  1  0.90454408  0.58914872  0.65762429  1  -1.291066  0  -0.526054  -0.788383  0  2.298738  0
O  O93  1  0.09545718  0.41085125  0.65762423  1  -1.288908  0  -0.526041  -0.788395  0  2.298773  0
O  O94  1  0.41085163  0.90454227  0.34237424  1  -1.28971  0  -0.526051  -0.788405  0  2.298727  0
O  O95  1  0.58914956  0.09545601  0.34237533  1  -1.29029  0  -0.526058  -0.788383  0  2.298731  0
