# generated using pymatgen
data_TbH10C9S3N3O8
_symmetry_space_group_name_H-M   'P 1'
_cell_length_a   8.54866867
_cell_length_b   8.70341473
_cell_length_c   11.33748561
_cell_angle_alpha   104.97577811
_cell_angle_beta   97.36303243
_cell_angle_gamma   94.59552227
_symmetry_Int_Tables_number   1
_chemical_formula_structural   TbH10C9S3N3O8
_chemical_formula_sum   'Tb2 H20 C18 S6 N6 O16'
_cell_volume   802.50351688
_cell_formula_units_Z   2
loop_
 _symmetry_equiv_pos_site_id
 _symmetry_equiv_pos_as_xyz
  1  'x, y, z'
loop_
 _atom_site_type_symbol
 _atom_site_label
 _atom_site_symmetry_multiplicity
 _atom_site_fract_x
 _atom_site_fract_y
 _atom_site_fract_z
 _atom_site_occupancy
 _atom_site_hle17_bader_spin_density
 _atom_site_hle17_ddec_charge
 _atom_site_hle17_ddec_spin_density
 _atom_site_hle17_ddec_sum_bond_order
 _atom_site_hle17_magmom
 _atom_site_hse06_10hf_bader_spin_density
 _atom_site_hse06_10hf_ddec_charge
 _atom_site_hse06_10hf_ddec_spin_density
 _atom_site_hse06_10hf_ddec_sum_bond_order
 _atom_site_hse06_10hf_magmom
 _atom_site_hse06_bader_spin_density
 _atom_site_hse06_ddec_charge
 _atom_site_hse06_ddec_spin_density
 _atom_site_hse06_ddec_sum_bond_order
 _atom_site_hse06_magmom
 _atom_site_pbe_bader_spin_density
 _atom_site_pbe_cm5_charge
 _atom_site_pbe_ddec_charge
 _atom_site_pbe_ddec_spin_density
 _atom_site_pbe_ddec_sum_bond_order
 _atom_site_pbe_magmom
Tb  Tb0  1  0.54496270  0.16543310  0.41548495  1  0  2.252996  0  1.630514  0  0  2.105692  0  2.098421  0  0  2.23105  0  1.91347  0  0  1.503412  2.069691  0  2.129928  0
Tb  Tb1  1  0.45504662  0.83457054  0.58451579  1  0  2.252962  0  1.63062  0  0  2.105594  0  2.098611  0  0  2.230993  0  1.913584  0  0  1.503434  2.06959  0  2.130114  0
H  H2  1  0.02137056  0.92238900  0.22171224  1  0  0.129516  0  0.947323  0  0  0.132712  0  1.022937  0  0  0.135206  0  1.021594  0  0  0.104084  0.131196  0  1.023444  0
H  H3  1  0.97862801  0.07759533  0.77827987  1  0  0.129493  0  0.947515  0  0  0.132697  0  1.023095  0  0  0.135192  0  1.021747  0  0  0.104043  0.13118  0  1.0236  0
H  H4  1  0.94781485  0.01651220  0.35691230  1  0  0.164771  0  0.914855  0  0  0.179363  0  0.96672  0  0  0.183143  0  0.963982  0  0  0.121119  0.176787  0  0.968519  0
H  H5  1  0.05218462  0.98348770  0.64308238  1  0  0.164784  0  0.91478  0  0  0.179377  0  0.966664  0  0  0.183156  0  0.963924  0  0  0.121124  0.176799  0  0.968464  0
H  H6  1  0.56758162  0.74398773  0.15732271  1  0  0.142467  0  0.919241  0  0  0.152922  0  0.981891  0  0  0.155535  0  0.980703  0  0  0.115343  0.151089  0  0.982709  0
H  H7  1  0.43240747  0.25602350  0.84267796  1  0  0.142444  0  0.919262  0  0  0.152868  0  0.981935  0  0  0.155481  0  0.980746  0  0  0.115299  0.151032  0  0.982755  0
H  H8  1  0.37177453  0.79806563  0.16479956  1  0  0.150756  0  0.931924  0  0  0.158488  0  0.999742  0  0  0.161109  0  0.99872  0  0  0.120402  0.156502  0  1.000758  0
H  H9  1  0.62820865  0.20193787  0.83520720  1  0  0.150652  0  0.931773  0  0  0.158341  0  0.999701  0  0  0.160963  0  0.998678  0  0  0.120321  0.156352  0  1.000715  0
H  H10  1  0.63695015  0.27619226  0.06483594  1  0  0.12559  0  0.962641  0  0  0.128503  0  1.042283  0  0  0.130806  0  1.041711  0  0  0.103584  0.126806  0  1.042775  0
H  H11  1  0.36305467  0.72380426  0.93516320  1  0  0.125554  0  0.962623  0  0  0.128499  0  1.042272  0  0  0.130796  0  1.041709  0  0  0.10354  0.126802  0  1.042763  0
H  H12  1  0.59681253  0.06860811  0.98584263  1  0  0.140844  0  0.953068  0  0  0.156676  0  1.006384  0  0  0.159362  0  1.004994  0  0  0.111417  0.154803  0  1.007333  0
H  H13  1  0.40319180  0.93137693  0.01416169  1  0  0.140951  0  0.952933  0  0  0.156782  0  1.006308  0  0  0.15947  0  1.004918  0  0  0.111433  0.154906  0  1.007255  0
H  H14  1  0.76570513  0.41665954  0.34433502  1  0  0.434341  0  0.846719  0  0  0.399645  0  0.919808  0  0  0.410407  0  0.903929  0  0  0.303988  0.392286  0  0.930801  0
H  H15  1  0.23429657  0.58334113  0.65567150  1  0  0.434291  0  0.84675  0  0  0.399595  0  0.919867  0  0  0.410356  0  0.90399  0  0  0.303963  0.392235  0  0.930861  0
H  H16  1  0.70010677  0.51134130  0.46686905  1  0  0.450339  0  0.835679  0  0  0.421485  0  0.894307  0  0  0.432731  0  0.877943  0  0  0.307173  0.413846  0  0.905552  0
H  H17  1  0.29988853  0.48866414  0.53313578  1  0  0.450372  0  0.835644  0  0  0.421526  0  0.894257  0  0  0.43277  0  0.877894  0  0  0.30715  0.413886  0  0.905501  0
H  H18  1  0.26348179  0.27788066  0.33509522  1  0  0.453676  0  0.798614  0  0  0.429854  0  0.858354  0  0  0.439237  0  0.848499  0  0  0.327052  0.423167  0  0.866208  0
H  H19  1  0.73651795  0.72211393  0.66490836  1  0  0.453731  0  0.798505  0  0  0.429889  0  0.858289  0  0  0.439273  0  0.84843  0  0  0.327086  0.423197  0  0.866153  0
H  H20  1  0.37738975  0.44426249  0.35623615  1  0  0.451114  0  0.842002  0  0  0.416722  0  0.910762  0  0  0.427765  0  0.894941  0  0  0.309459  0.40912  0  0.921805  0
H  H21  1  0.62260828  0.55573692  0.64376802  1  0  0.451027  0  0.842125  0  0  0.416627  0  0.910899  0  0  0.427673  0  0.895075  0  0  0.30942  0.409026  0  0.921941  0
C  C22  1  0.98188461  0.58910798  0.22630289  1  0  0.387467  0  3.794278  0  0  0.367934  0  4.085893  0  0  0.39001  0  4.093054  0  0  0.248344  0.353189  0  4.080717  0
C  C23  1  0.01810980  0.41088979  0.77369356  1  0  0.387587  0  3.794219  0  0  0.367981  0  4.085942  0  0  0.390058  0  4.093096  0  0  0.248306  0.353235  0  4.080763  0
C  C24  1  0.18666620  0.49657448  0.13422778  1  0  0.385077  0  3.819913  0  0  0.366512  0  4.111142  0  0  0.388191  0  4.118689  0  0  0.246046  0.352061  0  4.105625  0
C  C25  1  0.81332955  0.50342446  0.86576900  1  0  0.385043  0  3.819922  0  0  0.366465  0  4.111152  0  0  0.388145  0  4.118698  0  0  0.24601  0.352016  0  4.105633  0
C  C26  1  0.96469376  0.32878967  0.11787305  1  0  0.38893  0  3.811874  0  0  0.368576  0  4.105818  0  0  0.390323  0  4.113481  0  0  0.244382  0.354069  0  4.10026  0
C  C27  1  0.03530518  0.67120695  0.88212547  1  0  0.388986  0  3.812088  0  0  0.368618  0  4.106037  0  0  0.390365  0  4.113703  0  0  0.244416  0.354113  0  4.100476  0
C  C28  1  0.01441913  0.91784407  0.31669210  1  0  -0.311073  0  3.601553  0  0  -0.342551  0  3.854372  0  0  -0.346457  0  3.855902  0  0  -0.147176  -0.33966  0  3.851978  0
C  C29  1  0.98558000  0.08215355  0.68330395  1  0  -0.311043  0  3.601862  0  0  -0.342477  0  3.854639  0  0  -0.34642  0  3.85626  0  0  -0.147121  -0.33958  0  3.852236  0
C  C30  1  0.18184340  0.94565895  0.38927253  1  0  0.775396  0  3.814262  0  0  0.728334  0  4.117055  0  0  0.763791  0  4.109802  0  0  0.22935  0.704908  0  4.123336  0
C  C31  1  0.81815896  0.05432802  0.61072483  1  0  0.775238  0  3.813983  0  0  0.728111  0  4.116931  0  0  0.763568  0  4.109676  0  0  0.229244  0.704683  0  4.123206  0
C  C32  1  0.45390541  0.71525874  0.18714752  1  0  -0.318124  0  3.639722  0  0  -0.35112  0  3.893664  0  0  -0.355232  0  3.896971  0  0  -0.143928  -0.348113  0  3.891068  0
C  C33  1  0.54608403  0.28474667  0.81285491  1  0  -0.317925  0  3.639189  0  0  -0.350843  0  3.893003  0  0  -0.354955  0  3.89631  0  0  -0.143763  -0.347828  0  3.890405  0
C  C34  1  0.48054151  0.74627219  0.32587086  1  0  0.759525  0  3.830855  0  0  0.709196  0  4.130349  0  0  0.743062  0  4.129015  0  0  0.222067  0.685929  0  4.136283  0
C  C35  1  0.51945318  0.25372828  0.67413046  1  0  0.759463  0  3.831005  0  0  0.709178  0  4.130421  0  0  0.743044  0  4.129086  0  0  0.221931  0.685902  0  4.136366  0
C  C36  1  0.66697392  0.15625697  0.06669508  1  0  -0.312321  0  3.649225  0  0  -0.339991  0  3.892312  0  0  -0.343968  0  3.896543  0  0  -0.154242  -0.336809  0  3.888766  0
C  C37  1  0.33302677  0.84373464  0.93330018  1  0  -0.312463  0  3.649216  0  0  -0.340248  0  3.892426  0  0  -0.344208  0  3.896622  0  0  -0.154253  -0.337067  0  3.888903  0
C  C38  1  0.62275177  0.12441122  0.18369372  1  0  0.684847  0  3.913023  0  0  0.645404  0  4.204101  0  0  0.676012  0  4.206896  0  0  0.179237  0.623726  0  4.207289  0
C  C39  1  0.37726696  0.87559232  0.81630890  1  0  0.684775  0  3.913066  0  0  0.645421  0  4.204073  0  0  0.676031  0  4.206874  0  0  0.179304  0.623738  0  4.207258  0
S  S40  1  0.38106279  0.51258489  0.10223235  1  0  0.053736  0  2.43335  0  0  0.047098  0  2.784971  0  0  0.043999  0  2.779378  0  0  0.057816  0.049502  0  2.788624  0
S  S41  1  0.61893711  0.48741897  0.89776830  1  0  0.053743  0  2.433288  0  0  0.047095  0  2.784897  0  0  0.043996  0  2.779305  0  0  0.057838  0.049494  0  2.788549  0
S  S42  1  0.88863677  0.74005074  0.31284299  1  0  0.084547  0  2.347901  0  0  0.077688  0  2.675486  0  0  0.074514  0  2.670166  0  0  0.067537  0.080373  0  2.678638  0
S  S43  1  0.11135158  0.25994606  0.68715442  1  0  0.084575  0  2.34809  0  0  0.077739  0  2.675693  0  0  0.074573  0  2.670379  0  0  0.067604  0.080419  0  2.678846  0
S  S44  1  0.86807750  0.13896367  0.04207138  1  0  0.092523  0  2.410362  0  0  0.08263  0  2.753626  0  0  0.079497  0  2.747564  0  0  0.073921  0.084944  0  2.757265  0
S  S45  1  0.13192253  0.86103123  0.95791992  1  0  0.092574  0  2.410359  0  0  0.082708  0  2.753696  0  0  0.079576  0  2.747627  0  0  0.073927  0.08502  0  2.757338  0
N  N46  1  0.12540267  0.62425020  0.19732488  1  0  -0.446446  0  3.022875  0  0  -0.409971  0  3.290843  0  0  -0.429644  0  3.302195  0  0  -0.317789  -0.396859  0  3.282809  0
N  N47  1  0.87459209  0.37574977  0.80266931  1  0  -0.446502  0  3.022882  0  0  -0.409988  0  3.290857  0  0  -0.429657  0  3.302208  0  0  -0.317824  -0.396876  0  3.282819  0
N  N48  1  0.11146604  0.34804586  0.08841544  1  0  -0.46931  0  2.996033  0  0  -0.438718  0  3.267679  0  0  -0.456138  0  3.273026  0  0  -0.339756  -0.42728  0  3.264044  0
N  N49  1  0.88853670  0.65195341  0.91158832  1  0  -0.469291  0  2.996018  0  0  -0.438684  0  3.267661  0  0  -0.456104  0  3.27301  0  0  -0.339719  -0.427246  0  3.264024  0
N  N50  1  0.89762452  0.44140842  0.19410923  1  0  -0.498108  0  3.011968  0  0  -0.454403  0  3.274066  0  0  -0.473528  0  3.280745  0  0  -0.326365  -0.441684  0  3.269422  0
N  N51  1  0.10236673  0.55859142  0.80588192  1  0  -0.498218  0  3.012034  0  0  -0.454487  0  3.274151  0  0  -0.473616  0  3.280832  0  0  -0.326358  -0.441766  0  3.269504  0
O  O52  1  0.27194568  0.05461225  0.36620240  1  0  -0.738846  0  2.027476  0  0  -0.684702  0  2.278315  0  0  -0.720797  0  2.265796  0  0  -0.389055  -0.665806  0  2.284442  0
O  O53  1  0.72805494  0.94536952  0.63378776  1  0  -0.738696  0  2.027531  0  0  -0.68451  0  2.278404  0  0  -0.720606  0  2.26588  0  0  -0.388963  -0.665611  0  2.284531  0
O  O54  1  0.21935674  0.86626210  0.46546726  1  0  -0.728344  0  2.041372  0  0  -0.682719  0  2.299088  0  0  -0.71844  0  2.286416  0  0  -0.39152  -0.665054  0  2.305011  0
O  O55  1  0.78064848  0.13374659  0.53453650  1  0  -0.728311  0  2.040964  0  0  -0.682678  0  2.298696  0  0  -0.718392  0  2.286027  0  0  -0.391561  -0.665032  0  2.304653  0
O  O56  1  0.53501280  0.88864105  0.39015960  1  0  -0.823364  0  2.191851  0  0  -0.766713  0  2.460302  0  0  -0.812227  0  2.451632  0  0  -0.432816  -0.747768  0  2.465725  0
O  O57  1  0.46499575  0.11136670  0.60984877  1  0  -0.823279  0  2.192049  0  0  -0.766617  0  2.460425  0  0  -0.812127  0  2.451753  0  0  -0.432753  -0.747673  0  2.46585  0
O  O58  1  0.44712258  0.64013431  0.37949002  1  0  -0.684961  0  2.061066  0  0  -0.624022  0  2.298234  0  0  -0.65778  0  2.289902  0  0  -0.343202  -0.605372  0  2.302947  0
O  O59  1  0.55286822  0.35987210  0.62051006  1  0  -0.68501  0  2.061049  0  0  -0.624146  0  2.298273  0  0  -0.657904  0  2.289944  0  0  -0.343134  -0.605489  0  2.302986  0
O  O60  1  0.72661555  0.10493974  0.26743315  1  0  -0.676541  0  1.986107  0  0  -0.628887  0  2.222354  0  0  -0.661542  0  2.215784  0  0  -0.375172  -0.611455  0  2.226286  0
O  O61  1  0.27340423  0.89508063  0.73257314  1  0  -0.676426  0  1.986004  0  0  -0.628805  0  2.222235  0  0  -0.661465  0  2.215666  0  0  -0.375199  -0.611374  0  2.226167  0
O  O62  1  0.47599992  0.12469726  0.19634431  1  0  -0.705261  0  1.941461  0  0  -0.663685  0  2.182373  0  0  -0.696223  0  2.173223  0  0  -0.396107  -0.646711  0  2.187808  0
O  O63  1  0.52402052  0.87530146  0.80365773  1  0  -0.705264  0  1.941546  0  0  -0.663705  0  2.182428  0  0  -0.696247  0  2.173275  0  0  -0.396147  -0.64674  0  2.187883  0
O  O64  1  0.69872998  0.40627701  0.40666066  1  0  -0.907857  0  1.875743  0  0  -0.85593  0  2.066513  0  0  -0.883712  0  2.027547  0  0  -0.636595  -0.84321  0  2.08881  0
O  O65  1  0.30126065  0.59372832  0.59334100  1  0  -0.907845  0  1.875712  0  0  -0.855908  0  2.06651  0  0  -0.88369  0  2.02753  0  0  -0.636551  -0.84319  0  2.088808  0
O  O66  1  0.34700994  0.35493758  0.39193096  1  0  -0.887951  0  1.895923  0  0  -0.832047  0  2.088181  0  0  -0.860101  0  2.055844  0  0  -0.602032  -0.818212  0  2.108147  0
O  O67  1  0.65298863  0.64505702  0.60807250  1  0  -0.887927  0  1.895955  0  0  -0.83199  0  2.088203  0  0  -0.86005  0  2.055861  0  0  -0.602025  -0.818154  0  2.108168  0
