# generated using pymatgen
data_Al6H16C67O29F4
_symmetry_space_group_name_H-M   'P 1'
_cell_length_a   12.13768454
_cell_length_b   12.18671599
_cell_length_c   27.05242907
_cell_angle_alpha   82.32880154
_cell_angle_beta   82.28408731
_cell_angle_gamma   63.75878305
_symmetry_Int_Tables_number   1
_chemical_formula_structural   Al6H16C67O29F4
_chemical_formula_sum   'Al6 H16 C67 O29 F4'
_cell_volume   3544.27082459
_cell_formula_units_Z   1
loop_
 _symmetry_equiv_pos_site_id
 _symmetry_equiv_pos_as_xyz
  1  'x, y, z'
loop_
 _atom_site_type_symbol
 _atom_site_label
 _atom_site_symmetry_multiplicity
 _atom_site_fract_x
 _atom_site_fract_y
 _atom_site_fract_z
 _atom_site_occupancy
 _atom_site_pbe_bader_charge
 _atom_site_pbe_bader_spin_density
 _atom_site_pbe_cm5_charge
 _atom_site_pbe_ddec_charge
 _atom_site_pbe_ddec_spin_density
 _atom_site_pbe_ddec_sum_bond_order
 _atom_site_pbe_magmom
Al  Al0  1  0.40241316  0.40258709  0.51160134  1  2.496517  0  0.401318  1.680014  0  2.560043  0
Al  Al1  1  0.65982235  0.42291645  0.49573407  1  2.482174  0  0.51313  1.662098  0  2.507825  0
Al  Al2  1  0.42535187  0.65774851  0.49713379  1  2.48278  0  0.512906  1.661373  0  2.506758  0
Al  Al3  1  0.92801423  0.93947200  0.97891212  1  2.495693  0  0.401419  1.681505  0  2.557697  0
Al  Al4  1  0.91426559  0.67974115  0.99550069  1  2.482563  0  0.510674  1.663748  0  2.507267  0
Al  Al5  1  0.67559814  0.90967629  0.99422918  1  2.479949  0  0.511013  1.661177  0  2.508094  0
H  H6  1  0.11667731  0.88105713  0.20841886  1  0.07999  0  0.112839  0.120527  0  0.989653  0
H  H7  1  0.21716861  0.46249116  0.28517820  1  0.124111  0  0.120774  0.133513  0  0.961782  0
H  H8  1  0.44750047  0.22748364  0.22761224  1  0.073391  0  0.106205  0.096882  0  0.984863  0
H  H9  1  0.58255526  0.04044631  0.30042877  1  0.088677  0  0.113225  0.107981  0  0.971034  0
H  H10  1  0.53407918  0.38628772  0.26025623  1  0.09181  0  0.103686  0.093313  0  0.994168  0
H  H11  1  0.97085089  0.07561512  0.22587024  1  0.022259  0  0.092749  0.01572  0  0.975598  0
H  H12  1  0.74177403  0.29900054  0.18931194  1  0.075862  0  0.110051  0.104678  0  0.97839  0
H  H13  1  0.78964997  0.95578161  0.22958776  1  0.090116  0  0.104866  0.101023  0  0.993127  0
H  H14  1  0.67538817  0.84371160  0.69580055  1  0.114692  0  0.12161  0.133445  0  0.961658  0
H  H15  1  0.67903344  0.47488504  0.79538614  1  0.090338  0  0.12204  0.133536  0  0.961325  0
H  H16  1  0.85661181  0.47687950  0.71603784  1  0.116417  0  0.117811  0.113542  0  0.967384  0
H  H17  1  0.86701435  0.67676096  0.75523703  1  0.087722  0  0.112362  0.106497  0  0.980024  0
H  H18  1  0.33635411  0.72495388  0.25428621  1  0.085841  0  0.11022  0.103744  0  0.979791  0
H  H19  1  0.35515424  0.52742654  0.20247340  1  0.080256  0  0.108032  0.100054  0  0.987665  0
H  H20  1  0.30527688  0.28556289  0.55492681  1  0.571559  0  0.297532  0.389001  0  0.913753  0
H  H21  1  0.04221255  0.03907030  0.99701462  1  0.575124  0  0.296541  0.386629  0  0.917215  0
C  C22  1  0.61436171  0.28377919  0.43569362  1  1.631623  0  0.281078  0.710848  0  4.16292  0
C  C23  1  0.14985227  0.67908114  0.19664297  1  0.131109  0  0.004602  0.065332  0  3.816765  0
C  C24  1  0.19575029  0.55480836  0.26750702  1  -0.060315  0  -0.070009  -0.149848  0  3.628743  0
C  C25  1  0.61777960  0.61556894  0.41765411  1  1.673073  0  0.287081  0.699191  0  4.176688  0
C  C26  1  0.18567922  0.66430183  0.29662727  1  0.096841  0  0.009337  0.070887  0  3.811474  0
C  C27  1  0.27218556  0.59138158  0.22270033  1  -0.024633  0  -0.064129  -0.063778  0  3.627023  0
C  C28  1  0.26142458  0.70105055  0.25032668  1  -0.016537  0  -0.062061  -0.055952  0  3.611697  0
C  C29  1  0.12840675  0.68772914  0.14597235  1  -0.481984  0  -0.02332  -0.021691  0  4.08339  0
C  C30  1  0.20621908  0.65667350  0.34735356  1  -0.482597  0  -0.019237  -0.018004  0  4.069921  0
C  C31  1  0.61634857  0.09886742  0.27521519  1  -0.012747  0  -0.060796  -0.068189  0  3.611693  0
C  C32  1  0.54206702  0.20237075  0.23553446  1  -0.026591  0  -0.066958  -0.080777  0  3.623371  0
C  C33  1  0.66375712  0.66510177  0.26888529  1  0.273898  0  0.006138  0.004878  0  4.180223  0
C  C34  1  0.67587420  0.10670942  0.10208058  1  0.042454  0  -0.043746  -0.203269  0  3.974761  0
C  C35  1  0.64397225  0.23533657  0.38768862  1  0.303437  0  -0.035125  -0.190502  0  3.958992  0
C  C36  1  0.73127335  0.05161471  0.23657125  1  -0.019888  0  -0.056072  -0.084584  0  3.580656  0
C  C37  1  0.27899300  0.61976979  0.43836606  1  1.674273  0  0.283066  0.70792  0  4.16594  0
C  C38  1  0.65750743  0.15463788  0.19559187  1  0.120323  0  0.008147  0.118216  0  3.815506  0
C  C39  1  0.77862130  0.13972403  0.25480188  1  -0.015231  0  5.8e-05  0.019735  0  3.635  0
C  C40  1  0.66301017  0.18729206  0.29420579  1  0.108818  0  0.017471  0.105919  0  3.774533  0
C  C41  1  0.70452451  0.24274504  0.21415955  1  -0.015313  0  -0.058636  -0.094648  0  3.594519  0
C  C42  1  0.58958118  0.29016700  0.25280687  1  -0.044647  0  -0.063608  -0.07013  0  3.631358  0
C  C43  1  0.66272686  0.13187249  0.14525791  1  -0.317392  0  -0.022079  -0.030999  0  4.07294  0
C  C44  1  0.65311098  0.65428277  0.31909216  1  -0.366301  0  0.000867  0.030814  0  4.234472  0
C  C45  1  0.65772533  0.20998153  0.34456252  1  -0.50565  0  -0.014699  -0.017492  0  4.057107  0
C  C46  1  0.67741647  0.76154288  0.71828996  1  -0.042332  0  -0.064471  -0.139026  0  3.61717  0
C  C47  1  0.57952566  0.75993619  0.76154596  1  0.626256  0  0.111402  0.193595  0  3.745788  0
C  C48  1  0.70135379  0.68596420  0.88988400  1  0.117007  0  -0.036071  -0.207769  0  3.944494  0
C  C49  1  0.61806790  0.27934799  0.57717709  1  1.681019  0  0.278807  0.693511  0  4.185598  0
C  C50  1  0.64842050  0.63762973  0.60133275  1  0.330571  0  -0.035858  -0.206168  0  3.947352  0
C  C51  1  0.78317792  0.66846246  0.75048061  1  -0.003286  0  -0.057219  -0.050138  0  3.599801  0
C  C52  1  0.68472474  0.66724272  0.79565457  1  0.117159  0  0.007535  0.054767  0  3.798895  0
C  C53  1  0.77751318  0.55796026  0.72936873  1  -0.04038  0  -0.060103  -0.061047  0  3.614503  0
C  C54  1  0.67217633  0.65034796  0.69539828  1  0.103118  0  0.007774  0.059893  0  3.800761  0
C  C55  1  0.64202310  0.64285758  0.36502268  1  0.312368  0  0.014054  -0.11536  0  3.792016  0
C  C56  1  0.67927316  0.55604643  0.77277338  1  -0.008573  0  -0.063381  -0.1363  0  3.615747  0
C  C57  1  0.57391260  0.64846023  0.74069878  1  0.621483  0  0.115025  0.200105  0  3.727344  0
C  C58  1  0.69332980  0.67547009  0.84644026  1  -0.382667  0  -0.000617  0.020854  0  4.035285  0
C  C59  1  0.66106285  0.64419212  0.64466610  1  -0.559372  0  -0.004192  0.012675  0  4.044698  0
C  C60  1  0.10558510  0.69943261  0.86357868  1  -0.210131  0  0.005103  -0.128831  0  3.821555  0
C  C61  1  0.62086498  0.61577342  0.55479417  1  1.634746  0  0.288893  0.729374  0  4.143988  0
C  C62  1  0.13210558  0.68666893  0.81867942  1  0.13919  0  -0.001859  0.033003  0  4.25273  0
C  C63  1  0.15863082  0.67431316  0.76949457  1  0.061361  0  0.001569  -0.004531  0  4.192355  0
C  C64  1  0.18100318  0.66472153  0.72401611  1  -0.094467  0  0.003722  0.002622  0  4.190362  0
C  C65  1  0.20808497  0.65253378  0.67483402  1  -0.294041  0  -0.004929  0.027748  0  4.252237  0
C  C66  1  0.06361034  0.75200210  0.27045094  1  0.622424  0  0.11103  0.191996  0  3.730153  0
C  C67  1  0.23464512  0.64037234  0.62989338  1  0.237764  0  0.005571  -0.125227  0  3.817588  0
C  C68  1  0.69207381  0.10320212  0.86209540  1  0.296519  0  0.007261  -0.126012  0  3.81857  0
C  C69  1  0.68194327  0.12910903  0.81702897  1  -0.415268  0  -0.003565  0.030326  0  4.252348  0
C  C70  1  0.67221208  0.15508546  0.76767028  1  0.263466  0  0.002013  -0.002988  0  4.192682  0
C  C71  1  0.66488469  0.17655386  0.72204827  1  -0.290173  0  0.001201  -0.002961  0  4.193864  0
C  C72  1  0.65505831  0.20248169  0.67268592  1  -0.116826  0  -0.005846  0.027642  0  4.255436  0
C  C73  1  0.28520089  0.61157406  0.57959737  1  1.6859  0  0.277089  0.692042  0  4.185837  0
C  C74  1  0.64479508  0.22843551  0.62762393  1  0.067184  0  0.00602  -0.126525  0  3.817414  0
C  C75  1  0.05433941  0.72570422  0.05505747  1  1.648272  0  0.277901  0.714209  0  4.162105  0
C  C76  1  0.72020475  0.71930818  0.07385311  1  1.69269  0  0.28428  0.702474  0  4.175774  0
C  C77  1  0.13967048  0.78827202  0.22581567  1  -0.028197  0  -0.071906  -0.147373  0  3.634365  0
C  C78  1  0.70912415  0.05653069  0.05427458  1  1.652012  0  0.277012  0.71421  0  4.161839  0
C  C79  1  0.05441995  0.72784431  0.91379217  1  1.668819  0  0.280448  0.690456  0  4.185973  0
C  C80  1  0.72398957  0.71227420  0.93647491  1  1.660373  0  0.287284  0.726043  0  4.145407  0
C  C81  1  0.71794791  0.05325158  0.91266543  1  1.695632  0  0.282291  0.689427  0  4.188667  0
C  C82  1  0.69483465  0.69368080  0.12648992  1  0.190863  0  0.003907  -0.133369  0  3.811058  0
C  C83  1  0.68365787  0.68323450  0.17244969  1  -0.199237  0  -0.002121  0.033248  0  4.245782  0
C  C84  1  0.67244739  0.67312825  0.22266770  1  -0.354664  0  0.000782  -0.006238  0  4.183175  0
C  C85  1  0.90911955  0.10475689  0.26120825  1  0.980691  0  0.099542  0.26854  0  4.010818  0
C  C86  1  0.10448813  0.69841920  0.10278493  1  0.210379  0  -0.037913  -0.1934  0  3.963313  0
C  C87  1  0.22912723  0.64745989  0.39057282  1  0.24232  0  -0.028723  -0.181014  0  3.950745  0
C  C88  1  0.07461681  0.64157792  0.24300687  1  0.609039  0  0.109624  0.198561  0  3.733461  0
O  O89  1  0.29739339  0.51668831  0.46112658  1  -1.216662  0  -0.197193  -0.532342  0  2.286696  0
O  O90  1  0.64211200  0.81874299  0.05304734  1  -1.234567  0  -0.219743  -0.57297  0  2.248055  0
O  O91  1  0.62862198  0.03285692  0.03671434  1  -1.260471  0  -0.245314  -0.608842  0  2.227113  0
O  O92  1  0.50732559  0.30872053  0.45638524  1  -1.221055  0  -0.202768  -0.545109  0  2.290545  0
O  O93  1  0.81900566  0.03876976  0.92648296  1  -1.200689  0  -0.19346  -0.522023  0  2.282877  0
O  O94  1  0.02954121  0.83359340  0.92540683  1  -1.202071  0  -0.195588  -0.528191  0  2.285565  0
O  O95  1  0.03399718  0.64332867  0.94192906  1  -1.249065  0  -0.238289  -0.599652  0  2.237554  0
O  O96  1  0.82553686  0.63861030  0.95499185  1  -1.245755  0  -0.22575  -0.590041  0  2.24392  0
O  O97  1  0.64430160  0.81098589  0.95523455  1  -1.244838  0  -0.22627  -0.58948  0  2.245435  0
O  O98  1  0.63669727  0.02333975  0.93864396  1  -1.245682  0  -0.234648  -0.592987  0  2.240602  0
O  O99  1  0.83825369  0.84162499  0.98994228  1  -1.608095  0  -0.39075  -1.274717  0  2.292966  0
O  O100  1  0.69720630  0.51768927  0.53475782  1  -1.241132  0  -0.225462  -0.589342  0  2.246324  0
O  O101  1  0.69835804  0.30244549  0.45305890  1  -1.252337  0  -0.241187  -0.606252  0  2.228911  0
O  O102  1  0.69419031  0.51326842  0.43718504  1  -1.231431  0  -0.21509  -0.565115  0  2.246753  0
O  O103  1  0.51901457  0.69255112  0.43939707  1  -1.230117  0  -0.217482  -0.569934  0  2.25003  0
O  O104  1  0.30614575  0.70109665  0.45280133  1  -1.24854  0  -0.239679  -0.601848  0  2.231975  0
O  O105  1  0.30801247  0.50617264  0.56815233  1  -1.205009  0  -0.204249  -0.550323  0  2.295376  0
O  O106  1  0.51567165  0.29629652  0.56384605  1  -1.211219  0  -0.20445  -0.552566  0  2.291667  0
O  O107  1  0.69989220  0.30781112  0.55092689  1  -1.236029  0  -0.233061  -0.587732  0  2.234233  0
O  O108  1  0.95051486  0.10652459  0.29959514  1  -1.052619  0  -0.256189  -0.337566  0  2.097988  0
O  O109  1  0.51854433  0.69272186  0.53776437  1  -1.243151  0  -0.225587  -0.588232  0  2.241442  0
O  O110  1  0.30694999  0.69500836  0.55131528  1  -1.252113  0  -0.23525  -0.592976  0  2.233991  0
O  O111  1  0.49708657  0.49573542  0.50168399  1  -1.609868  0  -0.390368  -1.275003  0  2.293712  0
O  O112  1  0.81590376  0.03501602  0.03412782  1  -1.214863  0  -0.209396  -0.562439  0  2.296559  0
O  O113  1  0.03162574  0.83030961  0.03275430  1  -1.218352  0  -0.209347  -0.565121  0  2.294171  0
O  O114  1  0.03177330  0.64191898  0.04011201  1  -1.253863  0  -0.240427  -0.601823  0  2.231862  0
O  O115  1  0.82167573  0.64370890  0.05314499  1  -1.237909  0  -0.219554  -0.573302  0  2.249537  0
O  O116  1  0.31515149  0.31876612  0.52101861  1  -1.349148  0  -0.571185  -0.98599  0  1.788207  0
O  O117  1  0.00905559  0.02936445  0.96822280  1  -1.35247  0  -0.570895  -0.985133  0  1.791968  0
F  F118  1  0.48074001  0.86142807  0.77745473  1  -0.623415  0  -0.10827  -0.145025  0  1.300272  0
F  F119  1  0.46932772  0.63746591  0.73570725  1  -0.626879  0  -0.10607  -0.149283  0  1.326181  0
F  F120  1  0.95777916  0.83217247  0.29444067  1  -0.632382  0  -0.101042  -0.148208  0  1.336829  0
F  F121  1  0.97977765  0.61286270  0.23904622  1  -0.63108  0  -0.112729  -0.157358  0  1.314517  0
