# generated using pymatgen
data_Cu3H2(CN3)3
_symmetry_space_group_name_H-M   'P 1'
_cell_length_a   8.61103238
_cell_length_b   8.61094982
_cell_length_c   12.32968368
_cell_angle_alpha   77.36468646
_cell_angle_beta   77.36492983
_cell_angle_gamma   79.96229199
_symmetry_Int_Tables_number   1
_chemical_formula_structural   Cu3H2(CN3)3
_chemical_formula_sum   'Cu12 H8 C12 N36'
_cell_volume   862.78078910
_cell_formula_units_Z   4
loop_
 _symmetry_equiv_pos_site_id
 _symmetry_equiv_pos_as_xyz
  1  'x, y, z'
loop_
 _atom_site_type_symbol
 _atom_site_label
 _atom_site_symmetry_multiplicity
 _atom_site_fract_x
 _atom_site_fract_y
 _atom_site_fract_z
 _atom_site_occupancy
 _atom_site_hle17_bader_spin_density
 _atom_site_hle17_ddec_charge
 _atom_site_hle17_ddec_spin_density
 _atom_site_hle17_ddec_sum_bond_order
 _atom_site_hle17_magmom
 _atom_site_hse06_10hf_bader_spin_density
 _atom_site_hse06_10hf_ddec_charge
 _atom_site_hse06_10hf_ddec_spin_density
 _atom_site_hse06_10hf_ddec_sum_bond_order
 _atom_site_hse06_10hf_magmom
 _atom_site_hse06_bader_spin_density
 _atom_site_hse06_ddec_charge
 _atom_site_hse06_ddec_spin_density
 _atom_site_hse06_ddec_sum_bond_order
 _atom_site_hse06_magmom
 _atom_site_pbe_bader_spin_density
 _atom_site_pbe_cm5_charge
 _atom_site_pbe_ddec_charge
 _atom_site_pbe_ddec_spin_density
 _atom_site_pbe_ddec_sum_bond_order
 _atom_site_pbe_magmom
Cu  Cu0  1  0.36553473  0.36553601  0.01892811  1  0  0.43378  0  1.653221  0  0  0.294142  0  2.10867  0  0  0.317484  0  2.049404  0  0  0.508583  0.278854  0  2.149792  0
Cu  Cu1  1  0.63446029  0.63445709  0.98107295  1  0  0.433805  0  1.653119  0  0  0.29415  0  2.108568  0  0  0.317503  0  2.049307  0  0  0.508554  0.278856  0  2.149681  0
Cu  Cu2  1  0.75458998  0.75458871  0.13668942  1  0  0.28457  0  2.227621  0  0  0.167833  0  2.746186  0  0  0.172635  0  2.684478  0  0  0.467205  0.167152  0  2.786804  0
Cu  Cu3  1  0.24540888  0.24541029  0.86330821  1  0  0.284648  0  2.22749  0  0  0.167914  0  2.746018  0  0  0.172717  0  2.684294  0  0  0.467227  0.167227  0  2.786636  0
Cu  Cu4  1  0.94604734  0.94605161  0.86608496  1  0  0.486873  0  1.958114  0  0  0.36117  0  2.458233  0  0  0.364781  0  2.408249  0  0  0.581699  0.361565  0  2.49092  0
Cu  Cu5  1  0.05394567  0.05394047  0.13391991  1  0  0.486925  0  1.957785  0  0  0.361203  0  2.45789  0  0  0.364831  0  2.407902  0  0  0.581728  0.361598  0  2.490609  0
Cu  Cu6  1  0.37709665  0.37710023  0.33309836  1  0  0.474618  0  1.950744  0  0  0.348534  0  2.449694  0  0  0.354236  0  2.395655  0  0  0.570525  0.347451  0  2.485243  0
Cu  Cu7  1  0.62289930  0.62290506  0.66690353  1  0  0.474695  0  1.95077  0  0  0.348621  0  2.449738  0  0  0.354321  0  2.395699  0  0  0.570545  0.347543  0  2.485284  0
Cu  Cu8  1  0.90253206  0.90252885  0.54472419  1  0  0.334359  0  2.331188  0  0  0.248393  0  2.83511  0  0  0.232521  0  2.793159  0  0  0.51329  0.262455  0  2.86082  0
Cu  Cu9  1  0.09748026  0.09747467  0.45528476  1  0  0.334235  0  2.331441  0  0  0.248205  0  2.835448  0  0  0.232322  0  2.793498  0  0  0.51328  0.262322  0  2.861127  0
Cu  Cu10  1  0.72176938  0.72176933  0.35956770  1  0  0.450707  0  1.71663  0  0  0.339751  0  2.160236  0  0  0.351175  0  2.10864  0  0  0.519528  0.333405  0  2.195262  0
Cu  Cu11  1  0.27823004  0.27823178  0.64042457  1  0  0.450591  0  1.716595  0  0  0.339615  0  2.160251  0  0  0.351039  0  2.108659  0  0  0.519472  0.333275  0  2.195263  0
H  H12  1  0.10043288  0.69241605  0.33955274  1  0  0.110459  0  0.93995  0  0  0.126577  0  0.992872  0  0  0.127021  0  0.992971  0  0  0.140292  0.126122  0  0.992939  0
H  H13  1  0.30760563  0.89957365  0.66044065  1  0  0.110452  0  0.9402  0  0  0.126564  0  0.993112  0  0  0.127019  0  0.993183  0  0  0.140283  0.126104  0  0.993183  0
H  H14  1  0.89955891  0.30758999  0.66044247  1  0  0.110428  0  0.940009  0  0  0.126612  0  0.992853  0  0  0.127048  0  0.992972  0  0  0.140295  0.126153  0  0.992923  0
H  H15  1  0.69241091  0.10043635  0.33955413  1  0  0.110417  0  0.940062  0  0  0.126608  0  0.992887  0  0  0.12705  0  0.992993  0  0  0.140288  0.126152  0  0.992954  0
H  H16  1  0.66588737  0.25362841  0.84483846  1  0  0.116494  0  0.92413  0  0  0.132286  0  0.975933  0  0  0.133351  0  0.975649  0  0  0.145501  0.131221  0  0.976525  0
H  H17  1  0.74636620  0.33409676  0.15516370  1  0  0.116613  0  0.923807  0  0  0.132297  0  0.975739  0  0  0.133363  0  0.975459  0  0  0.145526  0.131235  0  0.976335  0
H  H18  1  0.33410656  0.74636477  0.15516440  1  0  0.116622  0  0.923846  0  0  0.132319  0  0.975751  0  0  0.133385  0  0.975472  0  0  0.14555  0.131257  0  0.976347  0
H  H19  1  0.25362730  0.66589172  0.84484174  1  0  0.116538  0  0.924198  0  0  0.132266  0  0.976068  0  0  0.133331  0  0.975787  0  0  0.145484  0.131201  0  0.976663  0
C  C20  1  0.05487575  0.57859972  0.35436440  1  0  0.181734  0  3.709477  0  0  0.126165  0  3.970934  0  0  0.134213  0  3.990083  0  0  0.148564  0.121003  0  3.95822  0
C  C21  1  0.42140330  0.94512540  0.64563102  1  0  0.181942  0  3.70921  0  0  0.126404  0  3.970635  0  0  0.134457  0  3.989781  0  0  0.148635  0.121242  0  3.957928  0
C  C22  1  0.94511753  0.42140527  0.64563316  1  0  0.181717  0  3.709371  0  0  0.1261  0  3.970825  0  0  0.134141  0  3.989973  0  0  0.148515  0.120937  0  3.95811  0
C  C23  1  0.57859954  0.05487966  0.35436558  1  0  0.181814  0  3.709245  0  0  0.126204  0  3.970697  0  0  0.134249  0  3.989841  0  0  0.148592  0.121041  0  3.957981  0
C  C24  1  0.61261560  0.61261542  0.21847306  1  0  -0.117515  0  3.628262  0  0  -0.109832  0  4.003625  0  0  -0.093072  0  3.987884  0  0  -0.076608  -0.121521  0  4.013798  0
C  C25  1  0.38738080  0.38738622  0.78152860  1  0  -0.117335  0  3.628124  0  0  -0.109653  0  4.003491  0  0  -0.092889  0  3.98775  0  0  -0.076525  -0.121343  0  4.013659  0
C  C26  1  0.65532284  0.17669243  0.92758048  1  0  0.190286  0  3.684003  0  0  0.136874  0  3.938434  0  0  0.14483  0  3.957712  0  0  0.152128  0.131705  0  3.92574  0
C  C27  1  0.82331363  0.34466072  0.07241402  1  0  0.190241  0  3.684056  0  0  0.136892  0  3.938487  0  0  0.14485  0  3.957778  0  0  0.152133  0.131718  0  3.925794  0
C  C28  1  0.34466629  0.82330770  0.07241793  1  0  0.190279  0  3.683796  0  0  0.136938  0  3.938231  0  0  0.144899  0  3.957511  0  0  0.152124  0.131764  0  3.925542  0
C  C29  1  0.17669721  0.65532731  0.92758018  1  0  0.190253  0  3.684024  0  0  0.136876  0  3.938445  0  0  0.144823  0  3.957734  0  0  0.152131  0.131707  0  3.925748  0
C  C30  1  0.03761972  0.03761313  0.61387543  1  0  -0.103521  0  3.636401  0  0  -0.115184  0  4.041587  0  0  -0.085689  0  4.015208  0  0  -0.08677  -0.136598  0  4.059773  0
C  C31  1  0.96240447  0.96240578  0.38612442  1  0  -0.103649  0  3.637702  0  0  -0.115341  0  4.042854  0  0  -0.085857  0  4.016495  0  0  -0.086859  -0.136724  0  4.060978  0
N  N32  1  0.53789664  0.20040622  0.01672502  1  0  -0.274852  0  3.429407  0  0  -0.191342  0  3.743745  0  0  -0.208713  0  3.753607  0  0  -0.294582  -0.180249  0  3.737564  0
N  N33  1  0.79959297  0.46209214  0.98327460  1  0  -0.274972  0  3.429486  0  0  -0.191449  0  3.743783  0  0  -0.208828  0  3.75365  0  0  -0.294642  -0.180349  0  3.737598  0
N  N34  1  0.46209623  0.79959272  0.98327292  1  0  -0.274999  0  3.429514  0  0  -0.191462  0  3.743805  0  0  -0.208839  0  3.753674  0  0  -0.29461  -0.18036  0  3.737616  0
N  N35  1  0.20040386  0.53789610  0.01672622  1  0  -0.274855  0  3.429492  0  0  -0.191314  0  3.743793  0  0  -0.208685  0  3.753653  0  0  -0.294552  -0.180216  0  3.737611  0
N  N36  1  0.56302076  0.07731935  0.10299715  1  0  -0.045628  0  2.879651  0  0  -0.041099  0  3.15149  0  0  -0.039162  0  3.166152  0  0  -0.085037  -0.042536  0  3.142307  0
N  N37  1  0.92267551  0.43697814  0.89700065  1  0  -0.045531  0  2.879589  0  0  -0.041026  0  3.151434  0  0  -0.03908  0  3.166089  0  0  -0.08499  -0.042465  0  3.142248  0
N  N38  1  0.43697876  0.92267486  0.89700125  1  0  -0.045567  0  2.879674  0  0  -0.041066  0  3.151515  0  0  -0.039123  0  3.166175  0  0  -0.085012  -0.042506  0  3.142328  0
N  N39  1  0.07731883  0.56301836  0.10299666  1  0  -0.045637  0  2.879665  0  0  -0.041122  0  3.15151  0  0  -0.039185  0  3.166172  0  0  -0.085053  -0.042559  0  3.142327  0
N  N40  1  0.69255871  0.98388291  0.06621559  1  0  -0.06387  0  3.257025  0  0  -0.015187  0  3.578998  0  0  -0.016027  0  3.580506  0  0  -0.148211  -0.015587  0  3.57916  0
N  N41  1  0.01611246  0.30743941  0.93378110  1  0  -0.063964  0  3.256609  0  0  -0.015244  0  3.578528  0  0  -0.016078  0  3.580037  0  0  -0.148205  -0.015639  0  3.578686  0
N  N42  1  0.30744064  0.01611249  0.93378262  1  0  -0.063924  0  3.256559  0  0  -0.015207  0  3.578485  0  0  -0.016043  0  3.579996  0  0  -0.148208  -0.015601  0  3.578643  0
N  N43  1  0.98388150  0.69255943  0.06621503  1  0  -0.063839  0  3.257106  0  0  -0.015154  0  3.579073  0  0  -0.015994  0  3.580582  0  0  -0.148209  -0.015551  0  3.579233  0
N  N44  1  0.75365466  0.04360847  0.95621709  1  0  -0.260407  0  3.317898  0  0  -0.205062  0  3.648746  0  0  -0.213105  0  3.650809  0  0  -0.282533  -0.200648  0  3.648141  0
N  N45  1  0.95638312  0.24633017  0.04378971  1  0  -0.260472  0  3.317811  0  0  -0.205105  0  3.648629  0  0  -0.213173  0  3.65071  0  0  -0.282583  -0.200691  0  3.648038  0
N  N46  1  0.24633391  0.95638255  0.04379124  1  0  -0.260517  0  3.317696  0  0  -0.205172  0  3.648531  0  0  -0.213238  0  3.650612  0  0  -0.282601  -0.200759  0  3.647942  0
N  N47  1  0.04360594  0.75365725  0.95621919  1  0  -0.260433  0  3.317895  0  0  -0.20508  0  3.648719  0  0  -0.213124  0  3.650783  0  0  -0.282511  -0.200663  0  3.648115  0
N  N48  1  0.01494728  0.01494439  0.71408946  1  0  -0.424922  0  3.344479  0  0  -0.365039  0  3.7175  0  0  -0.37625  0  3.703349  0  0  -0.464985  -0.35792  0  3.726929  0
N  N49  1  0.98505401  0.98505450  0.28592563  1  0  -0.424655  0  3.345625  0  0  -0.364758  0  3.718607  0  0  -0.375947  0  3.704407  0  0  -0.464814  -0.357656  0  3.728056  0
N  N50  1  0.52065179  0.52064938  0.26418637  1  0  -0.406968  0  3.358283  0  0  -0.345515  0  3.7112  0  0  -0.35526  0  3.7027  0  0  -0.456948  -0.339706  0  3.716611  0
N  N51  1  0.47934543  0.47935327  0.73581171  1  0  -0.407127  0  3.358225  0  0  -0.345709  0  3.71123  0  0  -0.355448  0  3.702711  0  0  -0.457034  -0.339907  0  3.716658  0
N  N52  1  0.14337999  0.43482134  0.36447810  1  0  -0.274754  0  3.329593  0  0  -0.219205  0  3.666748  0  0  -0.227996  0  3.667195  0  0  -0.286909  -0.214209  0  3.667076  0
N  N53  1  0.56519118  0.85661750  0.63552123  1  0  -0.274858  0  3.329408  0  0  -0.219312  0  3.666587  0  0  -0.228094  0  3.667038  0  0  -0.286905  -0.214313  0  3.6669  0
N  N54  1  0.85661065  0.56517775  0.63552267  1  0  -0.274784  0  3.329389  0  0  -0.219255  0  3.666636  0  0  -0.228037  0  3.667078  0  0  -0.286944  -0.214257  0  3.666952  0
N  N55  1  0.43482179  0.14338549  0.36447876  1  0  -0.274802  0  3.329353  0  0  -0.219263  0  3.666561  0  0  -0.228049  0  3.667002  0  0  -0.286922  -0.214269  0  3.666886  0
N  N56  1  0.89942611  0.56178432  0.36707213  1  0  -0.26656  0  3.421009  0  0  -0.190778  0  3.73946  0  0  -0.206189  0  3.750067  0  0  -0.292215  -0.181058  0  3.732561  0
N  N57  1  0.43822852  0.10058609  0.63292146  1  0  -0.266351  0  3.420786  0  0  -0.190606  0  3.73924  0  0  -0.206018  0  3.74985  0  0  -0.292075  -0.180904  0  3.732349  0
N  N58  1  0.10057188  0.43822064  0.63292376  1  0  -0.26642  0  3.420876  0  0  -0.190622  0  3.739296  0  0  -0.206031  0  3.749905  0  0  -0.292114  -0.180903  0  3.732393  0
N  N59  1  0.56178191  0.89942509  0.36707423  1  0  -0.266545  0  3.420957  0  0  -0.190776  0  3.739436  0  0  -0.206186  0  3.750044  0  0  -0.292204  -0.181058  0  3.732536  0
N  N60  1  0.89049084  0.40242150  0.38554119  1  0  -0.062086  0  2.86038  0  0  -0.056475  0  3.128856  0  0  -0.056198  0  3.141672  0  0  -0.091347  -0.056635  0  3.120708  0
N  N61  1  0.59758631  0.10952262  0.61445397  1  0  -0.062284  0  2.860436  0  0  -0.056675  0  3.128959  0  0  -0.056385  0  3.141781  0  0  -0.091507  -0.05683  0  3.120802  0
N  N62  1  0.10951179  0.59757636  0.61445677  1  0  -0.062134  0  2.860487  0  0  -0.056519  0  3.128966  0  0  -0.056237  0  3.141784  0  0  -0.09138  -0.056679  0  3.120806  0
N  N63  1  0.40242683  0.89048617  0.38554166  1  0  -0.062085  0  2.860411  0  0  -0.056467  0  3.128892  0  0  -0.056188  0  3.141714  0  0  -0.091357  -0.056627  0  3.120743  0
N  N64  1  0.03671308  0.32744780  0.38467158  1  0  -0.056806  0  3.256808  0  0  -0.014836  0  3.576057  0  0  -0.013262  0  3.580534  0  0  -0.143426  -0.016672  0  3.57365  0
N  N65  1  0.67256157  0.96330037  0.61532619  1  0  -0.056848  0  3.256647  0  0  -0.014885  0  3.575933  0  0  -0.013341  0  3.580438  0  0  -0.143425  -0.016714  0  3.573481  0
N  N66  1  0.96329056  0.67255262  0.61532817  1  0  -0.056816  0  3.256583  0  0  -0.01487  0  3.575888  0  0  -0.013304  0  3.580369  0  0  -0.143423  -0.016698  0  3.573441  0
N  N67  1  0.32745057  0.03670861  0.38467283  1  0  -0.056803  0  3.256614  0  0  -0.014845  0  3.575897  0  0  -0.013275  0  3.580379  0  0  -0.143441  -0.01668  0  3.573486  0
