# generated using pymatgen
data_ZnH16C34(NO6)2
_symmetry_space_group_name_H-M   'P 1'
_cell_length_a   14.51249904
_cell_length_b   15.22063532
_cell_length_c   27.93292819
_cell_angle_alpha   92.68217390
_cell_angle_beta   89.64518435
_cell_angle_gamma   90.21365686
_symmetry_Int_Tables_number   1
_chemical_formula_structural   ZnH16C34(NO6)2
_chemical_formula_sum   'Zn2 H32 C68 N4 O24'
_cell_volume   6163.17514864
_cell_formula_units_Z   2
loop_
 _symmetry_equiv_pos_site_id
 _symmetry_equiv_pos_as_xyz
  1  'x, y, z'
loop_
 _atom_site_type_symbol
 _atom_site_label
 _atom_site_symmetry_multiplicity
 _atom_site_fract_x
 _atom_site_fract_y
 _atom_site_fract_z
 _atom_site_occupancy
 _atom_site_pbe_bader_charge
 _atom_site_pbe_bader_spin_density
 _atom_site_pbe_cm5_charge
 _atom_site_pbe_ddec_charge
 _atom_site_pbe_ddec_spin_density
 _atom_site_pbe_ddec_sum_bond_order
 _atom_site_pbe_magmom
Zn  Zn0  1  0.40002638  0.50059552  0.49937507  1  1.312334  0  0.679661  0.873224  0  2.343618  0
Zn  Zn1  1  0.60321948  0.50083453  0.50175421  1  1.328056  0  0.676233  0.873676  0  2.315431  0
H  H2  1  0.66422202  0.55541672  0.34939889  1  0.117025  0  0.103355  0.109867  0  1.009871  0
H  H3  1  0.65267594  0.46016685  0.65484200  1  0.127216  0  0.104894  0.116631  0  1.009239  0
H  H4  1  0.34510415  0.22284643  0.52725697  1  0.086776  0  0.101507  0.109043  0  1.008658  0
H  H5  1  0.62674200  0.77715437  0.51832134  1  0.109407  0  0.101313  0.109134  0  1.012224  0
H  H6  1  0.34466239  0.77654902  0.47387107  1  0.091285  0  0.100812  0.107681  0  1.016247  0
H  H7  1  0.62181970  0.22736135  0.47259909  1  0.13649  0  0.10576  0.123419  0  1.012267  0
H  H8  1  0.47686803  0.27872332  0.12161742  1  0.125344  0  0.117207  0.122228  0  0.97852  0
H  H9  1  0.50019927  0.70558133  0.87958938  1  0.116558  0  0.118448  0.123648  0  0.978247  0
H  H10  1  0.34955134  0.51078114  0.73595598  1  0.072262  0  0.10991  0.116923  0  0.977301  0
H  H11  1  0.38355153  0.45450942  0.26124686  1  0.085673  0  0.109825  0.118033  0  0.979107  0
H  H12  1  0.47010363  0.27105323  0.03303937  1  0.071253  0  0.110409  0.110383  0  0.998592  0
H  H13  1  0.51278787  0.71172984  0.96814944  1  0.072194  0  0.109939  0.109561  0  0.998628  0
H  H14  1  0.93336590  0.43806129  0.42798566  1  0.105957  0  0.120587  0.133899  0  0.982231  0
H  H15  1  0.06832326  0.62890552  0.53522015  1  0.110079  0  0.120661  0.133452  0  0.982565  0
H  H16  1  0.93815929  0.56142612  0.57036381  1  0.100346  0  0.122839  0.136625  0  0.98026  0
H  H17  1  0.06887646  0.37422754  0.46036654  1  0.120328  0  0.120729  0.133488  0  0.98128  0
H  H18  1  0.74417335  0.39655440  0.35776141  1  0.610779  0  0.353614  0.393456  0  0.836652  0
H  H19  1  0.25824521  0.76180091  0.55798418  1  0.625247  0  0.353687  0.393156  0  0.836815  0
H  H20  1  0.67784197  0.66797832  0.60118044  1  0.645711  0  0.362643  0.40106  0  0.816353  0
H  H21  1  0.26168217  0.24080882  0.44113986  1  0.635283  0  0.353502  0.393115  0  0.837566  0
H  H22  1  0.66112428  0.55500893  0.25968010  1  0.090192  0  0.109849  0.120704  0  0.980583  0
H  H23  1  0.63868051  0.45228036  0.74410193  1  0.082472  0  0.10976  0.117358  0  0.979014  0
H  H24  1  0.36397003  0.51732735  0.64626931  1  0.13179  0  0.107466  0.121161  0  1.005564  0
H  H25  1  0.38692567  0.45685783  0.35113416  1  0.130922  0  0.107994  0.125034  0  1.010342  0
H  H26  1  0.54554391  0.14740734  0.83836160  1  0.623786  0  0.351938  0.392497  0  0.835721  0
H  H27  1  0.54157321  0.84737386  0.15099659  1  0.60646  0  0.351072  0.390361  0  0.838265  0
H  H28  1  0.48299545  0.26615354  0.96275134  1  0.066  0  0.112445  0.115792  0  1.000067  0
H  H29  1  0.55624517  0.70965911  0.03516128  1  0.079123  0  0.112245  0.115572  0  0.998722  0
H  H30  1  0.34956905  0.05901217  0.52710760  1  0.036516  0  0.096803  0.09504  0  1.011563  0
H  H31  1  0.62994972  0.94139034  0.51874340  1  0.071786  0  0.100208  0.098504  0  1.005684  0
H  H32  1  0.34749400  0.94021706  0.47235532  1  0.050718  0  0.097842  0.096401  0  1.010059  0
H  H33  1  0.62611461  0.06304190  0.47016554  1  0.052552  0  0.100701  0.099384  0  1.003362  0
C  C34  1  0.47989723  0.33246587  0.49912934  1  1.524582  0  0.216859  0.599459  0  4.154884  0
C  C35  1  0.48200071  0.66952395  0.49981558  1  1.57464  0  0.2144  0.596156  0  4.16452  0
C  C36  1  0.51446375  0.49506166  0.10201242  1  -0.004169  0  0.007008  0.043494  0  4.007315  0
C  C37  1  0.49258054  0.48578278  0.89760954  1  0.01912  0  0.006543  0.040633  0  4.001364  0
C  C38  1  0.50209436  0.41701918  0.12699600  1  -0.064556  0  -0.010472  -0.074195  0  4.001128  0
C  C39  1  0.49407088  0.56548148  0.87334756  1  -0.051033  0  -0.008316  -0.069382  0  3.995931  0
C  C40  1  0.48612448  0.33785940  0.10153168  1  0.081542  0  -0.065771  -0.063289  0  3.967899  0
C  C41  1  0.50037274  0.64538488  0.89925494  1  -0.031687  0  -0.064979  -0.063217  0  3.967297  0
C  C42  1  0.53272114  0.57536252  0.12799724  1  0.05031  0  -0.005319  -0.094708  0  3.97289  0
C  C43  1  0.48610367  0.40433495  0.87099129  1  0.008183  0  -0.003223  -0.091753  0  3.959661  0
C  C44  1  0.52612326  0.50499366  0.35529397  1  -0.12173  0  -0.016369  -0.032857  0  3.965562  0
C  C45  1  0.50880626  0.48896960  0.64564929  1  0.098605  0  -0.016648  -0.036586  0  3.964512  0
C  C46  1  0.49303271  0.40741086  0.97284165  1  -0.027347  0  0.008755  0.047053  0  3.980598  0
C  C47  1  0.52040678  0.57211554  0.02651561  1  0.045399  0  0.00904  0.051174  0  3.979002  0
C  C48  1  0.50894577  0.57077409  0.97451229  1  -0.081776  0  0.006953  0.04123  0  3.974333  0
C  C49  1  0.49453550  0.40991958  0.02530771  1  -0.067969  0  0.007817  0.045452  0  3.966057  0
C  C50  1  0.49826426  0.48808404  0.94873871  1  0.018319  0  0.006396  0.001776  0  3.919548  0
C  C51  1  0.50950076  0.49222976  0.05085574  1  -0.013563  0  0.005855  -0.000283  0  3.916166  0
C  C52  1  0.48624878  0.32862751  0.94536215  1  0.014755  0  -0.072601  -0.141793  0  3.918842  0
C  C53  1  0.54272352  0.64905956  0.05324039  1  -0.0302  0  -0.073821  -0.144448  0  3.919639  0
C  C54  1  0.48409203  0.32621040  0.89510506  1  -0.023913  0  0.012702  0.003365  0  3.926686  0
C  C55  1  0.54960953  0.65131161  0.10331309  1  0.000538  0  0.012717  0.002128  0  3.934218  0
C  C56  1  0.52737945  0.50370750  0.40890606  1  1.589852  0  0.217903  0.600455  0  4.152897  0
C  C57  1  0.51636374  0.49528758  0.59241955  1  1.547871  0  0.216171  0.595815  0  4.163427  0
C  C58  1  0.48267222  0.33446844  0.05152665  1  -0.044262  0  -0.078277  -0.118364  0  3.962227  0
C  C59  1  0.50791041  0.64785121  0.94909164  1  0.027418  0  -0.077646  -0.116355  0  3.96405  0
C  C60  1  0.40852303  0.09557208  0.51387418  1  -0.000913  0  -0.097889  -0.143119  0  4.01167  0
C  C61  1  0.56738729  0.90545272  0.50851216  1  -0.023193  0  -0.092348  -0.135703  0  3.99112  0
C  C62  1  0.40820131  0.90480840  0.48368172  1  0.009431  0  -0.096943  -0.142601  0  4.007884  0
C  C63  1  0.56471931  0.09785697  0.48329015  1  -0.054554  0  -0.091114  -0.13434  0  3.988639  0
C  C64  1  0.40585560  0.18688986  0.51438718  1  -0.088227  0  -0.092941  -0.105975  0  4.016344  0
C  C65  1  0.56583095  0.81408570  0.50884730  1  -0.081425  0  -0.086955  -0.088987  0  3.988772  0
C  C66  1  0.40634780  0.81356106  0.48419096  1  -0.096277  0  -0.092639  -0.100949  0  4.011939  0
C  C67  1  0.56264467  0.18930217  0.48415094  1  -0.025232  0  -0.082228  -0.084262  0  3.959884  0
C  C68  1  0.48274596  0.23434563  0.49919750  1  -0.027544  0  -0.019944  -0.032362  0  3.972957  0
C  C69  1  0.48482234  0.76741988  0.49749022  1  -0.008185  0  -0.022644  -0.037412  0  3.979714  0
C  C70  1  0.48757899  0.04943358  0.49782272  1  0.029523  0  -0.007783  0.06876  0  4.014802  0
C  C71  1  0.48817873  0.95251858  0.49658365  1  -0.104282  0  -0.005282  0.075017  0  4.008161  0
C  C72  1  0.89994156  0.46489432  0.46045425  1  0.046362  0  -0.067488  -0.185063  0  3.882615  0
C  C73  1  0.10312619  0.57157061  0.51897424  1  -0.053881  0  -0.067135  -0.185482  0  3.886452  0
C  C74  1  0.90285398  0.53527836  0.53846417  1  -0.079434  0  -0.064553  -0.183854  0  3.892145  0
C  C75  1  0.10335397  0.43183245  0.47655954  1  -0.009941  0  -0.067391  -0.185346  0  3.885197  0
C  C76  1  0.80400344  0.46252405  0.46388887  1  0.513912  0  0.139707  0.158677  0  3.893659  0
C  C77  1  0.19911141  0.56783639  0.51980931  1  0.554677  0  0.140785  0.159928  0  3.898972  0
C  C78  1  0.80673331  0.53541814  0.53800173  1  0.58874  0  0.140472  0.157412  0  3.896107  0
C  C79  1  0.19945398  0.43539571  0.47639448  1  0.533682  0  0.14199  0.160671  0  3.897639  0
C  C80  1  0.95154990  0.50091199  0.49867251  1  -0.01712  0  0.020584  0.12163  0  3.995667  0
C  C81  1  0.05311343  0.50158510  0.49776981  1  0.002251  0  0.020903  0.122579  0  3.9959  0
C  C82  1  0.50710143  0.41759886  0.17988815  1  1.342364  0  0.241478  0.438501  0  4.100609  0
C  C83  1  0.49103343  0.56561819  0.82045943  1  1.346002  0  0.241511  0.433537  0  4.10797  0
C  C84  1  0.53327583  0.58008012  0.18088278  1  1.288171  0  0.243768  0.439443  0  4.099526  0
C  C85  1  0.48177229  0.40144024  0.81805644  1  1.377983  0  0.243843  0.435081  0  4.103845  0
C  C86  1  0.44473110  0.47674864  0.28076239  1  -0.031602  0  -0.083652  -0.148497  0  3.975315  0
C  C87  1  0.41535583  0.49894430  0.71778765  1  0.057363  0  -0.083218  -0.150813  0  3.976424  0
C  C88  1  0.44646282  0.47782234  0.33058189  1  0.026381  0  -0.077123  -0.073184  0  3.943023  0
C  C89  1  0.42315578  0.50252995  0.66823880  1  -0.141232  0  -0.076817  -0.07014  0  3.945735  0
C  C90  1  0.60339379  0.53285534  0.32970161  1  0.015565  0  -0.087665  -0.094006  0  3.996296  0
C  C91  1  0.58652509  0.47033186  0.67282933  1  -0.054215  0  -0.080598  -0.077417  0  3.964681  0
C  C92  1  0.60180798  0.53229731  0.27981362  1  -0.059293  0  -0.089178  -0.159829  0  3.990976  0
C  C93  1  0.57882242  0.46630183  0.72237912  1  0.01005  0  -0.086119  -0.15614  0  3.9778  0
C  C94  1  0.52261355  0.50337872  0.25561446  1  0.332295  0  0.088596  0.194884  0  4.013422  0
C  C95  1  0.49350076  0.48138080  0.74442064  1  0.246213  0  0.089365  0.191642  0  4.022517  0
C  C96  1  0.75538482  0.40765186  0.42523756  1  1.579697  0  0.239565  0.54947  0  4.145383  0
C  C97  1  0.24673674  0.63803923  0.55075279  1  1.573069  0  0.240605  0.549927  0  4.141011  0
C  C98  1  0.76249743  0.57867710  0.58215226  1  1.581114  0  0.241605  0.555601  0  4.14962  0
C  C99  1  0.24828306  0.36454165  0.44634216  1  1.579552  0  0.240998  0.552956  0  4.143035  0
C  C100  1  0.47508521  0.23713009  0.86972699  1  1.576277  0  0.232786  0.588667  0  4.147736  0
C  C101  1  0.58245459  0.73553803  0.12810600  1  1.575391  0  0.233388  0.590623  0  4.147916  0
N  N102  1  0.52102995  0.50045656  0.20390512  1  -1.197366  0  -0.227483  -0.219251  0  3.581835  0
N  N103  1  0.48802919  0.48241714  0.79611759  1  -1.178528  0  -0.229221  -0.205868  0  3.57828  0
N  N104  1  0.75654411  0.49886995  0.50162353  1  -1.178714  0  -0.270249  -0.227544  0  3.324044  0
N  N105  1  0.24786182  0.50148113  0.49832975  1  -1.159501  0  -0.271535  -0.228872  0  3.343635  0
O  O106  1  0.40007534  0.36826474  0.50127698  1  -1.153014  0  -0.322161  -0.558927  0  2.362845  0
O  O107  1  0.55788602  0.63044685  0.50550404  1  -1.172326  0  -0.316108  -0.556396  0  2.373505  0
O  O108  1  0.40259120  0.63279332  0.49626040  1  -1.166998  0  -0.321679  -0.556043  0  2.361588  0
O  O109  1  0.55627425  0.37267713  0.49688731  1  -1.16467  0  -0.310228  -0.5441  0  2.374715  0
O  O110  1  0.45041436  0.49583433  0.42984276  1  -1.169046  0  -0.309209  -0.544442  0  2.374861  0
O  O111  1  0.59742112  0.49321483  0.57391239  1  -1.16045  0  -0.322511  -0.561928  0  2.360314  0
O  O112  1  0.44186949  0.50286252  0.56963191  1  -1.173037  0  -0.311526  -0.546826  0  2.391631  0
O  O113  1  0.60601065  0.51022126  0.42947659  1  -1.157717  0  -0.321212  -0.559644  0  2.351354  0
O  O114  1  0.49960282  0.35032174  0.20236115  1  -1.092339  0  -0.280388  -0.440414  0  2.070824  0
O  O115  1  0.49245709  0.63350118  0.79827403  1  -1.100049  0  -0.280996  -0.439456  0  2.06303  0
O  O116  1  0.47360298  0.33203902  0.79398317  1  -1.078101  0  -0.263887  -0.420429  0  2.097893  0
O  O117  1  0.54309678  0.65030372  0.20406098  1  -1.082175  0  -0.261418  -0.419252  0  2.105778  0
O  O118  1  0.71226364  0.34130130  0.43308594  1  -1.100167  0  -0.257574  -0.434375  0  2.135468  0
O  O119  1  0.77740465  0.43498435  0.38104681  1  -1.10119  0  -0.328907  -0.481241  0  2.243603  0
O  O120  1  0.28906743  0.62276857  0.58674057  1  -1.093736  0  -0.25575  -0.430417  0  2.126186  0
O  O121  1  0.22571407  0.71953385  0.53644707  1  -1.115901  0  -0.329652  -0.481145  0  2.237355  0
O  O122  1  0.78218199  0.55715949  0.62229198  1  -1.104484  0  -0.277703  -0.464716  0  2.076882  0
O  O123  1  0.70930985  0.64714079  0.57161818  1  -1.126307  0  -0.313519  -0.453182  0  2.290388  0
O  O124  1  0.29206193  0.37915558  0.41039262  1  -1.098935  0  -0.257057  -0.434712  0  2.128836  0
O  O125  1  0.22687574  0.28355508  0.46142127  1  -1.119947  0  -0.329386  -0.480362  0  2.238996  0
O  O126  1  0.40286849  0.19614322  0.86756247  1  -1.115645  0  -0.293732  -0.478933  0  2.031634  0
O  O127  1  0.55787719  0.20445048  0.85494185  1  -1.11504  0  -0.338565  -0.48673  0  2.200687  0
O  O128  1  0.66346392  0.75085121  0.13617303  1  -1.114698  0  -0.294206  -0.47957  0  2.032564  0
O  O129  1  0.51376625  0.79511902  0.13494439  1  -1.106279  0  -0.337972  -0.485219  0  2.196366  0
