# generated using pymatgen
data_DyH7C8NO8
_symmetry_space_group_name_H-M   'P 1'
_cell_length_a   7.46545933
_cell_length_b   9.84083819
_cell_length_c   14.68877414
_cell_angle_alpha   89.99997946
_cell_angle_beta   97.79913568
_cell_angle_gamma   90.00013690
_symmetry_Int_Tables_number   1
_chemical_formula_structural   DyH7C8NO8
_chemical_formula_sum   'Dy4 H28 C32 N4 O32'
_cell_volume   1069.14893982
_cell_formula_units_Z   4
loop_
 _symmetry_equiv_pos_site_id
 _symmetry_equiv_pos_as_xyz
  1  'x, y, z'
loop_
 _atom_site_type_symbol
 _atom_site_label
 _atom_site_symmetry_multiplicity
 _atom_site_fract_x
 _atom_site_fract_y
 _atom_site_fract_z
 _atom_site_occupancy
 _atom_site_hle17_bader_spin_density
 _atom_site_hle17_ddec_charge
 _atom_site_hle17_ddec_spin_density
 _atom_site_hle17_ddec_sum_bond_order
 _atom_site_hle17_magmom
 _atom_site_hse06_10hf_bader_spin_density
 _atom_site_hse06_10hf_ddec_charge
 _atom_site_hse06_10hf_ddec_spin_density
 _atom_site_hse06_10hf_ddec_sum_bond_order
 _atom_site_hse06_10hf_magmom
 _atom_site_hse06_bader_spin_density
 _atom_site_hse06_ddec_charge
 _atom_site_hse06_ddec_spin_density
 _atom_site_hse06_ddec_sum_bond_order
 _atom_site_hse06_magmom
 _atom_site_pbe_bader_spin_density
 _atom_site_pbe_cm5_charge
 _atom_site_pbe_ddec_charge
 _atom_site_pbe_ddec_spin_density
 _atom_site_pbe_ddec_sum_bond_order
 _atom_site_pbe_magmom
Dy  Dy0  1  0.35393935  0.45553452  0.64238708  1  0  2.304207  0  1.658271  0  0  2.235314  0  1.995711  0  0  2.281625  0  1.952631  0  0  1.51684  2.128695  0  2.164081  0
Dy  Dy1  1  0.14606152  0.95553640  0.85761304  1  0  2.304153  0  1.658309  0  0  2.235255  0  1.995749  0  0  2.281566  0  1.952668  0  0  1.516771  2.128668  0  2.164056  0
Dy  Dy2  1  0.64605839  0.54446327  0.35761369  1  0  2.304211  0  1.658268  0  0  2.235322  0  1.995707  0  0  2.281634  0  1.952624  0  0  1.516802  2.128763  0  2.163972  0
Dy  Dy3  1  0.85394030  0.04446139  0.14238462  1  0  2.304173  0  1.658344  0  0  2.235289  0  1.995793  0  0  2.281601  0  1.952713  0  0  1.516745  2.128736  0  2.164056  0
H  H4  1  0.20854028  0.38014562  0.14978723  1  0  0.10317  0  0.924491  0  0  0.109665  0  0.988854  0  0  0.113726  0  0.984282  0  0  0.124255  0.106267  0  0.993023  0
H  H5  1  0.29145842  0.88014573  0.35021237  1  0  0.103204  0  0.924511  0  0  0.10971  0  0.988864  0  0  0.11377  0  0.984294  0  0  0.124287  0.10632  0  0.993023  0
H  H6  1  0.79146554  0.61985827  0.85021684  1  0  0.103127  0  0.924526  0  0  0.109641  0  0.988868  0  0  0.113701  0  0.984298  0  0  0.124254  0.106283  0  0.992993  0
H  H7  1  0.70853797  0.11985714  0.64978763  1  0  0.103192  0  0.924431  0  0  0.109687  0  0.988805  0  0  0.113747  0  0.984232  0  0  0.124262  0.106283  0  0.992981  0
H  H8  1  0.16843387  0.38176111  0.85388313  1  0  0.123759  0  0.923678  0  0  0.129604  0  0.990545  0  0  0.134903  0  0.984321  0  0  0.126545  0.125904  0  0.994573  0
H  H9  1  0.33157760  0.88175836  0.64611640  1  0  0.123687  0  0.923619  0  0  0.129557  0  0.990483  0  0  0.134858  0  0.984252  0  0  0.126525  0.125855  0  0.994513  0
H  H10  1  0.83156792  0.61823770  0.14611793  1  0  0.123795  0  0.923694  0  0  0.129636  0  0.990566  0  0  0.134937  0  0.984338  0  0  0.126542  0.125935  0  0.994598  0
H  H11  1  0.66842961  0.11823537  0.35388369  1  0  0.123713  0  0.923635  0  0  0.129582  0  0.990492  0  0  0.134885  0  0.984261  0  0  0.126491  0.125882  0  0.994523  0
H  H12  1  0.39274390  0.71658667  0.02038921  1  0  0.087171  0  0.961124  0  0  0.09422  0  1.027287  0  0  0.096838  0  1.024907  0  0  0.120275  0.091924  0  1.029604  0
H  H13  1  0.10725429  0.21658213  0.47961039  1  0  0.087156  0  0.96109  0  0  0.0942  0  1.027254  0  0  0.096819  0  1.024873  0  0  0.120245  0.091905  0  1.02957  0
H  H14  1  0.60725927  0.28341416  0.97960923  1  0  0.087201  0  0.961101  0  0  0.09424  0  1.027271  0  0  0.096859  0  1.024889  0  0  0.120257  0.091945  0  1.029588  0
H  H15  1  0.89274070  0.78341667  0.52039427  1  0  0.08717  0  0.961179  0  0  0.09426  0  1.027309  0  0  0.096879  0  1.024928  0  0  0.120265  0.091964  0  1.029627  0
H  H16  1  0.03653180  0.72918875  0.70828128  1  0  0.45163  0  0.816558  0  0  0.425968  0  0.87513  0  0  0.435451  0  0.861081  0  0  0.313442  0.418412  0  0.886219  0
H  H17  1  0.46346700  0.22919004  0.79171943  1  0  0.451624  0  0.816568  0  0  0.425958  0  0.875144  0  0  0.435442  0  0.86109  0  0  0.313437  0.418402  0  0.88623  0
H  H18  1  0.96346730  0.27081107  0.29171823  1  0  0.45162  0  0.81654  0  0  0.425962  0  0.87513  0  0  0.435446  0  0.86108  0  0  0.313445  0.418408  0  0.886217  0
H  H19  1  0.53653074  0.77081079  0.20828067  1  0  0.45165  0  0.816529  0  0  0.425988  0  0.875101  0  0  0.435474  0  0.861047  0  0  0.313444  0.418435  0  0.886184  0
H  H20  1  0.92198604  0.86522168  0.68028698  1  0  0.39194  0  0.932155  0  0  0.349131  0  1.016079  0  0  0.360978  0  0.999216  0  0  0.28306  0.340497  0  1.028182  0
H  H21  1  0.57801420  0.36522225  0.81971380  1  0  0.391894  0  0.932225  0  0  0.349076  0  1.016161  0  0  0.360924  0  0.999302  0  0  0.283048  0.340444  0  1.028263  0
H  H22  1  0.07801169  0.13477712  0.31971448  1  0  0.391938  0  0.93215  0  0  0.349124  0  1.016082  0  0  0.360972  0  0.999223  0  0  0.28306  0.340493  0  1.028181  0
H  H23  1  0.42198490  0.63477757  0.18028503  1  0  0.391943  0  0.932145  0  0  0.349128  0  1.016078  0  0  0.360977  0  0.999215  0  0  0.283066  0.340496  0  1.028181  0
H  H24  1  0.75948563  0.94652555  0.79385716  1  0  0.438353  0  0.800485  0  0  0.423351  0  0.849613  0  0  0.431199  0  0.841084  0  0  0.333299  0.417389  0  0.855231  0
H  H25  1  0.74051215  0.44652851  0.70614478  1  0  0.438371  0  0.800467  0  0  0.423371  0  0.849592  0  0  0.431219  0  0.841059  0  0  0.333313  0.41741  0  0.85521  0
H  H26  1  0.24051749  0.05347122  0.20614673  1  0  0.438354  0  0.800505  0  0  0.423363  0  0.84961  0  0  0.43121  0  0.841082  0  0  0.333341  0.417404  0  0.855224  0
H  H27  1  0.25948153  0.55347334  0.29385570  1  0  0.438363  0  0.800558  0  0  0.423364  0  0.84967  0  0  0.431211  0  0.841146  0  0  0.333347  0.417405  0  0.855285  0
H  H28  1  0.79058796  0.05796405  0.86982063  1  0  0.440821  0  0.853442  0  0  0.408359  0  0.919627  0  0  0.420022  0  0.902406  0  0  0.303291  0.399818  0  0.932007  0
H  H29  1  0.70941268  0.55796718  0.63018025  1  0  0.440814  0  0.85346  0  0  0.408348  0  0.919646  0  0  0.420011  0  0.902425  0  0  0.303287  0.399806  0  0.932028  0
H  H30  1  0.20940840  0.94203272  0.13018277  1  0  0.440847  0  0.853392  0  0  0.408378  0  0.919603  0  0  0.420041  0  0.902381  0  0  0.303314  0.399835  0  0.931986  0
H  H31  1  0.29058508  0.44203162  0.36981781  1  0  0.440809  0  0.853413  0  0  0.408347  0  0.919631  0  0  0.420011  0  0.90241  0  0  0.303299  0.399805  0  0.932013  0
C  C32  1  0.22808666  0.42974610  0.08539552  1  0  0.139564  0  3.641034  0  0  0.096186  0  3.896604  0  0  0.105569  0  3.912207  0  0  0.062138  0.090004  0  3.887267  0
C  C33  1  0.27191220  0.92974310  0.41460339  1  0  0.139536  0  3.640937  0  0  0.096123  0  3.896544  0  0  0.105507  0  3.912142  0  0  0.062098  0.089937  0  3.887205  0
C  C34  1  0.77192054  0.57025575  0.91460593  1  0  0.139638  0  3.641083  0  0  0.096269  0  3.89665  0  0  0.105653  0  3.912252  0  0  0.062166  0.090056  0  3.887298  0
C  C35  1  0.72808418  0.07025571  0.58539796  1  0  0.139586  0  3.640786  0  0  0.096194  0  3.896366  0  0  0.105577  0  3.911968  0  0  0.062131  0.090012  0  3.887026  0
C  C36  1  0.17524788  0.36540399  0.00098370  1  0  -0.126216  0  3.723873  0  0  -0.09984  0  3.961206  0  0  -0.114106  0  3.986022  0  0  -0.010925  -0.091695  0  3.946784  0
C  C37  1  0.32475619  0.86540104  0.49901560  1  0  -0.126232  0  3.723849  0  0  -0.0998  0  3.961191  0  0  -0.114071  0  3.986004  0  0  -0.010858  -0.091652  0  3.946773  0
C  C38  1  0.82474986  0.63460091  0.99901639  1  0  -0.126298  0  3.723674  0  0  -0.099943  0  3.96104  0  0  -0.114212  0  3.985851  0  0  -0.010933  -0.091799  0  3.946629  0
C  C39  1  0.67524156  0.13459573  0.50098313  1  0  -0.126218  0  3.723773  0  0  -0.099826  0  3.961116  0  0  -0.114098  0  3.985931  0  0  -0.010948  -0.091681  0  3.94669  0
C  C40  1  0.20497933  0.43141137  0.92014552  1  0  -0.002626  0  3.646583  0  0  -0.04476  0  3.897356  0  0  -0.03704  0  3.912126  0  0  -0.04507  -0.049475  0  3.888657  0
C  C41  1  0.29502554  0.93140960  0.57985285  1  0  -0.002534  0  3.64648  0  0  -0.044691  0  3.897295  0  0  -0.036968  0  3.912063  0  0  -0.045074  -0.049404  0  3.88859  0
C  C42  1  0.79501974  0.56858845  0.07985739  1  0  -0.002605  0  3.646349  0  0  -0.044753  0  3.897102  0  0  -0.037034  0  3.91187  0  0  -0.045044  -0.049472  0  3.88841  0
C  C43  1  0.70497491  0.06858616  0.42014676  1  0  -0.002589  0  3.646407  0  0  -0.044731  0  3.897188  0  0  -0.03701  0  3.911957  0  0  -0.045016  -0.049447  0  3.888489  0
C  C44  1  0.28025233  0.56147556  0.92605621  1  0  -0.130816  0  3.742685  0  0  -0.105687  0  3.983033  0  0  -0.119433  0  4.00665  0  0  -0.008127  -0.097619  0  3.968938  0
C  C45  1  0.21975137  0.06147144  0.57394421  1  0  -0.130679  0  3.742406  0  0  -0.105571  0  3.982841  0  0  -0.119316  0  4.006457  0  0  -0.008054  -0.097507  0  3.968747  0
C  C46  1  0.71975353  0.43852426  0.07394378  1  0  -0.130754  0  3.742735  0  0  -0.105556  0  3.983001  0  0  -0.1193  0  4.006616  0  0  -0.008106  -0.09749  0  3.968912  0
C  C47  1  0.78024907  0.93852330  0.42605744  1  0  -0.130621  0  3.742239  0  0  -0.105508  0  3.982684  0  0  -0.119252  0  4.006298  0  0  -0.008088  -0.097442  0  3.968593  0
C  C48  1  0.33045340  0.61666423  0.01337669  1  0  0.13589  0  3.673035  0  0  0.09131  0  3.929672  0  0  0.100995  0  3.945803  0  0  0.060162  0.084888  0  3.92001  0
C  C49  1  0.16955126  0.11666184  0.48662204  1  0  0.13587  0  3.672951  0  0  0.091317  0  3.929593  0  0  0.101  0  3.945723  0  0  0.060208  0.084899  0  3.919931  0
C  C50  1  0.66954840  0.38333660  0.98662370  1  0  0.135749  0  3.673018  0  0  0.09117  0  3.929622  0  0  0.100855  0  3.945751  0  0  0.060157  0.08475  0  3.919958  0
C  C51  1  0.83045187  0.88333595  0.51338048  1  0  0.135761  0  3.67296  0  0  0.091109  0  3.92968  0  0  0.100793  0  3.945811  0  0  0.060111  0.084687  0  3.920015  0
C  C52  1  0.09125575  0.22679046  0.99859828  1  0  0.743274  0  3.861215  0  0  0.696154  0  4.153936  0  0  0.732276  0  4.142569  0  0  0.238146  0.670676  0  4.157471  0
C  C53  1  0.40875255  0.72678894  0.50139902  1  0  0.743346  0  3.861037  0  0  0.696134  0  4.153883  0  0  0.732269  0  4.142491  0  0  0.23816  0.670642  0  4.157438  0
C  C54  1  0.90875688  0.77320733  0.00140083  1  0  0.743292  0  3.860997  0  0  0.696173  0  4.153729  0  0  0.732304  0  4.142344  0  0  0.238239  0.670695  0  4.157261  0
C  C55  1  0.59124520  0.27320783  0.49859971  1  0  0.743174  0  3.861007  0  0  0.696033  0  4.153761  0  0  0.732169  0  4.142366  0  0  0.238202  0.670554  0  4.157293  0
C  C56  1  0.30956489  0.64186510  0.84253745  1  0  0.749112  0  3.851782  0  0  0.703128  0  4.140995  0  0  0.739233  0  4.129434  0  0  0.244841  0.67772  0  4.144679  0
C  C57  1  0.19044046  0.14186901  0.65745694  1  0  0.749173  0  3.851591  0  0  0.703133  0  4.140928  0  0  0.739238  0  4.129365  0  0  0.244865  0.677731  0  4.144607  0
C  C58  1  0.69043691  0.35813472  0.15746225  1  0  0.749254  0  3.851579  0  0  0.703245  0  4.140827  0  0  0.739349  0  4.129264  0  0  0.244917  0.677832  0  4.144527  0
C  C59  1  0.80956811  0.85813081  0.34254256  1  0  0.749072  0  3.85129  0  0  0.703065  0  4.140607  0  0  0.739168  0  4.129045  0  0  0.244814  0.677655  0  4.144298  0
C  C60  1  0.54487878  0.03156057  0.96058851  1  0  0.560792  0  3.916185  0  0  0.517481  0  4.219308  0  0  0.547144  0  4.209422  0  0  0.216875  0.497571  0  4.218702  0
C  C61  1  0.95512043  0.53155403  0.53941228  1  0  0.560649  0  3.916295  0  0  0.517311  0  4.219479  0  0  0.546975  0  4.209596  0  0  0.216807  0.497401  0  4.218865  0
C  C62  1  0.45510683  0.96845145  0.03940664  1  0  0.5605  0  3.916378  0  0  0.517295  0  4.219366  0  0  0.546957  0  4.209487  0  0  0.216889  0.497387  0  4.218754  0
C  C63  1  0.04488271  0.46844884  0.46058888  1  0  0.56052  0  3.916234  0  0  0.517285  0  4.219299  0  0  0.546949  0  4.209417  0  0  0.216827  0.497376  0  4.218684  0
N  N64  1  0.30746743  0.55244710  0.09140143  1  0  -0.310875  0  3.16116  0  0  -0.245084  0  3.414693  0  0  -0.261209  0  3.429736  0  0  -0.304822  -0.234788  0  3.405639  0
N  N65  1  0.19252889  0.05244580  0.40859876  1  0  -0.310941  0  3.161167  0  0  -0.245143  0  3.414709  0  0  -0.261262  0  3.429749  0  0  -0.304877  -0.234858  0  3.405667  0
N  N66  1  0.69252897  0.44755678  0.90859652  1  0  -0.310811  0  3.16109  0  0  -0.245036  0  3.414605  0  0  -0.261158  0  3.429648  0  0  -0.304832  -0.234742  0  3.405566  0
N  N67  1  0.80746342  0.94755402  0.59140367  1  0  -0.310871  0  3.16116  0  0  -0.245046  0  3.414706  0  0  -0.261167  0  3.429746  0  0  -0.304763  -0.234747  0  3.405648  0
O  O68  1  0.02729594  0.18947472  0.07020901  1  0  -0.75626  0  2.095074  0  0  -0.720335  0  2.360518  0  0  -0.746134  0  2.348225  0  0  -0.408251  -0.690988  0  2.371506  0
O  O69  1  0.47271032  0.68948122  0.42978777  1  0  -0.756311  0  2.095142  0  0  -0.72032  0  2.360548  0  0  -0.746121  0  2.348245  0  0  -0.408253  -0.690978  0  2.371561  0
O  O70  1  0.97271129  0.81051900  0.92978972  1  0  -0.756191  0  2.095166  0  0  -0.72023  0  2.360531  0  0  -0.746031  0  2.348231  0  0  -0.40824  -0.69089  0  2.371539  0
O  O71  1  0.52728881  0.31051961  0.57020902  1  0  -0.75618  0  2.095263  0  0  -0.720224  0  2.360664  0  0  -0.746025  0  2.348363  0  0  -0.408234  -0.69087  0  2.371662  0
O  O72  1  0.09140560  0.15761649  0.92596023  1  0  -0.734576  0  2.062469  0  0  -0.694947  0  2.319333  0  0  -0.720245  0  2.306232  0  0  -0.399656  -0.666108  0  2.330988  0
O  O73  1  0.40860519  0.65760681  0.57403658  1  0  -0.734613  0  2.062312  0  0  -0.694983  0  2.319268  0  0  -0.720285  0  2.306159  0  0  -0.399734  -0.666133  0  2.330931  0
O  O74  1  0.90860429  0.84239044  0.07404209  1  0  -0.734707  0  2.062254  0  0  -0.695093  0  2.319148  0  0  -0.720394  0  2.306038  0  0  -0.399796  -0.666258  0  2.330803  0
O  O75  1  0.59140074  0.34238895  0.42595524  1  0  -0.734639  0  2.062128  0  0  -0.69502  0  2.319037  0  0  -0.720325  0  2.305923  0  0  -0.399757  -0.666184  0  2.330695  0
O  O76  1  0.30860524  0.57857478  0.76765745  1  0  -0.737387  0  2.063733  0  0  -0.697185  0  2.323397  0  0  -0.722091  0  2.308413  0  0  -0.407568  -0.668052  0  2.337136  0
O  O77  1  0.19139852  0.07856646  0.73234229  1  0  -0.737568  0  2.063256  0  0  -0.697349  0  2.322961  0  0  -0.722255  0  2.307963  0  0  -0.407665  -0.668219  0  2.336692  0
O  O78  1  0.69138440  0.42143215  0.23234070  1  0  -0.737466  0  2.063622  0  0  -0.697281  0  2.323329  0  0  -0.72218  0  2.308329  0  0  -0.407641  -0.668151  0  2.337065  0
O  O79  1  0.80860871  0.92143234  0.26765576  1  0  -0.737472  0  2.063121  0  0  -0.697249  0  2.322787  0  0  -0.722169  0  2.307825  0  0  -0.407617  -0.668124  0  2.336526  0
O  O80  1  0.33233770  0.76964793  0.85174121  1  0  -0.753744  0  2.010333  0  0  -0.715434  0  2.257743  0  0  -0.740887  0  2.245441  0  0  -0.410431  -0.686673  0  2.269471  0
O  O81  1  0.16766935  0.26963657  0.64825940  1  0  -0.75367  0  2.010697  0  0  -0.715338  0  2.258141  0  0  -0.74079  0  2.245841  0  0  -0.410388  -0.686579  0  2.269872  0
O  O82  1  0.66767087  0.23035290  0.14825897  1  0  -0.753795  0  2.0103  0  0  -0.715481  0  2.257739  0  0  -0.740936  0  2.245436  0  0  -0.410446  -0.686725  0  2.269474  0
O  O83  1  0.83233648  0.73035614  0.35174332  1  0  -0.753679  0  2.010415  0  0  -0.715352  0  2.257827  0  0  -0.740804  0  2.24553  0  0  -0.410359  -0.686597  0  2.269558  0
O  O84  1  0.44742993  0.04931305  0.88412891  1  0  -0.663535  0  2.055752  0  0  -0.624822  0  2.297121  0  0  -0.647551  0  2.286776  0  0  -0.359863  -0.600229  0  2.305461  0
O  O85  1  0.05256158  0.54930777  0.61586929  1  0  -0.663421  0  2.055902  0  0  -0.624682  0  2.297259  0  0  -0.647408  0  2.286918  0  0  -0.359831  -0.60009  0  2.305605  0
O  O86  1  0.55255296  0.95068982  0.11586877  1  0  -0.663516  0  2.055649  0  0  -0.624831  0  2.296954  0  0  -0.647556  0  2.286611  0  0  -0.359926  -0.600245  0  2.305294  0
O  O87  1  0.94743617  0.45068900  0.38412945  1  0  -0.663423  0  2.055754  0  0  -0.624714  0  2.297058  0  0  -0.647441  0  2.286718  0  0  -0.359822  -0.600127  0  2.305401  0
O  O88  1  0.71099782  0.06199308  0.97897259  1  0  -0.668479  0  2.129755  0  0  -0.623785  0  2.367609  0  0  -0.647724  0  2.358837  0  0  -0.331534  -0.598963  0  2.373528  0
O  O89  1  0.78899609  0.56199438  0.52102645  1  0  -0.668447  0  2.129678  0  0  -0.623725  0  2.367506  0  0  -0.647667  0  2.35874  0  0  -0.331472  -0.598898  0  2.37342  0
O  O90  1  0.28898234  0.93801792  0.02102693  1  0  -0.668307  0  2.12989  0  0  -0.62359  0  2.367612  0  0  -0.647527  0  2.358838  0  0  -0.331456  -0.598761  0  2.373527  0
O  O91  1  0.21100978  0.43801052  0.47897286  1  0  -0.668393  0  2.129714  0  0  -0.623686  0  2.36748  0  0  -0.647629  0  2.358717  0  0  -0.331516  -0.598852  0  2.373394  0
O  O92  1  0.99888869  0.81568429  0.73250736  1  0  -0.923485  0  1.888113  0  0  -0.882716  0  2.092604  0  0  -0.900405  0  2.058296  0  0  -0.637156  -0.860919  0  2.122396  0
O  O93  1  0.50110462  0.31568881  0.76749497  1  0  -0.923454  0  1.888173  0  0  -0.882665  0  2.092674  0  0  -0.900357  0  2.058361  0  0  -0.637143  -0.86087  0  2.122483  0
O  O94  1  0.00111041  0.18431553  0.26749147  1  0  -0.923489  0  1.888078  0  0  -0.882711  0  2.092589  0  0  -0.900404  0  2.058276  0  0  -0.637162  -0.860926  0  2.122389  0
O  O95  1  0.49889176  0.68431406  0.23250639  1  0  -0.923525  0  1.888097  0  0  -0.882757  0  2.092593  0  0  -0.900445  0  2.058282  0  0  -0.637172  -0.860961  0  2.122382  0
O  O96  1  0.83335911  0.02618023  0.81202137  1  0  -0.861587  0  1.850679  0  0  -0.825243  0  2.03475  0  0  -0.843108  0  2.006646  0  0  -0.619708  -0.804251  0  2.058726  0
O  O97  1  0.66663739  0.52618020  0.68797786  1  0  -0.8616  0  1.850696  0  0  -0.82527  0  2.03478  0  0  -0.843135  0  2.006672  0  0  -0.61973  -0.804277  0  2.058771  0
O  O98  1  0.16664399  0.97381857  0.18798387  1  0  -0.861612  0  1.850666  0  0  -0.825272  0  2.034744  0  0  -0.843138  0  2.006639  0  0  -0.619778  -0.804285  0  2.058725  0
O  O99  1  0.33335093  0.47381962  0.31201748  1  0  -0.861596  0  1.850725  0  0  -0.825248  0  2.03482  0  0  -0.843114  0  2.006717  0  0  -0.619765  -0.804261  0  2.058805  0
