# generated using pymatgen
data_CdH24C22(NO)4
_symmetry_space_group_name_H-M   'P 1'
_cell_length_a   7.29141852
_cell_length_b   13.37953623
_cell_length_c   14.87000000
_cell_angle_alpha   91.30836130
_cell_angle_beta   90.00000000
_cell_angle_gamma   90.00000000
_symmetry_Int_Tables_number   1
_chemical_formula_structural   CdH24C22(NO)4
_chemical_formula_sum   'Cd2 H48 C44 N8 O8'
_cell_volume   1450.27651662
_cell_formula_units_Z   2
loop_
 _symmetry_equiv_pos_site_id
 _symmetry_equiv_pos_as_xyz
  1  'x, y, z'
loop_
 _atom_site_type_symbol
 _atom_site_label
 _atom_site_symmetry_multiplicity
 _atom_site_fract_x
 _atom_site_fract_y
 _atom_site_fract_z
 _atom_site_occupancy
 _atom_site_hle17_bader_spin_density
 _atom_site_hle17_ddec_charge
 _atom_site_hle17_ddec_spin_density
 _atom_site_hle17_ddec_sum_bond_order
 _atom_site_hle17_magmom
 _atom_site_hse06_10hf_bader_spin_density
 _atom_site_hse06_10hf_ddec_charge
 _atom_site_hse06_10hf_ddec_spin_density
 _atom_site_hse06_10hf_ddec_sum_bond_order
 _atom_site_hse06_10hf_magmom
 _atom_site_hse06_bader_spin_density
 _atom_site_hse06_ddec_charge
 _atom_site_hse06_ddec_spin_density
 _atom_site_hse06_ddec_sum_bond_order
 _atom_site_hse06_magmom
 _atom_site_pbe_bader_charge
 _atom_site_pbe_bader_spin_density
 _atom_site_pbe_cm5_charge
 _atom_site_pbe_ddec_charge
 _atom_site_pbe_ddec_spin_density
 _atom_site_pbe_ddec_sum_bond_order
 _atom_site_pbe_magmom
Cd  Cd0  1  0.81968961  0.02127609  0.81476327  1  0  1.068877  0  1.737097  0  0  0.88077  0  2.184379  0  0  0.936986  0  2.135389  0  1.226767  0  0.762246  0.841168  0  2.217649  0
Cd  Cd1  1  0.18031196  0.52127803  0.31476324  1  0  1.068884  0  1.737035  0  0  0.88078  0  2.184335  0  0  0.936998  0  2.135343  0  1.226783  0  0.762242  0.841177  0  2.217605  0
H  H2  1  0.81475916  0.80692668  0.62444280  1  0  0.110882  0  0.952828  0  0  0.11849  0  1.016248  0  0  0.121144  0  1.015747  0  0.077728  0  0.107689  0.116598  0  1.016674  0
H  H3  1  0.18524105  0.30692474  0.12444149  1  0  0.110852  0  0.953015  0  0  0.118493  0  1.016296  0  0  0.121147  0  1.015794  0  0.077634  0  0.107667  0.1166  0  1.016722  0
H  H4  1  0.44766461  0.61851378  0.46892702  1  0  0.133652  0  0.969389  0  0  0.140688  0  1.033621  0  0  0.144493  0  1.030972  0  0.153839  0  0.112567  0.137874  0  1.035725  0
H  H5  1  0.55233560  0.11851707  0.96892513  1  0  0.133638  0  0.969466  0  0  0.140649  0  1.033627  0  0  0.144452  0  1.030986  0  0.153828  0  0.112563  0.137831  0  1.035747  0
H  H6  1  0.80884261  0.31275082  0.62918996  1  0  0.071006  0  0.93222  0  0  0.088119  0  0.991885  0  0  0.089903  0  0.991232  0  0.020995  0  0.087925  0.08677  0  0.992431  0
H  H7  1  0.19116171  0.81275052  0.12918922  1  0  0.071045  0  0.932213  0  0  0.088145  0  0.99188  0  0  0.089928  0  0.991228  0  0.021047  0  0.087923  0.086796  0  0.992426  0
H  H8  1  0.75665524  0.21483700  0.55156505  1  0  0.052918  0  0.933183  0  0  0.073466  0  0.99293  0  0  0.074194  0  0.992975  0  -0.004804  0  0.083727  0.07286  0  0.992994  0
H  H9  1  0.24334360  0.71483745  0.05156499  1  0  0.052991  0  0.933234  0  0  0.073515  0  0.992976  0  0  0.074244  0  0.993022  0  -0.00482  0  0.083747  0.072911  0  0.993038  0
H  H10  1  0.49884532  0.24234811  0.43197289  1  0  0.068166  0  0.903364  0  0  0.084335  0  0.951885  0  0  0.085846  0  0.951894  0  0.017071  0  0.098595  0.083249  0  0.951986  0
H  H11  1  0.50115488  0.74234856  0.93197350  1  0  0.06816  0  0.903382  0  0  0.084332  0  0.951905  0  0  0.085843  0  0.951917  0  0.017072  0  0.098597  0.083246  0  0.952006  0
H  H12  1  0.18692933  0.73349692  0.50776542  1  0  0.110384  0  0.953381  0  0  0.118411  0  1.016554  0  0  0.121065  0  1.016074  0  0.120988  0  0.107511  0.116489  0  1.017024  0
H  H13  1  0.81306813  0.23349871  0.00776485  1  0  0.1104  0  0.953372  0  0  0.11843  0  1.01655  0  0  0.121084  0  1.016071  0  0.12098  0  0.107525  0.116509  0  1.017019  0
H  H14  1  0.12967024  0.95149030  0.48255066  1  0  0.120538  0  0.934652  0  0  0.135189  0  0.984424  0  0  0.138042  0  0.983228  0  0.125758  0  0.12982  0.133127  0  0.9854  0
H  H15  1  0.87032996  0.45148836  0.98255136  1  0  0.12056  0  0.934652  0  0  0.135212  0  0.984423  0  0  0.138065  0  0.983227  0  0.125764  0  0.129832  0.13315  0  0.985401  0
H  H16  1  0.55414732  0.92224325  0.66277562  1  0  0.133444  0  0.968563  0  0  0.140586  0  1.032659  0  0  0.14436  0  1.030021  0  0.166904  0  0.112996  0.137811  0  1.034735  0
H  H17  1  0.44585014  0.42224131  0.16277497  1  0  0.133443  0  0.96858  0  0  0.140556  0  1.032714  0  0  0.144331  0  1.030076  0  0.166942  0  0.112999  0.137783  0  1.034784  0
H  H18  1  0.71674393  0.74752797  0.36906176  1  0  0.129562  0  0.934295  0  0  0.150209  0  0.989738  0  0  0.152197  0  0.989534  0  0.101112  0  0.100915  0.148805  0  0.98989  0
H  H19  1  0.28325490  0.24752677  0.86905978  1  0  0.129584  0  0.934308  0  0  0.150235  0  0.98973  0  0  0.152225  0  0.989523  0  0.101153  0  0.100925  0.148828  0  0.989884  0
H  H20  1  0.89858647  0.69126845  0.30515206  1  0  0.146748  0  0.943493  0  0  0.166004  0  1.003857  0  0  0.168768  0  1.00187  0  0.130224  0  0.104116  0.163995  0  1.005323  0
H  H21  1  0.10141374  0.19126651  0.80515074  1  0  0.14674  0  0.943493  0  0  0.165996  0  1.003866  0  0  0.168763  0  1.001876  0  0.13021  0  0.10411  0.163988  0  1.005332  0
H  H22  1  0.68353503  0.62848234  0.31647210  1  0  0.147886  0  0.935064  0  0  0.166559  0  0.995252  0  0  0.168785  0  0.994933  0  0.100743  0  0.104874  0.164971  0  0.995485  0
H  H23  1  0.31646380  0.12848115  0.81647080  1  0  0.14787  0  0.935078  0  0  0.166547  0  0.995269  0  0  0.168774  0  0.994951  0  0.100704  0  0.104875  0.16496  0  0.995502  0
H  H24  1  0.13166985  0.48623480  0.54141451  1  0  0.103971  0  0.958268  0  0  0.11408  0  1.017708  0  0  0.116321  0  1.016778  0  0.122446  0  0.11922  0.112371  0  1.018569  0
H  H25  1  0.86832761  0.98623525  0.04141445  1  0  0.103945  0  0.958255  0  0  0.114054  0  1.017702  0  0  0.116295  0  1.016773  0  0.122431  0  0.119217  0.112347  0  1.018563  0
H  H26  1  0.87131057  0.58652077  0.64767861  1  0  0.120934  0  0.934611  0  0  0.135262  0  0.984557  0  0  0.138142  0  0.983323  0  0.113089  0  0.130089  0.133161  0  0.985578  0
H  H27  1  0.12868827  0.08652257  0.14767670  1  0  0.120967  0  0.934612  0  0  0.135292  0  0.984564  0  0  0.138171  0  0.98333  0  0.113207  0  0.130097  0.133191  0  0.985586  0
H  H28  1  0.50282397  0.30084297  0.69774761  1  0  0.067009  0  0.903846  0  0  0.084215  0  0.952143  0  0  0.085685  0  0.95219  0  0.007163  0  0.098389  0.083131  0  0.952251  0
H  H29  1  0.49717898  0.80084342  0.19774419  1  0  0.067058  0  0.903852  0  0  0.084261  0  0.952148  0  0  0.085726  0  0.952195  0  0.007604  0  0.098396  0.083176  0  0.952256  0
H  H30  1  0.28527508  0.16407836  0.65073609  1  0  0.069226  0  0.942172  0  0  0.086548  0  1.004183  0  0  0.086926  0  1.00555  0  -0.003542  0  0.087085  0.08623  0  1.003289  0
H  H31  1  0.71472649  0.66407806  0.15073467  1  0  0.069224  0  0.942185  0  0  0.086562  0  1.004203  0  0  0.08694  0  1.00557  0  -0.003494  0  0.087084  0.086243  0  1.003308  0
H  H32  1  0.43848807  0.12452781  0.56600558  1  0  0.063364  0  0.931256  0  0  0.0793  0  0.995606  0  0  0.080713  0  0.994986  0  0.029066  0  0.084344  0.078237  0  0.996111  0
H  H33  1  0.56151214  0.62452901  0.06600285  1  0  0.063446  0  0.931226  0  0  0.079386  0  0.995589  0  0  0.080803  0  0.994968  0  0.029043  0  0.084388  0.078322  0  0.996094  0
H  H34  1  0.86769673  0.05271064  0.58735931  1  0  0.104947  0  0.956009  0  0  0.115034  0  1.015168  0  0  0.117296  0  1.014233  0  0.123904  0  0.119524  0.113342  0  1.016003  0
H  H35  1  0.13229936  0.55271108  0.08735858  1  0  0.104967  0  0.956008  0  0  0.115056  0  1.015166  0  0  0.117317  0  1.014231  0  0.123909  0  0.119542  0.113363  0  1.016001  0
H  H36  1  0.10432675  0.85461191  0.82712860  1  0  0.145781  0  0.946363  0  0  0.166463  0  1.005102  0  0  0.169177  0  1.003172  0  0.113686  0  0.10407  0.164506  0  1.006496  0
H  H37  1  0.89567345  0.35461670  0.32712943  1  0  0.145738  0  0.946425  0  0  0.166435  0  1.005163  0  0  0.169149  0  1.003231  0  0.113934  0  0.104064  0.164478  0  1.006555  0
H  H38  1  0.31971008  0.91661678  0.81435202  1  0  0.149079  0  0.938205  0  0  0.167256  0  0.999187  0  0  0.169534  0  0.998842  0  0.097248  0  0.104237  0.165621  0  0.999463  0
H  H39  1  0.68028875  0.41662156  0.31435286  1  0  0.149011  0  0.938123  0  0  0.167233  0  0.999076  0  0  0.169505  0  0.998744  0  0.097382  0  0.104233  0.165598  0  0.999345  0
H  H40  1  0.28528194  0.79654170  0.76397457  1  0  0.130151  0  0.932606  0  0  0.151091  0  0.987947  0  0  0.153092  0  0.987713  0  0.0591  0  0.10094  0.149679  0  0.98812  0
H  H41  1  0.71471689  0.29654574  0.26397809  1  0  0.130153  0  0.93257  0  0  0.151107  0  0.987912  0  0  0.153102  0  0.987685  0  0.059184  0  0.100956  0.149694  0  0.988085  0
H  H42  1  0.71581270  0.37920991  0.47907114  1  0  0.068875  0  0.945059  0  0  0.086945  0  1.006436  0  0  0.087374  0  1.00773  0  0.006416  0  0.087378  0.086605  0  1.005573  0
H  H43  1  0.28419024  0.87920961  0.97907040  1  0  0.068864  0  0.945062  0  0  0.086932  0  1.006447  0  0  0.087364  0  1.007735  0  0.006411  0  0.087376  0.086591  0  1.005585  0
H  H44  1  0.56287950  0.41860496  0.56380316  1  0  0.063047  0  0.931185  0  0  0.07872  0  0.996143  0  0  0.080112  0  0.995526  0  0.030437  0  0.084049  0.077684  0  0.996631  0
H  H45  1  0.43712070  0.91860540  0.06380310  1  0  0.063055  0  0.93117  0  0  0.078732  0  0.996128  0  0  0.080123  0  0.995511  0  0.030441  0  0.084054  0.077697  0  0.996616  0
H  H46  1  0.19298165  0.23008291  0.50022528  1  0  0.071965  0  0.932859  0  0  0.088003  0  0.993164  0  0  0.089829  0  0.99244  0  0.033888  0  0.087667  0.086638  0  0.993744  0
H  H47  1  0.80701718  0.73008261  0.00022319  1  0  0.071953  0  0.932854  0  0  0.087982  0  0.993153  0  0  0.089809  0  0.992428  0  0.033997  0  0.087659  0.086617  0  0.993734  0
H  H48  1  0.24389630  0.32813728  0.57786989  1  0  0.052065  0  0.935225  0  0  0.072627  0  0.994633  0  0  0.073361  0  0.994654  0  0.011586  0  0.083223  0.072044  0  0.994672  0
H  H49  1  0.75610802  0.82813698  0.07786847  1  0  0.052051  0  0.935188  0  0  0.072595  0  0.994605  0  0  0.073328  0  0.994629  0  0.011648  0  0.083208  0.072013  0  0.994644  0
C  C50  1  0.67694784  0.79079411  0.59973948  1  0  -0.127695  0  3.744866  0  0  -0.147828  0  3.995899  0  0  -0.151083  0  4.016386  0  0.015685  0  -0.083621  -0.145867  0  3.981861  0
C  C51  1  0.32304962  0.29079292  0.09973817  1  0  -0.129309  0  3.743681  0  0  -0.147836  0  3.996067  0  0  -0.151089  0  4.016556  0  0.016116  0  -0.083629  -0.145874  0  3.982027  0
C  C52  1  0.85752313  0.62805172  0.43261591  1  0  0.392026  0  3.670163  0  0  0.368952  0  3.936131  0  0  0.386218  0  3.949184  0  1.007888  0  0.226677  0.357557  0  3.926928  0
C  C53  1  0.14247571  0.12804978  0.93261459  1  0  0.392037  0  3.67026  0  0  0.368997  0  3.935993  0  0  0.386263  0  3.949048  0  1.007907  0  0.226664  0.357602  0  3.92679  0
C  C54  1  0.35752577  0.83330218  0.58807681  1  0  0.169897  0  3.796027  0  0  0.162305  0  4.04293  0  0  0.166119  0  4.066722  0  0.247937  0  0.091556  0.159645  0  4.026909  0
C  C55  1  0.64247444  0.33330248  0.08807554  1  0  0.169876  0  3.796046  0  0  0.162339  0  4.042847  0  0  0.166155  0  4.066637  0  0.247886  0  0.091572  0.159666  0  4.026845  0
C  C56  1  0.46952318  0.68596120  0.51005715  1  0  -0.126234  0  3.71711  0  0  -0.145705  0  3.963951  0  0  -0.149276  0  3.983927  0  0.015965  0  -0.081358  -0.143502  0  3.950278  0
C  C57  1  0.53047428  0.18596225  0.01005522  1  0  -0.127851  0  3.715699  0  0  -0.145728  0  3.963956  0  0  -0.149296  0  3.983932  0  0.015344  0  -0.081388  -0.143528  0  3.950282  0
C  C58  1  0.69627741  0.27804924  0.59047569  1  0  -0.110593  0  3.678603  0  0  -0.156167  0  3.940341  0  0  -0.156944  0  3.954812  0  -0.004751  0  -0.163534  -0.155385  0  3.930174  0
C  C59  1  0.30372279  0.77804894  0.09047360  1  0  -0.110741  0  3.678809  0  0  -0.156271  0  3.940515  0  0  -0.157052  0  3.954984  0  -0.00477  0  -0.163544  -0.155485  0  3.93034  0
C  C60  1  0.64257867  0.16401332  0.71853502  1  0  0.64118  0  3.881096  0  0  0.594106  0  4.181227  0  0  0.627073  0  4.176541  0  1.536696  0  0.186958  0.571782  0  4.183487  0
C  C61  1  0.35742702  0.66401376  0.21853429  1  0  0.641203  0  3.880952  0  0  0.594126  0  4.181092  0  0  0.627089  0  4.176409  0  1.536653  0  0.186966  0.571802  0  4.183353  0
C  C62  1  0.44977256  0.30606873  0.47409101  1  0  -0.114816  0  3.655978  0  0  -0.110864  0  3.892565  0  0  -0.117012  0  3.907592  0  0.045962  0  -0.091678  -0.106744  0  3.882206  0
C  C63  1  0.55022764  0.80606918  0.97409028  1  0  -0.114761  0  3.656002  0  0  -0.110813  0  3.892598  0  0  -0.116966  0  3.90763  0  0.045945  0  -0.09166  -0.106693  0  3.88224  0
C  C64  1  0.32481197  0.74973266  0.53233368  1  0  -0.128527  0  3.74474  0  0  -0.1489  0  3.995685  0  0  -0.151838  0  4.016657  0  -0.017154  0  -0.0843  -0.14687  0  3.981568  0
C  C65  1  0.67518686  0.24973445  0.03233244  1  0  -0.12862  0  3.745144  0  0  -0.148887  0  3.995641  0  0  -0.151826  0  4.01661  0  -0.016642  0  -0.084299  -0.146851  0  3.981524  0
C  C66  1  0.10271115  0.95270965  0.55418769  1  0  -0.067036  0  3.699921  0  0  -0.111791  0  3.963867  0  0  -0.110281  0  3.981482  0  0.225556  0  -0.001374  -0.112795  0  3.952053  0
C  C67  1  0.89728631  0.45270995  0.05418776  1  0  -0.06708  0  3.699941  0  0  -0.111841  0  3.963906  0  0  -0.110331  0  3.981521  0  0.225573  0  -0.001383  -0.112846  0  3.952089  0
C  C68  1  0.53226954  0.85464257  0.62187906  1  0  -0.126016  0  3.719334  0  0  -0.145241  0  3.966274  0  0  -0.148461  0  3.98669  0  -0.030906  0  -0.081762  -0.143063  0  3.952666  0
C  C69  1  0.46773066  0.35464062  0.12187774  1  0  -0.126119  0  3.719817  0  0  -0.145233  0  3.966342  0  0  -0.148454  0  3.986756  0  -0.030427  0  -0.081761  -0.143048  0  3.952736  0
C  C70  1  0.78464979  0.67663408  0.35133089  1  0  -0.4019  0  3.695172  0  0  -0.480844  0  3.929882  0  0  -0.48562  0  3.935229  0  -0.152527  0  -0.231248  -0.477359  0  3.926047  0
C  C71  1  0.21535179  0.17663364  0.85132893  1  0  -0.401968  0  3.69513  0  0  -0.480888  0  3.929845  0  0  -0.485667  0  3.935191  0  -0.152543  0  -0.231263  -0.477401  0  3.926014  0
C  C72  1  0.64430947  0.70739280  0.54377183  1  0  0.167775  0  3.793608  0  0  0.161079  0  4.040183  0  0  0.166054  0  4.062287  0  0.257444  0  0.091366  0.158482  0  4.024158  0
C  C73  1  0.35568799  0.20739310  0.04377056  1  0  0.172966  0  3.786137  0  0  0.161116  0  4.040303  0  0  0.166084  0  4.062416  0  0.257212  0  0.091432  0.15852  0  4.024277  0
C  C74  1  0.02390481  0.53752199  0.52283402  1  0  0.013333  0  3.786641  0  0  -0.023369  0  4.061089  0  0  -0.020535  0  4.081604  0  0.43042  0  -0.00142  -0.025224  0  4.047211  0
C  C75  1  0.97609402  0.03752080  0.02283205  1  0  0.013396  0  3.786331  0  0  -0.023312  0  4.060835  0  0  -0.020477  0  4.081348  0  0.430444  0  -0.001438  -0.025168  0  4.046959  0
C  C76  1  0.89840543  0.58681907  0.57608958  1  0  -0.066916  0  3.698932  0  0  -0.110989  0  3.96319  0  0  -0.109525  0  3.980751  0  0.251575  0  -0.001211  -0.111954  0  3.951435  0
C  C77  1  0.10159614  0.08681637  0.07608959  1  0  -0.067072  0  3.699069  0  0  -0.111068  0  3.963029  0  0  -0.109601  0  3.980585  0  0.251614  0  -0.001207  -0.112034  0  3.951276  0
C  C78  1  0.55158266  0.23710142  0.65561829  1  0  -0.111314  0  3.651309  0  0  -0.110359  0  3.893209  0  0  -0.116423  0  3.908129  0  0.022292  0  -0.092146  -0.106273  0  3.88285  0
C  C79  1  0.44842166  0.73710112  0.15561553  1  0  -0.111274  0  3.651239  0  0  -0.110288  0  3.89312  0  0  -0.116343  0  3.908037  0  0.021893  0  -0.092086  -0.106202  0  3.882761  0
C  C80  1  0.38962652  0.19112446  0.60384587  1  0  -0.118634  0  3.702841  0  0  -0.164766  0  3.966829  0  0  -0.165078  0  3.981298  0  0.014264  0  -0.170749  -0.164352  0  3.956689  0
C  C81  1  0.61037643  0.69112342  0.10384377  1  0  -0.11872  0  3.702845  0  0  -0.164938  0  3.966951  0  0  -0.165255  0  3.981422  0  0.014234  0  -0.170805  -0.164527  0  3.95682  0
C  C82  1  0.97674958  0.00260466  0.60672870  1  0  0.01298  0  3.785046  0  0  -0.023468  0  4.059713  0  0  -0.020614  0  4.080191  0  0.432518  0  -0.002001  -0.025367  0  4.045857  0
C  C83  1  0.02324788  0.50260585  0.10672798  1  0  0.012998  0  3.78502  0  0  -0.023455  0  4.059701  0  0  -0.0206  0  4.080179  0  0.432521  0  -0.002003  -0.025353  0  4.045846  0
C  C84  1  0.14473178  0.91468870  0.69840723  1  0  0.396205  0  3.667254  0  0  0.37106  0  3.935587  0  0  0.388386  0  3.948558  0  0.960534  0  0.227036  0.359634  0  3.926409  0
C  C85  1  0.85526431  0.41469124  0.19840803  1  0  0.39615  0  3.667246  0  0  0.371038  0  3.935565  0  0  0.388357  0  3.948545  0  0.960521  0  0.227003  0.35961  0  3.926383  0
C  C86  1  0.35893976  0.37913216  0.41106820  1  0  0.641804  0  3.88081  0  0  0.594781  0  4.179134  0  0  0.627732  0  4.174444  0  1.532756  0  0.187737  0.572466  0  4.181404  0
C  C87  1  0.64105907  0.87913261  0.91106680  1  0  0.641785  0  3.880898  0  0  0.594708  0  4.179304  0  0  0.627658  0  4.174619  0  1.532835  0  0.187678  0.572393  0  4.181572  0
C  C88  1  0.21801382  0.86796115  0.78048288  1  0  -0.405294  0  3.696686  0  0  -0.485466  0  3.932349  0  0  -0.490246  0  3.937716  0  -0.077394  0  -0.232  -0.481959  0  3.928458  0
C  C89  1  0.78198501  0.36796519  0.28048437  1  0  -0.40515  0  3.696546  0  0  -0.485381  0  3.932223  0  0  -0.490155  0  3.937594  0  -0.07784  0  -0.231973  -0.481887  0  3.928365  0
C  C90  1  0.61159430  0.35203148  0.52589139  1  0  -0.117667  0  3.705474  0  0  -0.164595  0  3.969399  0  0  -0.164902  0  3.983874  0  -0.019992  0  -0.171282  -0.16421  0  3.959316  0
C  C91  1  0.38840590  0.85203118  0.02589064  1  0  -0.117661  0  3.705458  0  0  -0.164599  0  3.969391  0  0  -0.164902  0  3.983859  0  -0.019987  0  -0.1713  -0.164214  0  3.959311  0
C  C92  1  0.30500787  0.26500802  0.53911429  1  0  -0.110277  0  3.681769  0  0  -0.154721  0  3.9403  0  0  -0.155467  0  3.954777  0  -0.030642  0  -0.16308  -0.153986  0  3.930148  0
C  C93  1  0.69499234  0.76500847  0.03911288  1  0  -0.1103  0  3.681743  0  0  -0.154667  0  3.94025  0  0  -0.155412  0  3.954725  0  -0.030834  0  -0.163088  -0.153933  0  3.930095  0
N  N94  1  0.20869327  0.89761490  0.61277334  1  0  -0.147914  0  3.561919  0  0  -0.061107  0  3.776209  0  0  -0.076152  0  3.799807  0  -1.229996  0  -0.22481  -0.051114  0  3.760144  0
N  N95  1  0.79130693  0.39761595  0.11277343  1  0  -0.1479  0  3.561846  0  0  -0.061106  0  3.776133  0  0  -0.07615  0  3.799732  0  -1.230442  0  -0.224822  -0.051107  0  3.76007  0
N  N96  1  0.00352606  0.97801981  0.69550660  1  0  -0.445028  0  3.207503  0  0  -0.372301  0  3.487513  0  0  -0.395362  0  3.503802  0  -1.198315  0  -0.359347  -0.356601  0  3.476056  0
N  N97  1  0.99647140  0.47802161  0.19550737  1  0  -0.445082  0  3.207458  0  0  -0.372369  0  3.487456  0  0  -0.395427  0  3.503746  0  -1.198295  0  -0.359376  -0.356666  0  3.475997  0
N  N98  1  0.99791419  0.56413374  0.43453071  1  0  -0.443382  0  3.210486  0  0  -0.370754  0  3.489445  0  0  -0.393838  0  3.505826  0  -1.22202  0  -0.358947  -0.355032  0  3.477902  0
N  N99  1  0.00208601  0.06413254  0.93452941  1  0  -0.443411  0  3.210321  0  0  -0.370751  0  3.489314  0  0  -0.393835  0  3.505696  0  -1.22211  0  -0.358926  -0.35503  0  3.477773  0
N  N100  1  0.79336003  0.64351892  0.51841249  1  0  -0.146255  0  3.562396  0  0  -0.061324  0  3.777467  0  0  -0.076654  0  3.800707  0  -1.252949  0  -0.225329  -0.051392  0  3.761455  0
N  N101  1  0.20663880  0.14351922  0.01841122  1  0  -0.147779  0  3.561285  0  0  -0.061315  0  3.777417  0  0  -0.076643  0  3.800656  0  -1.253047  0  -0.225329  -0.051382  0  3.761405  0
O  O102  1  0.41227094  0.47050444  0.41357688  1  0  -0.652534  0  1.974078  0  0  -0.589402  0  2.219197  0  0  -0.617608  0  2.209713  0  -1.1861  0  -0.339569  -0.569666  0  2.224977  0
O  O103  1  0.58772926  0.97050788  0.91358092  1  0  -0.652536  0  1.973864  0  0  -0.589353  0  2.218964  0  0  -0.617557  0  2.209483  0  -1.186163  0  -0.339556  -0.569618  0  2.224747  0
O  O104  1  0.59159270  0.07225826  0.71445224  1  0  -0.652444  0  1.972462  0  0  -0.589153  0  2.217902  0  0  -0.617424  0  2.208428  0  -1.177737  0  -0.340193  -0.569366  0  2.223649  0
O  O105  1  0.40841573  0.57226021  0.21445154  1  0  -0.652452  0  1.972471  0  0  -0.58916  0  2.217912  0  0  -0.61743  0  2.208438  0  -1.177746  0  -0.340197  -0.569377  0  2.223668  0
O  O106  1  0.22963021  0.34847737  0.35989167  1  0  -0.659317  0  1.897025  0  0  -0.605635  0  2.125135  0  0  -0.632198  0  2.115059  0  -1.186641  0  -0.356949  -0.587057  0  2.131367  0
O  O107  1  0.77035353  0.84847856  0.85988759  1  0  -0.659334  0  1.897323  0  0  -0.605626  0  2.125453  0  0  -0.632188  0  2.115378  0  -1.18666  0  -0.356902  -0.587051  0  2.131685  0
O  O108  1  0.76932492  0.19494173  0.77108637  1  0  -0.659863  0  1.896179  0  0  -0.605911  0  2.12368  0  0  -0.632389  0  2.113579  0  -1.192212  0  -0.356623  -0.587392  0  2.129931  0
O  O109  1  0.23068076  0.69494218  0.27108698  1  0  -0.659911  0  1.896106  0  0  -0.605949  0  2.123607  0  0  -0.632428  0  2.113507  0  -1.192155  0  -0.356654  -0.58743  0  2.129859  0
