# generated using pymatgen
data_SmH14C15(NO4)2
_symmetry_space_group_name_H-M   'P 1'
_cell_length_a   8.64977310
_cell_length_b   10.11592743
_cell_length_c   11.02910135
_cell_angle_alpha   65.80367632
_cell_angle_beta   68.88568231
_cell_angle_gamma   77.82647444
_symmetry_Int_Tables_number   1
_chemical_formula_structural   SmH14C15(NO4)2
_chemical_formula_sum   'Sm2 H28 C30 N4 O16'
_cell_volume   818.90014470
_cell_formula_units_Z   2
loop_
 _symmetry_equiv_pos_site_id
 _symmetry_equiv_pos_as_xyz
  1  'x, y, z'
loop_
 _atom_site_type_symbol
 _atom_site_label
 _atom_site_symmetry_multiplicity
 _atom_site_fract_x
 _atom_site_fract_y
 _atom_site_fract_z
 _atom_site_occupancy
 _atom_site_hle17_bader_spin_density
 _atom_site_hle17_ddec_charge
 _atom_site_hle17_ddec_spin_density
 _atom_site_hle17_ddec_sum_bond_order
 _atom_site_hle17_magmom
 _atom_site_hse06_10hf_bader_spin_density
 _atom_site_hse06_10hf_ddec_charge
 _atom_site_hse06_10hf_ddec_spin_density
 _atom_site_hse06_10hf_ddec_sum_bond_order
 _atom_site_hse06_10hf_magmom
 _atom_site_hse06_bader_spin_density
 _atom_site_hse06_ddec_charge
 _atom_site_hse06_ddec_spin_density
 _atom_site_hse06_ddec_sum_bond_order
 _atom_site_hse06_magmom
 _atom_site_pbe_bader_spin_density
 _atom_site_pbe_cm5_charge
 _atom_site_pbe_ddec_charge
 _atom_site_pbe_ddec_spin_density
 _atom_site_pbe_ddec_sum_bond_order
 _atom_site_pbe_magmom
Sm  Sm0  1  0.65539446  0.43634171  0.13474535  1  0  2.268023  0  1.615852  0  0  2.115012  0  2.078927  0  0  2.225006  0  1.915797  0  0  1.507528  2.080624  0  2.111488  0
Sm  Sm1  1  0.34460521  0.56366009  0.86525616  1  0  2.268037  0  1.615796  0  0  2.115067  0  2.078788  0  0  2.22502  0  1.915731  0  0  1.50749  2.080677  0  2.111354  0
H  H2  1  0.92250969  0.60379392  0.86637937  1  0  0.454009  0  0.840096  0  0  0.424859  0  0.900593  0  0  0.435741  0  0.884829  0  0  0.30495  0.41729  0  0.911701  0
H  H3  1  0.07749069  0.39620027  0.13362478  1  0  0.454083  0  0.840025  0  0  0.424943  0  0.900496  0  0  0.435825  0  0.884732  0  0  0.304972  0.417376  0  0.9116  0
H  H4  1  0.76313572  0.58918726  0.82933460  1  0  0.430972  0  0.876619  0  0  0.401158  0  0.939652  0  0  0.411578  0  0.924705  0  0  0.297526  0.393773  0  0.950425  0
H  H5  1  0.23686726  0.41080586  0.17066742  1  0  0.431059  0  0.876511  0  0  0.401224  0  0.939584  0  0  0.411646  0  0.924633  0  0  0.297566  0.393838  0  0.950359  0
H  H6  1  0.22102808  0.64383015  0.47035273  1  0  0.104298  0  0.942531  0  0  0.113046  0  1.005277  0  0  0.116785  0  1.002779  0  0  0.108075  0.110477  0  1.00716  0
H  H7  1  0.77897467  0.35616514  0.52965126  1  0  0.104318  0  0.942436  0  0  0.113057  0  1.005199  0  0  0.116798  0  1.0027  0  0  0.108096  0.110493  0  1.007078  0
H  H8  1  0.07257414  0.31603252  0.38995198  1  0  0.089575  0  0.995273  0  0  0.0984  0  1.061349  0  0  0.10072  0  1.061051  0  0  0.102717  0.096932  0  1.061152  0
H  H9  1  0.92742945  0.68396712  0.61005016  1  0  0.089582  0  0.995247  0  0  0.098383  0  1.061376  0  0  0.100702  0  1.06108  0  0  0.102709  0.096914  0  1.061184  0
H  H10  1  0.70218088  0.79262518  0.96897327  1  0  0.100903  0  0.97465  0  0  0.106905  0  1.043969  0  0  0.110446  0  1.041783  0  0  0.113965  0.103539  0  1.047182  0
H  H11  1  0.29781834  0.20738207  0.03102180  1  0  0.100863  0  0.974815  0  0  0.106849  0  1.044167  0  0  0.110393  0  1.041978  0  0  0.113954  0.103479  0  1.04738  0
H  H12  1  0.20376714  0.99394249  0.02600894  1  0  0.09972  0  0.95975  0  0  0.108792  0  1.023811  0  0  0.11228  0  1.021847  0  0  0.106834  0.106354  0  1.024928  0
H  H13  1  0.79623188  0.00606693  0.97398446  1  0  0.099756  0  0.959708  0  0  0.108717  0  1.02391  0  0  0.112207  0  1.021937  0  0  0.106836  0.106282  0  1.025025  0
H  H14  1  0.16092925  0.13086033  0.25388934  1  0  0.096959  0  0.972552  0  0  0.106643  0  1.035816  0  0  0.109861  0  1.03377  0  0  0.105402  0.104343  0  1.037301  0
H  H15  1  0.83907197  0.86913821  0.74611296  1  0  0.097009  0  0.972552  0  0  0.106664  0  1.035837  0  0  0.109881  0  1.033792  0  0  0.105424  0.104364  0  1.037326  0
H  H16  1  0.69388946  0.05447790  0.58055325  1  0  0.108118  0  0.939527  0  0  0.118515  0  0.997471  0  0  0.122601  0  0.994609  0  0  0.109111  0.115542  0  0.999633  0
H  H17  1  0.30611197  0.94551847  0.41944889  1  0  0.108116  0  0.939526  0  0  0.118506  0  0.997479  0  0  0.122593  0  0.994615  0  0  0.109107  0.115537  0  0.99964  0
H  H18  1  0.68321245  0.81898557  0.43980368  1  0  0.07815  0  0.922159  0  0  0.094702  0  0.979636  0  0  0.095399  0  0.979651  0  0  0.109358  0.094109  0  0.979723  0
H  H19  1  0.31679455  0.18101735  0.56019628  1  0  0.078172  0  0.922167  0  0  0.094722  0  0.979673  0  0  0.095418  0  0.979687  0  0  0.109341  0.094127  0  0.979759  0
H  H20  1  0.62181737  0.93285467  0.28925521  1  0  0.061837  0  0.923266  0  0  0.077083  0  0.984243  0  0  0.077614  0  0.984197  0  0  0.103257  0.076668  0  0.984234  0
H  H21  1  0.37818997  0.06714501  0.71074134  1  0  0.06192  0  0.923246  0  0  0.077173  0  0.984254  0  0  0.0777  0  0.984207  0  0  0.10331  0.076758  0  0.984243  0
H  H22  1  0.90387405  0.97940870  0.17555814  1  0  0.07254  0  0.929876  0  0  0.086727  0  0.993755  0  0  0.087829  0  0.992828  0  0  0.10498  0.08588  0  0.994567  0
H  H23  1  0.09613347  0.02058880  0.82444098  1  0  0.072443  0  0.930059  0  0  0.086701  0  0.993846  0  0  0.087748  0  0.99298  0  0  0.10497  0.085856  0  0.994658  0
H  H24  1  0.97144262  0.82576468  0.30555005  1  0  0.05223  0  0.947714  0  0  0.065327  0  1.015295  0  0  0.064824  0  1.017904  0  0  0.094405  0.065539  0  1.013777  0
H  H25  1  0.02856614  0.17423283  0.69444872  1  0  0.05222  0  0.947784  0  0  0.065288  0  1.015392  0  0  0.064784  0  1.017995  0  0  0.094376  0.065499  0  1.013871  0
H  H26  1  0.56700966  0.66556774  0.34895586  1  0  0.330203  0  0.880342  0  0  0.316101  0  0.93433  0  0  0.324115  0  0.927398  0  0  0.324101  0.310499  0  0.939174  0
H  H27  1  0.43299488  0.33443517  0.65104389  1  0  0.330232  0  0.880355  0  0  0.31612  0  0.934343  0  0  0.324134  0  0.927411  0  0  0.32411  0.310519  0  0.939187  0
H  H28  1  0.03438446  0.75968750  0.08813685  1  0  0.323724  0  0.894223  0  0  0.307005  0  0.953527  0  0  0.314593  0  0.947446  0  0  0.318392  0.301777  0  0.957638  0
H  H29  1  0.96561793  0.24031215  0.91186108  1  0  0.323764  0  0.894164  0  0  0.307043  0  0.953466  0  0  0.31463  0  0.947385  0  0  0.318416  0.301817  0  0.957574  0
C  C30  1  0.33653715  0.45684552  0.33297440  1  0  0.649333  0  3.908131  0  0  0.601907  0  4.199949  0  0  0.634983  0  4.197262  0  0  0.200941  0.578934  0  4.205065  0
C  C31  1  0.66346616  0.54315740  0.66702296  1  0  0.649399  0  3.907906  0  0  0.601985  0  4.199708  0  0  0.635062  0  4.197015  0  0  0.200961  0.579018  0  4.204814  0
C  C32  1  0.16341862  0.47872910  0.42033371  1  0  -0.04697  0  3.737737  0  0  -0.024674  0  3.96743  0  0  -0.030433  0  3.987877  0  0  -0.009666  -0.020363  0  3.952729  0
C  C33  1  0.83658136  0.52126943  0.57966894  1  0  -0.047049  0  3.737848  0  0  -0.024726  0  3.967492  0  0  -0.03049  0  3.987944  0  0  -0.009664  -0.02042  0  3.952792  0
C  C34  1  0.12358971  0.58168207  0.48353033  1  0  -0.064061  0  3.713894  0  0  -0.088864  0  3.966297  0  0  -0.089214  0  3.984446  0  0  -0.077984  -0.088555  0  3.953473  0
C  C35  1  0.87641255  0.41831865  0.51647086  1  0  -0.064073  0  3.713873  0  0  -0.088885  0  3.966285  0  0  -0.089235  0  3.984435  0  0  -0.078024  -0.088581  0  3.953463  0
C  C36  1  0.03925528  0.39726663  0.43763843  1  0  -0.069067  0  3.722882  0  0  -0.091628  0  3.970393  0  0  -0.092049  0  3.990128  0  0  -0.081265  -0.090938  0  3.955953  0
C  C37  1  0.96074479  0.60273082  0.56236550  1  0  -0.069037  0  3.722878  0  0  -0.091606  0  3.970375  0  0  -0.092026  0  3.990113  0  0  -0.081238  -0.090912  0  3.955935  0
C  C38  1  0.39352049  0.75698057  0.98566950  1  0  0.678612  0  3.89359  0  0  0.634694  0  4.17787  0  0  0.668486  0  4.174777  0  0  0.216852  0.611431  0  4.183992  0
C  C39  1  0.60647633  0.24302557  0.01432846  1  0  0.678725  0  3.893226  0  0  0.634746  0  4.1776  0  0  0.668535  0  4.174513  0  0  0.216968  0.611482  0  4.183714  0
C  C40  1  0.44727482  0.88026088  0.99751611  1  0  -0.050831  0  3.744494  0  0  -0.028114  0  3.972996  0  0  -0.03363  0  3.993137  0  0  -0.007524  -0.024053  0  3.958335  0
C  C41  1  0.55272431  0.11974746  0.00247677  1  0  -0.050839  0  3.74455  0  0  -0.028142  0  3.973103  0  0  -0.033654  0  3.993246  0  0  -0.00758  -0.024081  0  3.958434  0
C  C42  1  0.61436079  0.88383509  0.98241811  1  0  -0.072305  0  3.727961  0  0  -0.095352  0  3.97783  0  0  -0.096445  0  3.99766  0  0  -0.075884  -0.094592  0  3.964703  0
C  C43  1  0.38563709  0.11617324  0.01757602  1  0  -0.072245  0  3.728049  0  0  -0.095283  0  3.977961  0  0  -0.096379  0  3.997792  0  0  -0.075851  -0.094517  0  3.964834  0
C  C44  1  0.33314938  0.99673074  0.01533566  1  0  -0.067081  0  3.724653  0  0  -0.089926  0  3.972513  0  0  -0.090699  0  3.992026  0  0  -0.078755  -0.089016  0  3.958705  0
C  C45  1  0.66684729  0.00327759  0.98465609  1  0  -0.067042  0  3.724656  0  0  -0.089784  0  3.972504  0  0  -0.090556  0  3.99202  0  0  -0.078761  -0.088875  0  3.9587  0
C  C46  1  0.83173460  0.21762513  0.31098520  1  0  0.638021  0  3.931684  0  0  0.592944  0  4.222072  0  0  0.625148  0  4.22174  0  0  0.196987  0.570352  0  4.226742  0
C  C47  1  0.16826415  0.78237340  0.68901688  1  0  0.638197  0  3.931571  0  0  0.593116  0  4.221934  0  0  0.625322  0  4.221594  0  0  0.197026  0.570526  0  4.226606  0
C  C48  1  0.91878944  0.10384351  0.40770006  1  0  -0.053962  0  3.743809  0  0  -0.029831  0  3.972073  0  0  -0.035781  0  3.993627  0  0  -0.009868  -0.026186  0  3.957429  0
C  C49  1  0.08121043  0.89615612  0.59230220  1  0  -0.05416  0  3.744013  0  0  -0.029961  0  3.972181  0  0  -0.035912  0  3.993736  0  0  -0.009889  -0.02632  0  3.957542  0
C  C50  1  0.09123514  0.07299309  0.36178077  1  0  -0.071101  0  3.732534  0  0  -0.094612  0  3.982537  0  0  -0.094995  0  4.001411  0  0  -0.080337  -0.094046  0  3.969653  0
C  C51  1  0.90876504  0.92700327  0.63822262  1  0  -0.071055  0  3.732505  0  0  -0.094562  0  3.982486  0  0  -0.094946  0  4.001362  0  0  -0.080341  -0.093995  0  3.969607  0
C  C52  1  0.82786703  0.02988561  0.54660727  1  0  -0.066448  0  3.713358  0  0  -0.089191  0  3.960275  0  0  -0.089837  0  3.978783  0  0  -0.077204  -0.088585  0  3.947809  0
C  C53  1  0.17213400  0.97011511  0.45339336  1  0  -0.066344  0  3.713522  0  0  -0.089103  0  3.960409  0  0  -0.08975  0  3.97892  0  0  -0.077175  -0.088503  0  3.947946  0
C  C54  1  0.80004902  0.68419662  0.20469168  1  0  0.759233  0  3.897031  0  0  0.690903  0  4.201028  0  0  0.725697  0  4.19712  0  0  0.346751  0.667397  0  4.203939  0
C  C55  1  0.19995459  0.31580303  0.79530773  1  0  0.759015  0  3.897337  0  0  0.690655  0  4.201368  0  0  0.725446  0  4.197465  0  0  0.346606  0.667148  0  4.204277  0
C  C56  1  0.70444170  0.83855719  0.32974240  1  0  0.0494  0  3.591002  0  0  -0.009395  0  3.857673  0  0  -0.00498  0  3.867999  0  0  -0.047719  -0.01225  0  3.850473  0
C  C57  1  0.29556562  0.16144247  0.67025778  1  0  0.049438  0  3.591013  0  0  -0.009458  0  3.857817  0  0  -0.005028  0  3.868116  0  0  -0.047729  -0.012316  0  3.850616  0
C  C58  1  0.88862910  0.86384998  0.24008205  1  0  0.040708  0  3.601778  0  0  -0.020242  0  3.871579  0  0  -0.016491  0  3.883085  0  0  -0.054055  -0.022694  0  3.863654  0
C  C59  1  0.11137709  0.13614860  0.75991704  1  0  0.040635  0  3.60193  0  0  -0.020299  0  3.871706  0  0  -0.016515  0  3.883217  0  0  -0.054108  -0.022751  0  3.863777  0
N  N60  1  0.67733968  0.71078856  0.31198308  1  0  -0.491986  0  3.219173  0  0  -0.433149  0  3.470144  0  0  -0.454159  0  3.475238  0  0  -0.424704  -0.418877  0  3.466063  0
N  N61  1  0.32266792  0.28920784  0.68801915  1  0  -0.491938  0  3.219209  0  0  -0.433028  0  3.470163  0  0  -0.45404  0  3.475255  0  0  -0.424604  -0.418759  0  3.466084  0
N  N62  1  0.92104610  0.77617677  0.15474831  1  0  -0.486227  0  3.194022  0  0  -0.424303  0  3.442998  0  0  -0.444378  0  3.446465  0  0  -0.426682  -0.40992  0  3.43928  0
N  N63  1  0.07895647  0.22382070  0.84525219  1  0  -0.486158  0  3.193918  0  0  -0.424238  0  3.442894  0  0  -0.444302  0  3.446341  0  0  -0.426674  -0.409854  0  3.43917  0
O  O64  1  0.36574423  0.36969562  0.26721495  1  0  -0.712295  0  2.0194  0  0  -0.653048  0  2.248932  0  0  -0.684719  0  2.239452  0  0  -0.374096  -0.635424  0  2.254612  0
O  O65  1  0.63425773  0.63030837  0.73278420  1  0  -0.712344  0  2.01919  0  0  -0.65313  0  2.248729  0  0  -0.684797  0  2.239253  0  0  -0.374141  -0.635507  0  2.254407  0
O  O66  1  0.82451956  0.54699761  0.89957038  1  0  -0.930392  0  1.848907  0  0  -0.886484  0  2.052902  0  0  -0.9129  0  2.015128  0  0  -0.662077  -0.873652  0  2.075877  0
O  O67  1  0.17548352  0.45299443  0.10043111  1  0  -0.930575  0  1.848772  0  0  -0.886654  0  2.052749  0  0  -0.913074  0  2.014996  0  0  -0.66214  -0.873824  0  2.075726  0
O  O68  1  0.45242610  0.52527380  0.32034446  1  0  -0.686288  0  1.973278  0  0  -0.641735  0  2.211787  0  0  -0.671464  0  2.201661  0  0  -0.36134  -0.625386  0  2.217723  0
O  O69  1  0.54757482  0.47472800  0.67965671  1  0  -0.686289  0  1.973246  0  0  -0.641737  0  2.211738  0  0  -0.671461  0  2.201613  0  0  -0.361319  -0.625387  0  2.217665  0
O  O70  1  0.47665660  0.63325698  0.01207363  1  0  -0.795324  0  2.132214  0  0  -0.735331  0  2.385672  0  0  -0.774337  0  2.375877  0  0  -0.405675  -0.717272  0  2.391483  0
O  O71  1  0.52334391  0.36674917  0.98792602  1  0  -0.795398  0  2.132293  0  0  -0.735376  0  2.385775  0  0  -0.77438  0  2.375984  0  0  -0.405713  -0.717317  0  2.391577  0
O  O72  1  0.26942701  0.77831765  0.94166093  1  0  -0.690683  0  1.971644  0  0  -0.643666  0  2.209315  0  0  -0.673331  0  2.199309  0  0  -0.35933  -0.627616  0  2.215346  0
O  O73  1  0.73056914  0.22168195  0.05834328  1  0  -0.690788  0  1.971441  0  0  -0.643719  0  2.209098  0  0  -0.673392  0  2.199104  0  0  -0.359428  -0.627671  0  2.215126  0
O  O74  1  0.67376236  0.23719368  0.35275939  1  0  -0.687298  0  1.932339  0  0  -0.644503  0  2.163595  0  0  -0.674573  0  2.154158  0  0  -0.382495  -0.628459  0  2.16929  0
O  O75  1  0.32623421  0.76280158  0.64724451  1  0  -0.687334  0  1.932356  0  0  -0.644549  0  2.16362  0  0  -0.674615  0  2.154181  0  0  -0.382521  -0.628504  0  2.169318  0
O  O76  1  0.91671896  0.29460535  0.18768304  1  0  -0.693775  0  2.007516  0  0  -0.636236  0  2.239304  0  0  -0.666854  0  2.229186  0  0  -0.359983  -0.619406  0  2.246516  0
O  O77  1  0.08327689  0.70539751  0.81232096  1  0  -0.693871  0  2.00744  0  0  -0.636342  0  2.23925  0  0  -0.666946  0  2.229102  0  0  -0.359981  -0.619513  0  2.246469  0
O  O78  1  0.80245380  0.59028223  0.15611020  1  0  -0.750495  0  2.050528  0  0  -0.700459  0  2.319506  0  0  -0.73245  0  2.303843  0  0  -0.415461  -0.684191  0  2.32785  0
O  O79  1  0.19754642  0.40971415  0.84388865  1  0  -0.750425  0  2.050733  0  0  -0.700354  0  2.319659  0  0  -0.732339  0  2.304007  0  0  -0.415384  -0.684085  0  2.328  0
