# generated using pymatgen
data_LaCuH14C16N2O13
_symmetry_space_group_name_H-M   'P 1'
_cell_length_a   8.23928402
_cell_length_b   11.09038050
_cell_length_c   12.16382039
_cell_angle_alpha   107.92929807
_cell_angle_beta   103.60706684
_cell_angle_gamma   95.48635542
_symmetry_Int_Tables_number   1
_chemical_formula_structural   LaCuH14C16N2O13
_chemical_formula_sum   'La2 Cu2 H28 C32 N4 O26'
_cell_volume   1010.72035685
_cell_formula_units_Z   2
loop_
 _symmetry_equiv_pos_site_id
 _symmetry_equiv_pos_as_xyz
  1  'x, y, z'
loop_
 _atom_site_type_symbol
 _atom_site_label
 _atom_site_symmetry_multiplicity
 _atom_site_fract_x
 _atom_site_fract_y
 _atom_site_fract_z
 _atom_site_occupancy
 _atom_site_hle17_ddec_charge
 _atom_site_hle17_ddec_spin_density
 _atom_site_hle17_ddec_sum_bond_order
 _atom_site_hle17_magmom
 _atom_site_hse06_10hf_ddec_charge
 _atom_site_hse06_10hf_ddec_spin_density
 _atom_site_hse06_10hf_ddec_sum_bond_order
 _atom_site_hse06_10hf_magmom
 _atom_site_hse06_ddec_charge
 _atom_site_hse06_ddec_spin_density
 _atom_site_hse06_ddec_sum_bond_order
 _atom_site_hse06_magmom
 _atom_site_pbe_cm5_charge
 _atom_site_pbe_ddec_charge
 _atom_site_pbe_ddec_spin_density
 _atom_site_pbe_ddec_sum_bond_order
 _atom_site_pbe_magmom
La  La0  1  0.06313428  0.77538654  0.08611600  1  2.119272  -0.000388  1.729011  0.0  2.003911  -0.00021  2.234092  0.0  2.100111  -6.8e-05  2.138044  0.0  1.379778  1.931498  -0.000479  2.301485  0.0
La  La1  1  0.93686529  0.22462137  0.91387164  1  2.119221  0.000486  1.729227  0.0  2.003894  0.000209  2.234318  0.0  2.100086  9e-05  2.13827  0.0  1.379821  1.931517  0.00048  2.301664  0.0
Cu  Cu2  1  0.00450441  0.73448578  0.54345363  1  0.82304  -0.732854  1.889352  -0.51  0.790753  -0.809173  2.298335  -0.619  0.878327  -0.883743  2.229954  -0.703  0.755293  0.738319  -0.754214  2.344829  -0.564
Cu  Cu3  1  0.99549808  0.26550845  0.45654115  1  0.82287  0.73277  1.889417  0.51  0.790438  0.809161  2.298549  0.619  0.878037  0.883727  2.230208  0.703  0.755299  0.738207  0.75421  2.344806  0.563
H  H4  1  0.03933106  0.85044696  0.84383529  1  0.427715  1e-05  0.871171  0.0  0.398695  1e-05  0.93208  0.0  0.410424  1e-06  0.91523  0.0  0.295875  0.390278  2.3e-05  0.944142  0.0
H  H5  1  0.96063988  0.14955923  0.15616817  1  0.428024  -9e-06  0.870722  0.0  0.398961  -1e-05  0.931726  0.0  0.410696  -1e-06  0.914861  0.0  0.295973  0.39054  -2.3e-05  0.943794  0.0
H  H6  1  0.87856401  0.88012960  0.88610218  1  0.439126  -2e-06  0.855947  0.0  0.411041  -1e-06  0.91524  0.0  0.423081  -0.0  0.897781  0.0  0.301528  0.402355  -2e-06  0.927808  0.0
H  H7  1  0.12140884  0.11988812  0.11390985  1  0.439254  3e-06  0.855834  0.0  0.411225  1e-06  0.915011  0.0  0.423263  -0.0  0.897554  0.0  0.301609  0.402536  2e-06  0.927583  0.0
H  H8  1  0.81468796  0.54078165  0.96362803  1  0.394447  -1e-05  0.926916  0.0  0.362343  -8e-06  0.998541  0.0  0.373622  -5e-06  0.981975  0.0  0.292571  0.354226  -1.1e-05  1.010417  0.0
H  H9  1  0.18533283  0.45919579  0.03637363  1  0.394558  1e-05  0.926853  0.0  0.362473  8e-06  0.998353  0.0  0.373751  5e-06  0.981789  0.0  0.292678  0.354359  1.1e-05  1.010225  0.0
H  H10  1  0.80337616  0.59602713  0.85759959  1  0.417689  6.9e-05  0.891492  0.0  0.388496  3.1e-05  0.954513  0.0  0.398154  2.8e-05  0.940632  0.0  0.297814  0.381579  2.9e-05  0.964443  0.0
H  H11  1  0.19663735  0.40394656  0.14239826  1  0.417729  -6.9e-05  0.891425  0.0  0.388547  -3e-05  0.95443  0.0  0.398202  -2.8e-05  0.940553  0.0  0.297868  0.381631  -2.9e-05  0.964358  0.0
H  H12  1  0.24491559  0.62110961  0.25067502  1  0.445087  8e-05  0.844634  0.0  0.41567  7.2e-05  0.905556  0.0  0.425988  3.6e-05  0.89053  0.0  0.310603  0.408273  0.000114  0.916312  0.0
H  H13  1  0.75508436  0.37887605  0.74930621  1  0.445033  -8.1e-05  0.844715  0.0  0.415554  -7.2e-05  0.905709  0.0  0.425868  -3.6e-05  0.890693  0.0  0.310592  0.408156  -0.000114  0.916464  0.0
H  H14  1  0.36132340  0.63516582  0.16790845  1  0.426013  6e-06  0.822522  0.0  0.410475  4e-06  0.874911  0.0  0.418259  2e-06  0.866728  0.0  0.328878  0.404897  6e-06  0.880779  0.0
H  H15  1  0.63865952  0.36482207  0.83206597  1  0.425945  -6e-06  0.822694  0.0  0.410463  -4e-06  0.874996  0.0  0.418246  -3e-06  0.866814  0.0  0.328842  0.404884  -6e-06  0.880862  0.0
H  H16  1  0.54420054  0.98342483  0.28743051  1  0.109207  -0.000174  0.931362  0.0  0.121398  2.8e-05  0.987675  0.0  0.123995  3.4e-05  0.985978  0.0  0.120187  0.119337  1.3e-05  0.989183  0.0
H  H17  1  0.45580318  0.01657317  0.71257460  1  0.109163  0.000173  0.931339  0.0  0.121347  -2.8e-05  0.987676  0.0  0.123943  -3.4e-05  0.985976  0.0  0.120182  0.119285  -1.3e-05  0.989189  0.0
H  H18  1  0.44220949  0.87970975  0.41913213  1  0.124156  -0.000534  0.957955  -0.001  0.129848  -0.000548  1.02195  -0.001  0.134477  -0.00039  1.018997  0.0  0.115047  0.126496  -0.000671  1.024188  -0.001
H  H19  1  0.55778498  0.12027676  0.58086909  1  0.124158  0.000534  0.957956  0.001  0.129884  0.000548  1.021947  0.001  0.134506  0.00039  1.019007  0.0  0.115036  0.126545  0.000671  1.02415  0.001
H  H20  1  0.64647096  0.77542859  0.53621102  1  0.097055  -0.001075  0.926764  -0.002  0.108774  -0.000896  0.98184  -0.002  0.111496  -0.00067  0.978834  -0.001  0.127171  0.106481  -0.001063  0.98441  -0.002
H  H21  1  0.35352936  0.22454724  0.46378467  1  0.097081  0.001073  0.926633  0.002  0.108786  0.000896  0.981724  0.002  0.111511  0.000669  0.978713  0.001  0.127196  0.106492  0.001063  0.984286  0.002
H  H22  1  0.45359570  0.51623104  0.83588978  1  0.104612  -8.7e-05  0.929321  0.0  0.117542  4e-05  0.983119  0.0  0.121788  4.3e-05  0.978894  0.0  0.114678  0.114244  2.7e-05  0.986582  0.0
H  H23  1  0.54643564  0.48378691  0.16412111  1  0.104499  8.8e-05  0.929419  0.0  0.117537  -3.9e-05  0.98311  0.0  0.121782  -4.3e-05  0.978891  0.0  0.11463  0.11424  -2.6e-05  0.986573  0.0
H  H24  1  0.56435336  0.59831641  0.69284107  1  0.124191  -0.000412  0.956812  0.0  0.130224  -0.000409  1.017086  0.0  0.135583  -0.000298  1.013248  0.0  0.113193  0.126239  -0.000499  1.020107  -0.001
H  H25  1  0.43564574  0.40170196  0.30716928  1  0.124319  0.000411  0.956776  0.0  0.130291  0.000409  1.017098  0.0  0.135683  0.000298  1.013224  0.0  0.113228  0.126307  0.000499  1.020118  0.001
H  H26  1  0.36404117  0.68310001  0.55448873  1  0.09562  -0.000984  0.920432  -0.002  0.106421  -0.000856  0.97761  -0.001  0.109306  -0.000642  0.974489  -0.001  0.127344  0.104118  -0.001022  0.980172  -0.002
H  H27  1  0.63596116  0.31690669  0.44552117  1  0.095795  0.000984  0.920302  0.002  0.106497  0.000856  0.977586  0.001  0.109378  0.000642  0.97447  0.001  0.127392  0.104168  0.001021  0.980174  0.002
H  H28  1  0.56564343  0.08913643  0.13259797  1  0.105148  8e-06  0.927342  0.0  0.12009  4e-06  0.987345  0.0  0.121384  5e-06  0.987876  0.0  0.101401  0.119296  2e-06  0.986892  0.0
H  H29  1  0.43436624  0.91087883  0.86741879  1  0.104932  -9e-06  0.927423  0.0  0.119835  -4e-06  0.987474  0.0  0.121129  -5e-06  0.988006  0.0  0.101337  0.119037  -2e-06  0.987026  0.0
H  H30  1  0.40111870  0.11301690  0.02468545  1  0.125629  -4e-06  0.926949  0.0  0.139158  -1e-06  0.983907  0.0  0.142304  -2e-06  0.981971  0.0  0.108854  0.136872  0.0  0.985452  0.0
H  H31  1  0.59882578  0.88699572  0.97529047  1  0.125767  4e-06  0.926671  0.0  0.139154  1e-06  0.983744  0.0  0.142298  2e-06  0.981803  0.0  0.10892  0.136874  -0.0  0.985288  0.0
C  C32  1  0.89341624  0.86604292  0.38773274  1  0.061408  0.004553  3.732848  0.005  0.05692  0.000487  3.980468  0.001  0.060432  0.001407  3.999654  0.002  0.110494  0.054429  -0.000168  3.968691  0.001
C  C33  1  0.10657070  0.13393511  0.61225338  1  0.061385  -0.004547  3.732715  -0.005  0.056747  -0.000484  3.980569  -0.001  0.06026  -0.001407  3.999754  -0.002  0.110448  0.054264  0.000169  3.968801  -0.001
C  C34  1  0.79108911  0.92810051  0.32200861  1  -0.074939  -0.005903  3.667043  -0.005  -0.063153  -0.002403  3.905826  -0.002  -0.070432  -0.002446  3.923426  -0.002  0.012354  -0.059205  -0.00243  3.895092  -0.002
C  C35  1  0.20891516  0.07190424  0.67799937  1  -0.074913  0.005895  3.666859  0.005  -0.06307  0.002401  3.905656  0.002  -0.070349  0.002443  3.923255  0.002  0.012348  -0.059146  0.002429  3.894926  0.002
C  C36  1  0.62771058  0.93489487  0.33591717  1  0.0058  0.007917  3.624042  0.007  -0.021862  0.002694  3.870815  0.002  -0.015806  0.002974  3.884071  0.003  -0.048034  -0.026074  0.002424  3.862652  0.002
C  C37  1  0.37228578  0.06509457  0.66408025  1  0.005845  -0.007903  3.623943  -0.007  -0.021786  -0.002694  3.870736  -0.002  -0.015727  -0.002971  3.883992  -0.003  -0.048022  -0.025996  -0.002423  3.862582  -0.002
C  C38  1  0.57087660  0.87888003  0.41105873  1  -0.080127  -0.009674  3.680865  -0.01  -0.094208  -0.004251  3.934953  -0.005  -0.098674  -0.003919  3.949476  -0.005  -0.064625  -0.091477  -0.004457  3.925441  -0.005
C  C39  1  0.42912433  0.12111220  0.58894346  1  -0.080118  0.009658  3.681133  0.01  -0.094304  0.004253  3.935324  0.005  -0.098773  0.003917  3.949843  0.005  -0.064646  -0.091571  0.004456  3.92581  0.005
C  C40  1  0.68059452  0.81964239  0.47436257  1  0.147702  0.006082  3.650672  0.007  0.115202  0.00072  3.907236  0.002  0.125738  0.001811  3.92244  0.003  0.058369  0.108463  -0.00016  3.89745  0.001
C  C41  1  0.31939975  0.18033451  0.52562925  1  0.147632  -0.006068  3.650802  -0.007  0.115177  -0.000722  3.907349  -0.002  0.125714  -0.00181  3.922547  -0.003  0.058358  0.108436  0.000161  3.897568  -0.001
C  C42  1  0.07229004  0.85116560  0.38511727  1  0.627565  0.004023  3.907139  0.006  0.578726  -0.000385  4.215292  0.001  0.615956  -0.000204  4.208954  0.001  0.216035  0.553085  -0.000536  4.218963  0.002
C  C43  1  0.92770684  0.14883437  0.61489234  1  0.627685  -0.004024  3.906874  -0.006  0.578854  0.000382  4.215117  -0.001  0.616079  0.000201  4.208784  -0.001  0.216167  0.553206  0.000535  4.218804  -0.002
C  C44  1  0.84756145  0.98327111  0.23493805  1  0.696488  -0.001216  3.893288  -0.001  0.645544  -0.001033  4.197838  -0.001  0.682838  -0.000686  4.187745  -0.001  0.231999  0.620103  -0.001379  4.203581  -0.001
C  C45  1  0.15243579  0.01672708  0.76505546  1  0.696569  0.001214  3.89325  0.001  0.645689  0.001032  4.197705  0.001  0.682984  0.000686  4.187604  0.001  0.232085  0.620263  0.001379  4.20344  0.001
C  C46  1  0.09333143  0.58300086  0.68278589  1  0.061053  0.001883  3.713777  0.003  0.051431  -0.000931  3.972274  0.0  0.054018  -3.5e-05  3.990898  0.001  0.111275  0.048966  -0.001647  3.961705  -0.001
C  C47  1  0.90669779  0.41697657  0.31720550  1  0.061103  -0.001902  3.713701  -0.003  0.051468  0.000931  3.972116  0.0  0.054036  3.6e-05  3.990785  -0.001  0.111221  0.049007  0.001646  3.961553  0.001
C  C48  1  0.19552153  0.53772443  0.76460949  1  -0.05864  -0.003971  3.662579  -0.004  -0.047237  -0.00184  3.905326  -0.001  -0.05279  -0.001805  3.921583  -0.002  0.016939  -0.044296  -0.001903  3.895781  -0.001
C  C49  1  0.80450855  0.46227417  0.23539887  1  -0.058812  0.00399  3.662775  0.004  -0.047159  0.001838  3.905113  0.001  -0.052706  0.001802  3.92138  0.002  0.016979  -0.044219  0.001902  3.895565  0.001
C  C50  1  0.36817637  0.54573696  0.76975368  1  -0.000674  0.005209  3.639331  0.005  -0.028105  0.001475  3.884828  0.001  -0.023175  0.001793  3.898158  0.002  -0.048811  -0.031598  0.001077  3.876502  0.001
C  C51  1  0.63184970  0.45426559  0.23025276  1  -0.000459  -0.005232  3.63943  -0.005  -0.028115  -0.001474  3.884907  -0.001  -0.023188  -0.001792  3.898243  -0.002  -0.048793  -0.031611  -0.001077  3.876585  -0.001
C  C52  1  0.43162470  0.59454303  0.69264751  1  -0.079333  -0.007401  3.662829  -0.008  -0.089898  -0.00334  3.909616  -0.004  -0.094806  -0.002985  3.924894  -0.004  -0.063391  -0.086808  -0.00357  3.899662  -0.004
C  C53  1  0.56838878  0.40548669  0.30737402  1  -0.079469  0.007423  3.662927  0.008  -0.089956  0.00334  3.90973  0.004  -0.094884  0.002985  3.924994  0.004  -0.063369  -0.086865  0.00357  3.899762  0.004
C  C54  1  0.32236838  0.64048929  0.61510337  1  0.151711  0.004778  3.654024  0.005  0.118608  0.000288  3.911579  0.001  0.129492  0.001246  3.926169  0.002  0.061441  0.111496  -0.000587  3.902253  0.0
C  C55  1  0.67765157  0.35953645  0.38491879  1  0.151407  -0.004792  3.654083  -0.005  0.118386  -0.000288  3.911591  -0.001  0.129276  -0.001246  3.926196  -0.002  0.061303  0.111294  0.00059  3.902273  0.0
C  C56  1  0.90608578  0.58154692  0.66602781  1  0.632148  0.004079  3.900993  0.006  0.577161  -0.000228  4.217495  0.002  0.613132  -4.6e-05  4.210339  0.001  0.218454  0.55247  -0.000375  4.222199  0.002
C  C57  1  0.09393723  0.41843922  0.33397424  1  0.632423  -0.004077  3.900925  -0.006  0.57728  0.000227  4.217599  -0.002  0.613259  4.5e-05  4.210442  -0.001  0.218488  0.552589  0.000375  4.222313  -0.002
C  C58  1  0.12896233  0.48489080  0.84902114  1  0.702443  -0.000869  3.891556  -0.001  0.651361  -0.000774  4.190179  -0.001  0.688456  -0.000483  4.179798  -0.001  0.235199  0.625866  -0.001081  4.196388  -0.001
C  C59  1  0.87106017  0.51510310  0.15098063  1  0.702459  0.000868  3.891676  0.001  0.651435  0.000771  4.190071  0.001  0.688524  0.000484  4.179705  0.001  0.235068  0.625945  0.001082  4.196277  0.001
C  C60  1  0.33835362  0.95308568  0.07810999  1  0.684453  7e-06  3.865501  0.0  0.640203  2e-06  4.174646  0.0  0.672546  1e-06  4.17151  0.0  0.1953  0.618077  7e-06  4.175744  0.0
C  C61  1  0.66160710  0.04694876  0.92189359  1  0.684279  -5e-06  3.865139  0.0  0.63985  -3e-06  4.174465  0.0  0.672227  0.0  4.171281  0.0  0.194963  0.617708  -7e-06  4.175592  0.0
C  C62  1  0.46310495  0.03800562  0.04907283  1  -0.241208  -8e-06  3.683737  0.0  -0.279782  -7e-06  3.932916  0.0  -0.284103  -5e-06  3.939442  0.0  -0.165443  -0.27688  -7e-06  3.928534  0.0
C  C63  1  0.53685927  0.96204020  0.95095349  1  -0.240758  1e-05  3.683133  0.0  -0.279085  7e-06  3.932331  0.0  -0.283411  5e-06  3.938836  0.0  -0.165324  -0.276185  8e-06  3.927955  0.0
N  N64  1  0.83727118  0.81454447  0.46209108  1  -0.305101  -0.07969  3.397993  -0.097  -0.265925  -0.054038  3.703875  -0.07  -0.295236  -0.045484  3.724274  -0.062  -0.355636  -0.248947  -0.058282  3.692448  -0.073
N  N65  1  0.16272818  0.18545170  0.53790791  1  -0.305072  0.079667  3.397979  0.097  -0.265788  0.05403  3.703857  0.07  -0.295104  0.045474  3.724267  0.062  -0.355612  -0.248856  0.058271  3.692441  0.073
N  N66  1  0.15867401  0.63567485  0.61240179  1  -0.304554  -0.069327  3.390937  -0.084  -0.263018  -0.048373  3.694025  -0.062  -0.291255  -0.040547  3.714842  -0.054  -0.353473  -0.246536  -0.052541  3.682429  -0.065
N  N67  1  0.84134661  0.36432582  0.38760495  1  -0.304575  0.069342  3.39081  0.084  -0.263  0.048375  3.693849  0.062  -0.29126  0.040546  3.714705  0.054  -0.35355  -0.246559  0.052537  3.682259  0.065
O  O68  1  0.96863553  0.82614213  0.89255085  1  -0.890743  0.000141  1.818323  0.0  -0.840581  8e-05  1.999901  0.0  -0.867585  6.1e-05  1.966996  0.0  -0.633128  -0.820732  0.000109  2.022948  0.0
O  O69  1  0.03132008  0.17385852  0.10744380  1  -0.891095  -0.000141  1.817811  0.0  -0.841008  -7.9e-05  1.999466  0.0  -0.868009  -5.9e-05  1.966555  0.0  -0.633293  -0.821155  -0.000109  2.022521  0.0
O  O70  1  0.15020111  0.79658048  0.45612095  1  -0.567614  -0.093768  2.024423  -0.122  -0.548287  -0.062867  2.314926  -0.09  -0.589796  -0.048816  2.305968  -0.073  -0.316186  -0.521007  -0.0716  2.321106  -0.098
O  O71  1  0.84978143  0.20340329  0.54387853  1  -0.567579  0.093785  2.023956  0.122  -0.548232  0.062881  2.314492  0.09  -0.589734  0.048818  2.305534  0.073  -0.316214  -0.521029  0.071613  2.320759  0.098
O  O72  1  0.78923941  0.61634160  0.93955602  1  -0.858996  3.5e-05  1.853611  0.0  -0.814259  2.3e-05  2.027936  0.0  -0.838766  3e-05  1.997646  0.0  -0.626307  -0.796411  1.5e-05  2.049139  0.0
O  O73  1  0.21077187  0.38363309  0.06044179  1  -0.859069  -3.5e-05  1.85354  0.0  -0.814378  -2.4e-05  2.027875  0.0  -0.838881  -2.9e-05  1.997584  0.0  -0.626431  -0.796531  -1.5e-05  2.049079  0.0
O  O74  1  0.13744887  0.89243396  0.31708410  1  -0.619875  -0.016301  1.991579  -0.02  -0.576375  -0.008285  2.233165  -0.011  -0.608928  -0.004114  2.227727  -0.006  -0.337154  -0.552044  -0.012946  2.23551  -0.017
O  O75  1  0.86253661  0.10755657  0.68291450  1  -0.619914  0.016308  1.99162  0.02  -0.576427  0.008288  2.233247  0.011  -0.608981  0.00412  2.22781  0.006  -0.337215  -0.552094  0.012951  2.235597  0.017
O  O76  1  0.87905559  0.10450193  0.26331517  1  -0.62547  -0.002294  2.008265  -0.002  -0.580275  -0.001215  2.252194  -0.001  -0.611513  -0.001081  2.240827  -0.001  -0.300239  -0.558455  -0.001472  2.259732  -0.001
O  O77  1  0.12092894  0.89549926  0.73668638  1  -0.625436  0.002295  2.008331  0.002  -0.580334  0.001216  2.252183  0.001  -0.611562  0.001082  2.240809  0.001  -0.300276  -0.558486  0.001473  2.259725  0.001
O  O78  1  0.28651179  0.67850728  0.21131866  1  -0.849558  0.00011  1.866799  0.0  -0.806506  9e-05  2.052249  0.0  -0.829553  3.3e-05  2.027764  0.0  -0.600938  -0.7897  0.000138  2.069235  0.0
O  O79  1  0.71349610  0.32148883  0.78867418  1  -0.849467  -0.00011  1.867103  0.0  -0.806387  -9e-05  2.052587  0.0  -0.829433  -3.2e-05  2.028099  0.0  -0.600911  -0.789579  -0.000138  2.069575  0.0
O  O80  1  0.84853776  0.90292197  0.13485252  1  -0.678665  -0.001461  1.988699  -0.002  -0.627923  -0.00086  2.235733  -0.001  -0.661821  -0.00053  2.225989  -0.001  -0.384862  -0.602724  -0.001198  2.241002  -0.001
O  O81  1  0.15145771  0.09707432  0.86513936  1  -0.678789  0.00146  1.988637  0.002  -0.628077  0.00086  2.235707  0.001  -0.661979  0.000528  2.225965  0.001  -0.384923  -0.602876  0.001198  2.240973  0.001
O  O82  1  0.83824185  0.64424153  0.60001845  1  -0.566082  -0.091773  2.039405  -0.119  -0.541441  -0.063059  2.321135  -0.089  -0.582415  -0.049265  2.312619  -0.074  -0.314491  -0.514466  -0.07167  2.327102  -0.098
O  O83  1  0.16178315  0.35574749  0.39998390  1  -0.566016  0.091762  2.03938  0.119  -0.541276  0.063067  2.321136  0.089  -0.58225  0.04927  2.312625  0.074  -0.314396  -0.514349  0.071674  2.327101  0.098
O  O84  1  0.82517980  0.52020808  0.71375439  1  -0.617235  -0.013746  2.034391  -0.017  -0.560234  -0.007601  2.257943  -0.01  -0.585877  -0.00388  2.247486  -0.005  -0.294583  -0.541506  -0.011608  2.264373  -0.015
O  O85  1  0.17482102  0.47978905  0.28624346  1  -0.617369  0.013737  2.03426  0.017  -0.56032  0.0076  2.257876  0.01  -0.585969  0.003878  2.247415  0.005  -0.294562  -0.541598  0.011604  2.264313  0.015
O  O86  1  0.08149424  0.36462016  0.81563691  1  -0.660479  -0.001174  2.00786  -0.001  -0.612432  -0.000707  2.25369  -0.001  -0.645338  -0.000445  2.247071  0.0  -0.344718  -0.588611  -0.001048  2.257351  -0.001
O  O87  1  0.91851989  0.63537209  0.18434669  1  -0.660604  0.001175  2.007941  0.001  -0.612524  0.000708  2.253666  0.001  -0.645431  0.000444  2.247047  0.0  -0.344656  -0.588705  0.001048  2.257326  0.001
O  O88  1  0.13687942  0.56473524  0.95202210  1  -0.710766  -0.001158  2.041637  -0.001  -0.654369  -0.000641  2.287007  -0.001  -0.687358  -0.000381  2.276764  -0.001  -0.348018  -0.63022  -0.000932  2.292998  -0.001
O  O89  1  0.86316187  0.43527395  0.04797866  1  -0.710701  0.001159  2.041772  0.001  -0.654379  0.000643  2.287165  0.001  -0.687345  0.00038  2.276875  0.001  -0.34794  -0.63023  0.000932  2.293154  0.001
O  O90  1  0.33814765  0.83202560  0.04746881  1  -0.662941  9e-06  1.907644  0.0  -0.624267  1.7e-05  2.146564  0.0  -0.655483  2.6e-05  2.141009  0.0  -0.391015  -0.601735  -0.0  2.149419  0.0
O  O91  1  0.66186850  0.16801420  0.95250999  1  -0.663054  -1.2e-05  1.907929  0.0  -0.624277  -1.5e-05  2.146932  0.0  -0.655506  -2.7e-05  2.141354  0.0  -0.390998  -0.601737  0.0  2.149806  0.0
O  O92  1  0.23370445  0.00272495  0.13464203  1  -0.6959  -5e-05  1.961601  0.0  -0.649997  -2.1e-05  2.198601  0.0  -0.680342  -1.1e-05  2.188842  0.0  -0.367091  -0.6282  -4.1e-05  2.2045  0.0
O  O93  1  0.76625678  0.99729097  0.86537105  1  -0.695748  4.8e-05  1.961585  0.0  -0.649751  2.1e-05  2.198648  0.0  -0.680113  9e-06  2.188882  0.0  -0.36683  -0.627948  4.1e-05  2.204555  0.0
