# generated using pymatgen
data_CoH25C30(N2O3)2
_symmetry_space_group_name_H-M   'P 1'
_cell_length_a   13.59981872
_cell_length_b   14.06716089
_cell_length_c   14.06717226
_cell_angle_alpha   74.07859136
_cell_angle_beta   86.16431330
_cell_angle_gamma   86.16447193
_symmetry_Int_Tables_number   1
_chemical_formula_structural   CoH25C30(N2O3)2
_chemical_formula_sum   'Co4 H100 C120 N16 O24'
_cell_volume   2578.86123962
_cell_formula_units_Z   4
loop_
 _symmetry_equiv_pos_site_id
 _symmetry_equiv_pos_as_xyz
  1  'x, y, z'
loop_
 _atom_site_type_symbol
 _atom_site_label
 _atom_site_symmetry_multiplicity
 _atom_site_fract_x
 _atom_site_fract_y
 _atom_site_fract_z
 _atom_site_occupancy
 _atom_site_pbe_bader_charge
 _atom_site_pbe_bader_spin_density
 _atom_site_pbe_cm5_charge
 _atom_site_pbe_ddec_charge
 _atom_site_pbe_ddec_spin_density
 _atom_site_pbe_ddec_sum_bond_order
 _atom_site_pbe_magmom
Co  Co0  1  0.17465482  0.88235237  0.51934512  1  1.208298  2.567661  0.682919  0.823439  2.782601  2.527608  2.51
Co  Co1  1  0.32534611  0.48065348  0.11764394  1  1.208229  2.567631  0.682962  0.823489  2.782576  2.527858  2.51
Co  Co2  1  0.82534600  0.11764981  0.48065642  1  1.208413  2.567644  0.68297  0.823513  2.782587  2.527633  2.51
Co  Co3  1  0.67465134  0.51934285  0.88235296  1  1.208279  2.567641  0.682955  0.823401  2.782585  2.527833  2.51
H  H4  1  0.67845859  0.93605402  0.50811836  1  0.16234  0.000697  0.139325  0.109318  0.000166  1.014297  0.0
H  H5  1  0.82154388  0.49188098  0.06393869  1  0.162979  0.000697  0.139336  0.109308  0.000167  1.01426  0.0
H  H6  1  0.32153474  0.06394964  0.49188891  1  0.162895  0.000697  0.139268  0.109274  0.000167  1.014392  0.0
H  H7  1  0.17845661  0.50811387  0.93605487  1  0.162945  0.000697  0.139304  0.10926  0.000167  1.01437  0.0
H  H8  1  0.95574374  0.94958074  0.61891360  1  0.144138  0.000986  0.121951  0.120758  0.000146  1.029478  0.001
H  H9  1  0.54425590  0.38108450  0.05042077  1  0.14423  0.000986  0.121942  0.120766  0.000146  1.02945  0.001
H  H10  1  0.04425471  0.05042595  0.38107905  1  0.144285  0.000986  0.121913  0.120747  0.000146  1.029391  0.001
H  H11  1  0.45574278  0.61891622  0.94958057  1  0.144247  0.000986  0.121953  0.120783  0.000146  1.029389  0.001
H  H12  1  0.88834337  0.75915629  0.69853443  1  0.127255  0.000913  0.127288  0.131737  0.000311  0.999433  0.0
H  H13  1  0.61165997  0.30146731  0.24085009  1  0.125548  0.000915  0.127244  0.131673  0.000311  0.999474  0.0
H  H14  1  0.11166181  0.24084814  0.30145986  1  0.126971  0.000913  0.127274  0.13172  0.000311  0.999516  0.0
H  H15  1  0.38833682  0.69854153  0.75915417  1  0.127028  0.000913  0.127263  0.131692  0.000311  0.999475  0.0
H  H16  1  0.73731851  0.68682628  0.58494297  1  0.089191  0.000312  0.107659  0.091665  0.000104  0.982525  0.0
H  H17  1  0.76267971  0.41506283  0.31316696  1  0.08906  0.000312  0.10766  0.091664  0.000104  0.98256  0.0
H  H18  1  0.26268451  0.31317667  0.41505397  1  0.089284  0.000312  0.107645  0.091651  0.000104  0.98257  0.0
H  H19  1  0.23731594  0.58494015  0.68683040  1  0.089089  0.000312  0.107606  0.091602  0.000104  0.982607  0.0
H  H20  1  0.71657320  0.69465743  0.70786327  1  0.076079  0.000454  0.113585  0.094646  0.000135  1.013178  0.0
H  H21  1  0.78342434  0.29213873  0.30534007  1  0.075889  0.000454  0.113577  0.094609  0.000134  1.013146  0.0
H  H22  1  0.28342687  0.30534553  0.29213384  1  0.076008  0.000454  0.113579  0.094586  0.000135  1.013209  0.0
H  H23  1  0.21657353  0.70786426  0.69465503  1  0.07588  0.000454  0.113593  0.094661  0.000135  1.013132  0.0
H  H24  1  0.55965771  0.69298336  0.66095950  1  0.100223  4.1e-05  0.101935  0.117494  -8.6e-05  1.019931  0.0
H  H25  1  0.94033852  0.33904041  0.30702001  1  0.100185  4.1e-05  0.101929  0.117474  -8.6e-05  1.019961  0.0
H  H26  1  0.44034328  0.30701590  0.33903784  1  0.100023  4.1e-05  0.101944  0.117474  -8.6e-05  1.019945  0.0
H  H27  1  0.05965854  0.66096327  0.69298134  1  0.10013  4.1e-05  0.101942  0.117464  -8.6e-05  1.020052  0.0
H  H28  1  0.57070511  0.82220448  0.64254785  1  0.081011  7.4e-05  0.0977  0.109014  6e-06  1.02325  0.0
H  H29  1  0.92929938  0.35745051  0.17779913  1  0.081017  7.4e-05  0.097684  0.109016  6e-06  1.023307  0.0
H  H30  1  0.42929221  0.17779404  0.35745203  1  0.081016  7.4e-05  0.097688  0.109003  6e-06  1.023253  0.0
H  H31  1  0.07070372  0.64255019  0.82220197  1  0.080996  7.4e-05  0.097703  0.109022  6e-06  1.023246  0.0
H  H32  1  0.60298748  0.71374350  0.47918813  1  0.07268  0.000325  0.110452  0.089406  0.000138  1.003518  0.0
H  H33  1  0.89702157  0.52081176  0.28625902  1  0.072578  0.000325  0.110481  0.089414  0.000138  1.003529  0.0
H  H34  1  0.39701044  0.28625798  0.52081092  1  0.072658  0.000325  0.110415  0.089378  0.000138  1.003495  0.0
H  H35  1  0.10297561  0.47918972  0.71374078  1  0.072629  0.000325  0.110466  0.089431  0.000138  1.003413  0.0
H  H36  1  0.59523805  0.84329014  0.45864637  1  0.052775  0.000209  0.104813  0.079569  6.7e-05  1.017662  0.0
H  H37  1  0.90476208  0.54135216  0.15671270  1  0.052849  0.000209  0.104817  0.079595  6.7e-05  1.017659  0.0
H  H38  1  0.40475991  0.15671061  0.54135216  1  0.052796  0.000209  0.104806  0.07955  6.7e-05  1.017658  0.0
H  H39  1  0.09523503  0.45865003  0.84329047  1  0.052769  0.000209  0.104798  0.079597  6.7e-05  1.01766  0.0
H  H40  1  0.40702030  0.88797018  0.56622495  1  0.197964  0.00059  0.132932  0.113688  0.00016  1.045864  0.001
H  H41  1  0.09298426  0.43377171  0.11203054  1  0.197972  0.00059  0.132918  0.113679  0.00016  1.045843  0.001
H  H42  1  0.59298267  0.11203349  0.43377393  1  0.198072  0.00059  0.132944  0.113749  0.00016  1.045842  0.001
H  H43  1  0.90700965  0.56621937  0.88798005  1  0.197979  0.00059  0.132929  0.113639  0.00016  1.0459  0.001
H  H44  1  0.45964904  0.65816241  0.42482634  1  0.150119  0.000786  0.117992  0.118491  0.000294  1.040057  0.0
H  H45  1  0.04035446  0.57517155  0.34183468  1  0.15017  0.000786  0.117992  0.118524  0.000294  1.040061  0.0
H  H46  1  0.54034677  0.34183609  0.57517860  1  0.149988  0.000786  0.11799  0.118501  0.000294  1.040059  0.0
H  H47  1  0.95964711  0.42483064  0.65816468  1  0.150169  0.000786  0.117992  0.11847  0.000294  1.04013  0.0
H  H48  1  0.25688329  0.70539495  0.43635702  1  0.138855  0.000961  0.119945  0.120517  0.000223  1.006871  0.001
H  H49  1  0.24312186  0.56364126  0.29460183  1  0.139177  0.000961  0.11996  0.120512  0.000223  1.006896  0.001
H  H50  1  0.74311447  0.29460869  0.56364928  1  0.138772  0.000961  0.119934  0.120537  0.000223  1.006766  0.001
H  H51  1  0.75687921  0.43635575  0.70539894  1  0.139131  0.000961  0.119972  0.120559  0.000223  1.006839  0.001
H  H52  1  0.91419820  0.87510017  0.34787677  1  0.111003  0.000441  0.104429  0.108977  0.000114  1.013151  0.0
H  H53  1  0.58579793  0.65212136  0.12489988  1  0.110979  0.000441  0.104441  0.108971  0.000114  1.013216  0.0
H  H54  1  0.08580516  0.12489538  0.65212213  1  0.110947  0.000441  0.104425  0.108976  0.000114  1.013119  0.0
H  H55  1  0.41420237  0.34787642  0.87509932  1  0.111009  0.000441  0.1044  0.108923  0.000114  1.013191  0.0
H  H56  1  0.76843310  0.81559884  0.28745733  1  0.085281  3e-06  0.100759  0.105874  -1.1e-05  1.024702  0.0
H  H57  1  0.73156213  0.71254146  0.18439839  1  0.085383  3e-06  0.100727  0.105761  -1.1e-05  1.024796  0.0
H  H58  1  0.23156940  0.18439968  0.71253940  1  0.085191  3e-06  0.100789  0.10587  -1.1e-05  1.024698  0.0
H  H59  1  0.26844039  0.28745708  0.81559550  1  0.085335  3e-06  0.100749  0.105799  -1.1e-05  1.024761  0.0
H  H60  1  0.83574289  0.52041772  0.47026619  1  0.06537  0.000136  0.103076  0.108702  4.3e-05  1.008642  0.0
H  H61  1  0.66425544  0.52972839  0.47958314  1  0.065393  0.000136  0.103071  0.10872  4.3e-05  1.00857  0.0
H  H62  1  0.16425803  0.47958303  0.52972933  1  0.065358  0.000136  0.103109  0.10873  4.3e-05  1.008612  0.0
H  H63  1  0.33574858  0.47026940  0.52041157  1  0.065295  0.000136  0.103112  0.108729  4.3e-05  1.008573  0.0
H  H64  1  0.98101447  0.58234868  0.52974255  1  0.097344  0.000124  0.099332  0.097284  4.1e-05  1.044416  0.0
H  H65  1  0.51897891  0.47025986  0.41764806  1  0.097327  0.000124  0.099316  0.097247  4.1e-05  1.044457  0.0
H  H66  1  0.01898228  0.41764538  0.47026282  1  0.097389  0.000124  0.099337  0.0973  4.2e-05  1.044454  0.0
H  H67  1  0.48102039  0.52974384  0.58234890  1  0.097301  0.000124  0.099283  0.097213  4.2e-05  1.044386  0.0
H  H68  1  0.99205209  0.87180118  0.77787729  1  0.087947  0.000407  0.105003  0.106344  0.000137  1.026385  0.0
H  H69  1  0.50794287  0.22212332  0.12820282  1  0.087892  0.000408  0.104965  0.106261  0.000137  1.026344  0.0
H  H70  1  0.00794262  0.12820547  0.22212412  1  0.08783  0.000408  0.104988  0.106306  0.000137  1.026399  0.0
H  H71  1  0.49207141  0.77787513  0.87179468  1  0.088075  0.000409  0.104971  0.106226  0.000137  1.026351  0.0
H  H72  1  0.90356343  0.91584521  0.91814749  1  0.043087  1.4e-05  0.100773  0.098315  -3e-06  1.030674  0.0
H  H73  1  0.59643610  0.08185255  0.08415792  1  0.043055  1.4e-05  0.100745  0.098276  -3e-06  1.030707  0.0
H  H74  1  0.09643816  0.08415546  0.08185796  1  0.043058  1.4e-05  0.100771  0.098308  -3e-06  1.030626  0.0
H  H75  1  0.40357228  0.91814669  0.91583614  1  0.043208  1.4e-05  0.10077  0.098358  -3e-06  1.030591  0.0
H  H76  1  0.16478144  0.04611120  0.97408615  1  0.056071  0.000108  0.099833  0.095765  4.3e-05  1.047315  0.0
H  H77  1  0.33522977  0.02591757  0.95387141  1  0.056016  0.000108  0.099834  0.095792  4.3e-05  1.047399  0.0
H  H78  1  0.83522190  0.95388432  0.02591560  1  0.055945  0.000108  0.099854  0.095809  4.3e-05  1.047327  0.0
H  H79  1  0.66478384  0.97408018  0.04612205  1  0.055699  0.000108  0.09983  0.095779  4.3e-05  1.047324  0.0
H  H80  1  0.25076444  0.00532347  0.83079872  1  0.086895  4.2e-05  0.101378  0.096848  -1e-05  1.060116  0.0
H  H81  1  0.24924069  0.16920418  0.99466016  1  0.087099  4.2e-05  0.1014  0.096845  -1e-05  1.060179  0.0
H  H82  1  0.74923718  0.99467724  0.16920246  1  0.086886  4.2e-05  0.101394  0.096854  -1e-05  1.06018  0.0
H  H83  1  0.75076554  0.83079359  0.00533442  1  0.086981  4.2e-05  0.101436  0.09688  -1e-05  1.060253  0.0
H  H84  1  0.46087298  0.18243999  0.77794401  1  0.079832  2e-06  0.09842  0.098788  1e-06  1.032867  0.0
H  H85  1  0.03912586  0.22205773  0.81756180  1  0.079788  2e-06  0.098455  0.098828  1e-06  1.032847  0.0
H  H86  1  0.53912716  0.81756071  0.22205938  1  0.079955  2e-06  0.098414  0.098782  1e-06  1.032898  0.0
H  H87  1  0.96087142  0.77794152  0.18243930  1  0.079919  2e-06  0.098429  0.098807  1e-06  1.032857  0.0
H  H88  1  0.59488407  0.25606916  0.83909366  1  0.081427  9.6e-05  0.099378  0.103109  -4.8e-05  1.03294  0.0
H  H89  1  0.90511623  0.16090571  0.74393232  1  0.081463  9.6e-05  0.099386  0.103099  -4.8e-05  1.032968  0.0
H  H90  1  0.40511610  0.74393080  0.16090922  1  0.081465  9.6e-05  0.099364  0.103076  -4.8e-05  1.033001  0.0
H  H91  1  0.09488040  0.83909132  0.25607013  1  0.08144  9.6e-05  0.099388  0.103088  -4.8e-05  1.033013  0.0
H  H92  1  0.80467711  0.04252275  0.75999466  1  0.08064  1.7e-05  0.10108  0.102545  -5e-06  1.0217  0.0
H  H93  1  0.69531991  0.24000715  0.95747726  1  0.080579  1.7e-05  0.101074  0.10254  -5e-06  1.021749  0.0
H  H94  1  0.19532022  0.95747423  0.24001344  1  0.08058  1.7e-05  0.101075  0.102555  -5e-06  1.021722  0.0
H  H95  1  0.30467933  0.75999727  0.04252306  1  0.080677  1.7e-05  0.101085  0.102494  -5e-06  1.021702  0.0
H  H96  1  0.66957969  0.97157857  0.69664901  1  0.088757  -1.9e-05  0.100587  0.094357  -9e-05  1.043021  0.0
H  H97  1  0.83041886  0.30335019  0.02842347  1  0.088742  -1.9e-05  0.100554  0.094308  -9e-05  1.043024  0.0
H  H98  1  0.33041681  0.02842066  0.30335641  1  0.08872  -1.9e-05  0.100589  0.094329  -9e-05  1.043004  0.0
H  H99  1  0.16957974  0.69665201  0.97157749  1  0.088776  -1.9e-05  0.100591  0.094409  -9e-05  1.042916  0.0
H  H100  1  0.33662725  0.00762858  0.70196512  1  0.659876  6.6e-05  0.297122  0.360884  1.2e-05  0.98646  0.0
H  H101  1  0.16337088  0.29803201  0.99237008  1  0.659911  6.6e-05  0.297167  0.360934  1.2e-05  0.986361  0.0
H  H102  1  0.66337445  0.99237066  0.29803502  1  0.659907  6.6e-05  0.297142  0.360893  1.2e-05  0.986391  0.0
H  H103  1  0.83662888  0.70196208  0.00762799  1  0.659899  6.6e-05  0.297115  0.360849  1.2e-05  0.986489  0.0
C  C104  1  0.74522114  0.91396850  0.54794075  1  0.955906  0.002505  0.14407  0.094743  0.001609  3.911623  0.002
C  C105  1  0.75478006  0.45205613  0.08602269  1  0.955204  0.002506  0.143998  0.094692  0.00161  3.911584  0.002
C  C106  1  0.25477675  0.08603372  0.45205810  1  0.955684  0.002505  0.144144  0.094788  0.00161  3.911746  0.002
C  C107  1  0.24522257  0.54793942  0.91397555  1  0.955406  0.002506  0.144011  0.094657  0.00161  3.911593  0.002
C  C108  1  0.88819777  0.91818116  0.60823904  1  0.408005  0.00295  0.002402  -0.020284  0.001834  3.988343  0.003
C  C109  1  0.61180067  0.39176169  0.08182292  1  0.408267  0.00295  0.002325  -0.020343  0.001834  3.988704  0.003
C  C110  1  0.11180287  0.08182549  0.39175705  1  0.407945  0.002951  0.002387  -0.020343  0.001834  3.988604  0.003
C  C111  1  0.38819721  0.60824052  0.91817594  1  0.407904  0.002951  0.002364  -0.020343  0.001834  3.988616  0.003
C  C112  1  0.85610038  0.82427564  0.64754726  1  0.30187  0.003011  0.000856  -0.108309  0.001448  3.90725  0.002
C  C113  1  0.64389954  0.35245715  0.17572669  1  0.303394  0.003011  0.00094  -0.108312  0.001449  3.907242  0.002
C  C114  1  0.14389805  0.17573024  0.35245485  1  0.301713  0.003012  0.000866  -0.108344  0.001448  3.90737  0.002
C  C115  1  0.35609988  0.64754357  0.82427390  1  0.301883  0.003013  0.000892  -0.108295  0.001449  3.90737  0.002
C  C116  1  0.70633467  0.73512186  0.63035963  1  0.2967  0.001163  -0.049074  -0.042651  0.000711  3.839745  0.001
C  C117  1  0.79366629  0.36964254  0.26487650  1  0.297036  0.001163  -0.048987  -0.042515  0.000711  3.839604  0.001
C  C118  1  0.29366684  0.26488183  0.36963791  1  0.296602  0.001163  -0.049055  -0.042554  0.000711  3.839677  0.001
C  C119  1  0.20633234  0.63035968  0.73512160  1  0.296926  0.001164  -0.049026  -0.04257  0.000711  3.839756  0.001
C  C120  1  0.59646247  0.75830228  0.61527764  1  -0.049831  0.000303  -0.167878  -0.215698  7.7e-05  3.918169  0.0
C  C121  1  0.90353734  0.38472056  0.24169918  1  -0.049832  0.000303  -0.167894  -0.215761  7.8e-05  3.918255  0.0
C  C122  1  0.40353994  0.24169770  0.38472155  1  -0.049651  0.000303  -0.167896  -0.215713  7.7e-05  3.918112  0.0
C  C123  1  0.09645984  0.61528092  0.75829991  1  -0.049739  0.000303  -0.167886  -0.215708  7.7e-05  3.918278  0.0
C  C124  1  0.56925770  0.77382085  0.50822432  1  0.303578  0.000999  -0.051454  -0.050016  0.000616  3.856463  0.001
C  C125  1  0.93074495  0.49177372  0.22618073  1  0.303703  0.000999  -0.051457  -0.049966  0.000616  3.856476  0.001
C  C126  1  0.43074320  0.22617986  0.49177548  1  0.30359  0.000999  -0.051371  -0.049922  0.000616  3.85641  0.001
C  C127  1  0.06925225  0.50822700  0.77382141  1  0.303801  0.000999  -0.051451  -0.050018  0.000616  3.856398  0.001
C  C128  1  0.39199445  0.83268494  0.52891934  1  0.941311  0.003317  0.140725  0.093953  0.00198  3.872046  0.003
C  C129  1  0.10800891  0.47107824  0.16731343  1  0.94134  0.003318  0.140792  0.094108  0.00198  3.871865  0.003
C  C130  1  0.60800710  0.16731724  0.47108216  1  0.941363  0.003315  0.140817  0.094076  0.001978  3.872007  0.003
C  C131  1  0.89198839  0.52892027  0.83268787  1  0.941142  0.003317  0.140756  0.09407  0.001979  3.871858  0.003
C  C132  1  0.41738990  0.71147954  0.45586523  1  0.253255  0.002655  0.000379  -0.100978  0.001262  3.93185  0.002
C  C133  1  0.08261324  0.54413159  0.28852018  1  0.253337  0.002654  0.000288  -0.101205  0.001262  3.931779  0.002
C  C134  1  0.58261009  0.28852488  0.54413362  1  0.253258  0.002655  0.000361  -0.10103  0.001263  3.931734  0.002
C  C135  1  0.91738714  0.45586393  0.71148388  1  0.253528  0.002655  0.000301  -0.101081  0.001263  3.931849  0.002
C  C136  1  0.31834288  0.73610183  0.46066991  1  0.410893  0.003881  -0.001853  -0.0273  0.002284  4.011298  0.004
C  C137  1  0.18166464  0.53932924  0.26389511  1  0.410257  0.003882  -0.001755  -0.027037  0.002284  4.011027  0.004
C  C138  1  0.68165715  0.26390109  0.53933290  1  0.410891  0.00388  -0.001836  -0.02724  0.002283  4.011003  0.004
C  C139  1  0.81833579  0.46066556  0.73610629  1  0.410575  0.003881  -0.001792  -0.027148  0.002283  4.011008  0.004
C  C140  1  0.04771422  0.76377124  0.47666616  1  1.563406  0.001311  0.197266  0.543458  0.001113  4.244721  -0.001
C  C141  1  0.45228124  0.52333153  0.23622502  1  1.563348  0.001311  0.197245  0.54333  0.001114  4.244583  -0.001
C  C142  1  0.95228335  0.23622134  0.52333742  1  1.563168  0.001311  0.197243  0.543379  0.001114  4.244816  -0.001
C  C143  1  0.54771528  0.47666847  0.76377450  1  1.563429  0.001312  0.197299  0.543495  0.001114  4.244653  -0.001
C  C144  1  0.95741351  0.73172010  0.44138018  1  -0.04929  0.003145  -0.019875  -0.038393  0.00163  3.980617  0.002
C  C145  1  0.54258070  0.55862010  0.26827702  1  -0.049167  0.003145  -0.020015  -0.038535  0.00163  3.980803  0.002
C  C146  1  0.04258008  0.26827840  0.55862560  1  -0.049291  0.003144  -0.019937  -0.038558  0.001629  3.98078  0.002
C  C147  1  0.45741644  0.44138289  0.73171741  1  -0.049346  0.003145  -0.019998  -0.038582  0.001629  3.98069  0.002
C  C148  1  0.89670732  0.79748172  0.37367799  1  -0.048981  0.000686  -0.080431  -0.074441  0.000302  3.953625  0.0
C  C149  1  0.60328771  0.62632220  0.20251587  1  -0.049045  0.000686  -0.080393  -0.074339  0.000302  3.953617  0.0
C  C150  1  0.10329143  0.20251753  0.62632232  1  -0.04913  0.000686  -0.080416  -0.074402  0.000302  3.953723  0.0
C  C151  1  0.39671248  0.37367855  0.79747969  1  -0.048985  0.000686  -0.080311  -0.07423  0.000302  3.953477  0.0
C  C152  1  0.81563622  0.76364748  0.33953760  1  -0.020116  0.000149  -0.089142  -0.132452  2.6e-05  3.952522  0.0
C  C153  1  0.68435991  0.66045849  0.23635151  1  -0.020112  0.000149  -0.089123  -0.132356  2.6e-05  3.952676  0.0
C  C154  1  0.18436715  0.23634885  0.66045469  1  -0.019877  0.000149  -0.089174  -0.13246  2.6e-05  3.952616  0.0
C  C155  1  0.31564040  0.33953929  0.76364626  1  -0.020034  0.000149  -0.089168  -0.132388  2.6e-05  3.952652  0.0
C  C156  1  0.79248177  0.66348812  0.37324389  1  -0.053306  -0.000301  -0.00818  0.060617  -0.000383  4.018421  0.0
C  C157  1  0.70751192  0.62675538  0.33651028  1  -0.024813  -0.000299  -0.008196  0.06067  -0.000383  4.018481  0.0
C  C158  1  0.20751858  0.33650893  0.62675408  1  -0.053267  -0.000301  -0.008209  0.06069  -0.000383  4.018382  0.0
C  C159  1  0.29248777  0.37324020  0.66348740  1  -0.025078  -0.000299  -0.008218  0.060528  -0.000383  4.018517  0.0
C  C160  1  0.85204416  0.59851092  0.44359410  1  -0.066299  0.000468  -0.094274  -0.151651  0.000199  4.004071  0.0
C  C161  1  0.64795465  0.55640304  0.40148822  1  -0.066496  0.000468  -0.094265  -0.151731  0.000199  4.004065  0.0
C  C162  1  0.14795596  0.40149054  0.55640625  1  -0.066196  0.000468  -0.094272  -0.151681  0.000199  4.00399  0.0
C  C163  1  0.35204568  0.44359476  0.59850812  1  -0.066272  0.000468  -0.09427  -0.151687  0.000199  4.003957  0.0
C  C164  1  0.93353162  0.63232880  0.47663426  1  -0.088704  0.000898  -0.089239  -0.104321  0.000359  4.016746  0.001
C  C165  1  0.56646595  0.52336556  0.36766651  1  -0.088764  0.000898  -0.089179  -0.10425  0.00036  4.016914  0.001
C  C166  1  0.06646866  0.36766895  0.52336849  1  -0.08882  0.000898  -0.089255  -0.104297  0.000359  4.016858  0.001
C  C167  1  0.43353354  0.47663446  0.63232857  1  -0.088727  0.000898  -0.089172  -0.104173  0.000359  4.016708  0.001
C  C168  1  0.17604725  0.91697247  0.70215133  1  1.525499  0.000316  0.210458  0.564257  3.1e-05  4.192408  0.0
C  C169  1  0.32395526  0.29784792  0.08301881  1  1.52517  0.000318  0.210563  0.564331  3.2e-05  4.192328  0.0
C  C170  1  0.82395071  0.08302827  0.29784792  1  1.525498  0.000317  0.210542  0.564362  3.1e-05  4.192383  0.0
C  C171  1  0.67604952  0.70214835  0.91698195  1  1.525414  0.000318  0.210566  0.564291  3.1e-05  4.192346  0.0
C  C172  1  0.12696468  0.93682516  0.79310032  1  -0.022342  0.003681  -0.022797  -0.043532  0.001795  3.989385  0.003
C  C173  1  0.37303537  0.20689870  0.06316714  1  -0.022581  0.003682  -0.022774  -0.043552  0.001794  3.989426  0.003
C  C174  1  0.87303329  0.06317482  0.20690197  1  -0.022476  0.003682  -0.022797  -0.043566  0.001795  3.989407  0.003
C  C175  1  0.62697166  0.79309681  0.93683369  1  -0.022912  0.003682  -0.022751  -0.043379  0.001795  3.989488  0.003
C  C176  1  0.02906971  0.91127045  0.82054871  1  0.01753  0.000317  -0.082624  -0.084454  -5.3e-05  3.967266  0.0
C  C177  1  0.47092947  0.17945308  0.08872631  1  0.017612  0.000317  -0.082622  -0.08437  -5.3e-05  3.96706  0.0
C  C178  1  0.97092970  0.08873026  0.17945330  1  0.01723  0.000317  -0.082643  -0.084468  -5.3e-05  3.967206  0.0
C  C179  1  0.52907959  0.82054689  0.91126965  1  0.017475  0.000316  -0.082629  -0.084308  -5.3e-05  3.967111  0.0
C  C180  1  0.97967268  0.93634097  0.90036033  1  -0.041976  -0.000306  -0.086929  -0.122143  -0.000383  3.967873  0.0
C  C181  1  0.52032715  0.09963460  0.06366275  1  -0.041941  -0.000306  -0.086876  -0.122053  -0.000383  3.967783  0.0
C  C182  1  0.02032753  0.06365825  0.09964204  1  -0.04212  -0.000306  -0.086852  -0.122043  -0.000383  3.967803  0.0
C  C183  1  0.47968068  0.90035942  0.93633914  1  -0.042283  -0.000306  -0.086866  -0.122194  -0.000383  3.967897  0.0
C  C184  1  0.02630369  0.98622595  0.95771018  1  0.006525  -0.000781  0.003392  0.078813  -0.00092  3.964816  0.0
C  C185  1  0.47369660  0.04229036  0.01376870  1  -0.040917  -0.000791  0.003433  0.078813  -0.00092  3.964986  0.0
C  C186  1  0.97369878  0.01377254  0.04229154  1  -0.040468  -0.000791  0.003414  0.078943  -0.00092  3.964793  0.0
C  C187  1  0.52630452  0.95770594  0.98622942  1  0.006319  -0.000782  0.003385  0.078924  -0.000921  3.964928  0.0
C  C188  1  0.12535952  0.00874133  0.93125436  1  -0.03129  0.000639  -0.086233  -0.117038  0.000293  3.951578  0.001
C  C189  1  0.37464674  0.06874792  0.99124701  1  -0.030652  0.000638  -0.086339  -0.117288  0.000293  3.95202  0.001
C  C190  1  0.87464378  0.99125492  0.06874790  1  -0.030634  0.000639  -0.086352  -0.117349  0.000293  3.951705  0.001
C  C191  1  0.62535869  0.93125134  0.00874722  1  -0.030693  0.000639  -0.086317  -0.117278  0.000293  3.951731  0.001
C  C192  1  0.17466121  0.98522495  0.85037356  1  -0.077035  0.000273  -0.087874  -0.099974  -0.0002  3.987042  0.0
C  C193  1  0.32534264  0.14962894  0.01476257  1  -0.076638  0.000272  -0.087887  -0.099862  -0.0002  3.987001  0.0
C  C194  1  0.82533820  0.01477576  0.14962845  1  -0.076599  0.000272  -0.087856  -0.09986  -0.0002  3.986981  0.0
C  C195  1  0.67466371  0.85036509  0.98523941  1  -0.076482  0.000272  -0.087926  -0.099998  -0.0002  3.987105  0.0
C  C196  1  0.47841981  0.02521820  0.69556926  1  1.471348  -2e-06  0.224811  0.572907  -2.6e-05  4.140725  0.0
C  C197  1  0.02158065  0.30442690  0.97477972  1  1.471495  -2e-06  0.224817  0.572968  -2.6e-05  4.140408  0.0
C  C198  1  0.52158271  0.97477956  0.30442910  1  1.47152  -2e-06  0.224804  0.572881  -2.6e-05  4.140515  0.0
C  C199  1  0.97841820  0.69557012  0.02522189  1  1.471425  -2e-06  0.224817  0.572801  -2.6e-05  4.140614  0.0
C  C200  1  0.55657488  0.07178129  0.73347259  1  -0.031829  7e-05  -0.022991  -0.05991  -8e-06  4.000965  0.0
C  C201  1  0.94342595  0.26652672  0.92822222  1  -0.031999  7e-05  -0.022956  -0.05977  -8e-06  4.001009  0.0
C  C202  1  0.44342504  0.92822384  0.26653035  1  -0.042185  7e-05  -0.022961  -0.059709  -8e-06  4.000853  0.0
C  C203  1  0.05657431  0.73347177  0.07177891  1  -0.031767  7e-05  -0.022959  -0.059653  -8e-06  4.000914  0.0
C  C204  1  0.53624717  0.15186053  0.77423898  1  -0.029803  0.000137  -0.08511  -0.08457  4.9e-05  3.987083  0.0
C  C205  1  0.96375053  0.22576085  0.84814045  1  -0.029725  0.000136  -0.085143  -0.084602  4.9e-05  3.986994  0.0
C  C206  1  0.46375295  0.84814093  0.22576208  1  -0.019551  0.000136  -0.085124  -0.084687  4.9e-05  3.986918  0.0
C  C207  1  0.03624677  0.77423765  0.15186157  1  -0.030054  0.000136  -0.085114  -0.084682  4.9e-05  3.986989  0.0
C  C208  1  0.61194014  0.19270319  0.80922177  1  -0.040159  0.000109  -0.090685  -0.134218  1.5e-05  3.958535  0.0
C  C209  1  0.88805433  0.19077597  0.80729943  1  -0.039986  0.000109  -0.090759  -0.134288  1.5e-05  3.958432  0.0
C  C210  1  0.38805633  0.80729755  0.19077827  1  -0.039985  0.000109  -0.090702  -0.13418  1.5e-05  3.958492  0.0
C  C211  1  0.11194141  0.80922478  0.19270065  1  -0.04002  0.000109  -0.090701  -0.134118  1.5e-05  3.958531  0.0
C  C212  1  0.70995704  0.15426848  0.80521793  1  0.041041  6.9e-05  -0.002274  0.073451  -1.2e-05  3.982909  0.0
C  C213  1  0.79003751  0.19478126  0.84573592  1  0.004796  7e-05  -0.002263  0.073375  -1.2e-05  3.982981  0.0
C  C214  1  0.29003870  0.84573149  0.19478662  1  0.004647  7e-05  -0.002211  0.073432  -1.2e-05  3.983102  0.0
C  C215  1  0.20995900  0.80521797  0.15426879  1  0.040839  6.9e-05  -0.002353  0.073265  -1.2e-05  3.983071  0.0
C  C216  1  0.72965979  0.07439055  0.76330485  1  -0.069391  0.000443  -0.087846  -0.128452  0.000288  3.95787  0.0
C  C217  1  0.77033801  0.23669608  0.92561241  1  -0.069589  0.000443  -0.087911  -0.128544  0.000288  3.957909  0.0
C  C218  1  0.27033816  0.92560941  0.23669958  1  -0.069492  0.000443  -0.087916  -0.128512  0.000288  3.957909  0.0
C  C219  1  0.22966137  0.76330459  0.07439459  1  -0.069599  0.000443  -0.087802  -0.128265  0.000288  3.95766  0.0
C  C220  1  0.65420644  0.03397026  0.72795931  1  -0.044523  0.000389  -0.080078  -0.075154  0.000203  3.97854  0.0
C  C221  1  0.84579605  0.27204569  0.96602700  1  -0.044316  0.000389  -0.080011  -0.075109  0.000203  3.978427  0.0
C  C222  1  0.34579375  0.96602894  0.27204662  1  -0.04435  0.000389  -0.079992  -0.075093  0.000203  3.978429  0.0
C  C223  1  0.15420541  0.72795871  0.03397320  1  -0.04426  0.000389  -0.080159  -0.075454  0.000203  3.978334  0.0
N  N224  1  0.81814330  0.97355259  0.54659063  1  -1.236102  0.070389  -0.368487  -0.315614  0.03655  3.666007  0.047
N  N225  1  0.68185144  0.45340418  0.02644497  1  -1.23652  0.070395  -0.36842  -0.315554  0.036551  3.666217  0.047
N  N226  1  0.18185302  0.02645187  0.45340630  1  -1.236277  0.070388  -0.368498  -0.315597  0.036549  3.666181  0.047
N  N227  1  0.31814887  0.54659360  0.97355351  1  -1.236147  0.070395  -0.368391  -0.315456  0.036551  3.6662  0.047
N  N228  1  0.76548561  0.82286092  0.60893634  1  -1.237204  0.005891  -0.240135  0.04209  0.002685  3.756618  0.004
N  N229  1  0.73451777  0.39106653  0.17713375  1  -1.236888  0.005891  -0.240138  0.042222  0.002685  3.75643  0.004
N  N230  1  0.23451667  0.17714202  0.39106136  1  -1.236894  0.005891  -0.240082  0.042179  0.002685  3.756525  0.004
N  N231  1  0.26548080  0.60893718  0.82286325  1  -1.236992  0.005892  -0.24012  0.042139  0.002686  3.756514  0.004
N  N232  1  0.46278793  0.77269691  0.49936079  1  -1.246646  0.006035  -0.242162  0.047169  0.002731  3.755957  0.005
N  N233  1  0.03721424  0.50063629  0.22730234  1  -1.24659  0.006036  -0.242236  0.047068  0.002732  3.755873  0.005
N  N234  1  0.53721288  0.22730527  0.50064146  1  -1.246619  0.006034  -0.24223  0.047103  0.002731  3.755924  0.005
N  N235  1  0.96278379  0.49936221  0.77270034  1  -1.246771  0.006035  -0.242177  0.047134  0.002732  3.755842  0.005
N  N236  1  0.30336112  0.81177647  0.50619124  1  -1.210489  0.067783  -0.370803  -0.32954  0.035654  3.710916  0.041
N  N237  1  0.19664043  0.49380566  0.18822029  1  -1.210377  0.067783  -0.370849  -0.329747  0.035659  3.711182  0.041
N  N238  1  0.69663823  0.18822496  0.49381342  1  -1.210497  0.067785  -0.370837  -0.329717  0.035657  3.711133  0.041
N  N239  1  0.80335768  0.50619213  0.81177760  1  -1.210562  0.067785  -0.370854  -0.32968  0.035659  3.711006  0.041
O  O240  1  0.06676810  0.85681836  0.44442871  1  -1.144306  0.103087  -0.328713  -0.546738  0.052254  2.318754  0.08
O  O241  1  0.43322605  0.55557300  0.14317765  1  -1.144383  0.103094  -0.328697  -0.546645  0.052257  2.318577  0.08
O  O242  1  0.93323549  0.14317277  0.55556780  1  -1.143996  0.1031  -0.328672  -0.546559  0.052257  2.318759  0.08
O  O243  1  0.56676985  0.44442481  0.85682037  1  -1.144394  0.103088  -0.328712  -0.546694  0.052254  2.318766  0.08
O  O244  1  0.10170160  0.70148415  0.53478926  1  -1.185632  0.029482  -0.311381  -0.543557  0.014438  2.169523  0.024
O  O245  1  0.39830011  0.46519986  0.29851159  1  -1.185592  0.029481  -0.311316  -0.543461  0.014438  2.169488  0.024
O  O246  1  0.89829448  0.29850842  0.46521797  1  -1.185631  0.029489  -0.31137  -0.543598  0.014442  2.169592  0.024
O  O247  1  0.60169946  0.53479791  0.70148764  1  -1.18562  0.029486  -0.311355  -0.543558  0.014441  2.169529  0.024
O  O248  1  0.12499876  0.87175617  0.65541653  1  -1.146158  0.09136  -0.315056  -0.531806  0.046395  2.375373  0.07
O  O249  1  0.37500571  0.34458779  0.12823078  1  -1.146029  0.091369  -0.315142  -0.531886  0.0464  2.375349  0.07
O  O250  1  0.87499690  0.12824605  0.34458387  1  -1.146123  0.091364  -0.315133  -0.531889  0.046397  2.375299  0.07
O  O251  1  0.62499963  0.65541292  0.87176662  1  -1.145949  0.091365  -0.315185  -0.531906  0.046398  2.375322  0.07
O  O252  1  0.26179187  0.94534191  0.67076975  1  -1.186691  0.017619  -0.310121  -0.561907  0.008576  2.246715  0.013
O  O253  1  0.23820700  0.32922474  0.05466169  1  -1.186694  0.01762  -0.310114  -0.561876  0.008575  2.246694  0.013
O  O254  1  0.73820743  0.05466179  0.32922792  1  -1.186727  0.017615  -0.310156  -0.561952  0.008573  2.246733  0.013
O  O255  1  0.76179582  0.67076635  0.94533985  1  -1.18684  0.017616  -0.310089  -0.561849  0.008574  2.246685  0.013
O  O256  1  0.38610057  0.04885494  0.72447574  1  -1.186729  0.000267  -0.342902  -0.51466  9.4e-05  2.341137  0.0
O  O257  1  0.11389472  0.27552382  0.95114658  1  -1.187  0.000266  -0.342908  -0.514696  9.4e-05  2.34142  0.0
O  O258  1  0.61389642  0.95115022  0.27552522  1  -1.186986  0.000266  -0.34288  -0.514622  9.4e-05  2.341532  0.0
O  O259  1  0.88610116  0.72447397  0.04885357  1  -1.186764  0.000267  -0.342836  -0.514561  9.4e-05  2.341331  0.0
O  O260  1  0.49653476  0.96971660  0.64132900  1  -1.149184  0.000149  -0.297381  -0.509165  -4e-06  2.161612  0.0
O  O261  1  0.00346842  0.35867523  0.03029122  1  -1.149099  0.000149  -0.297467  -0.509324  -3e-06  2.160914  0.0
O  O262  1  0.50346699  0.03029665  0.35867379  1  -1.149189  0.000149  -0.297461  -0.509293  -3e-06  2.160898  0.0
O  O263  1  0.99652943  0.64132696  0.96971262  1  -1.149187  0.000149  -0.297481  -0.509222  -3e-06  2.161227  0.0
