# generated using pymatgen
data_ZnH6C25N6(O7F)2
_symmetry_space_group_name_H-M   'P 1'
_cell_length_a   9.58545879
_cell_length_b   10.84896745
_cell_length_c   28.20442188
_cell_angle_alpha   91.85011934
_cell_angle_beta   90.47733661
_cell_angle_gamma   90.11714055
_symmetry_Int_Tables_number   1
_chemical_formula_structural   ZnH6C25N6(O7F)2
_chemical_formula_sum   'Zn2 H12 C50 N12 O28 F4'
_cell_volume   2931.40497954
_cell_formula_units_Z   2
loop_
 _symmetry_equiv_pos_site_id
 _symmetry_equiv_pos_as_xyz
  1  'x, y, z'
loop_
 _atom_site_type_symbol
 _atom_site_label
 _atom_site_symmetry_multiplicity
 _atom_site_fract_x
 _atom_site_fract_y
 _atom_site_fract_z
 _atom_site_occupancy
 _atom_site_pbe_bader_charge
 _atom_site_pbe_bader_spin_density
 _atom_site_pbe_cm5_charge
 _atom_site_pbe_ddec_charge
 _atom_site_pbe_ddec_spin_density
 _atom_site_pbe_ddec_sum_bond_order
 _atom_site_pbe_magmom
Zn  Zn0  1  0.36303132  0.50096238  0.49925602  1  1.263082  0  0.677017  0.809603  0  2.459324  0
Zn  Zn1  1  0.65117331  0.50156788  0.50100249  1  1.279611  0  0.674637  0.804406  0  2.45434  0
H  H2  1  0.42492435  0.79692559  0.12931151  1  0.190879  0  0.135155  0.166378  0  0.961413  0
H  H3  1  0.43128966  0.19963509  0.87062548  1  0.186976  0  0.134942  0.166591  0  0.96219  0
H  H4  1  0.48972040  0.81386777  0.97315341  1  0.133445  0  0.115838  0.134758  0  1.020066  0
H  H5  1  0.49730147  0.18420916  0.02708751  1  0.122706  0  0.115877  0.134996  0  1.020119  0
H  H6  1  0.72572370  0.88698531  0.51354327  1  0.080728  0  0.105436  0.107583  0  0.998344  0
H  H7  1  0.28538803  0.11533369  0.48372176  1  0.105304  0  0.106466  0.110606  0  0.997495  0
H  H8  1  0.72443043  0.11913016  0.51524172  1  0.126564  0  0.106249  0.110142  0  0.998769  0
H  H9  1  0.28471000  0.88345559  0.48515773  1  0.105873  0  0.107455  0.110627  0  0.993129  0
H  H10  1  0.87016055  0.36266011  0.44795590  1  0.168788  0  0.144667  0.128482  0  0.951292  0
H  H11  1  0.14380729  0.64145853  0.55159905  1  0.168432  0  0.135422  0.115245  0  0.997536  0
H  H12  1  0.87737104  0.63813135  0.55386927  1  0.133096  0  0.144896  0.127784  0  0.950867  0
H  H13  1  0.13678895  0.36028761  0.44748554  1  0.151876  0  0.136301  0.116232  0  0.991364  0
C  C14  1  0.50489955  0.73628769  0.49977426  1  1.545833  0  0.222477  0.598418  0  4.153821  0
C  C15  1  0.50421405  0.26631066  0.49990895  1  1.496211  0  0.22067  0.595322  0  4.154473  0
C  C16  1  0.50998929  0.51294851  0.59376902  1  1.646905  0  0.21806  0.613529  0  4.199209  0
C  C17  1  0.51140476  0.48851750  0.40652241  1  1.635857  0  0.21709  0.613126  0  4.199982  0
C  C18  1  0.48905417  0.62761453  0.82380367  1  1.338464  0  0.248357  0.456968  0  4.08604  0
C  C19  1  0.49184611  0.37020402  0.17647749  1  1.386365  0  0.24844  0.457997  0  4.085687  0
C  C20  1  0.45792594  0.39741994  0.81837933  1  1.38852  0  0.249567  0.45128  0  4.076512  0
C  C21  1  0.45544258  0.59960804  0.18174336  1  1.392102  0  0.24939  0.450591  0  4.080513  0
C  C22  1  0.59707439  0.45988418  0.72434497  1  0.346739  0  0.090882  -0.080231  0  3.87019  0
C  C23  1  0.59784099  0.53997263  0.27630019  1  0.261541  0  0.090439  -0.08115  0  3.86781  0
C  C24  1  0.60540624  0.46113792  0.67490795  1  0.534499  0  0.138907  0.271792  0  3.991405  0
C  C25  1  0.60687522  0.53921821  0.32578136  1  0.631424  0  0.137676  0.271518  0  3.994318  0
C  C26  1  0.39336570  0.57492689  0.67176629  1  0.253412  0  0.105297  0.059007  0  3.885856  0
C  C27  1  0.39675163  0.42185548  0.32814008  1  0.23708  0  0.105861  0.059223  0  3.885096  0
C  C28  1  0.38268391  0.57396548  0.72105594  1  0.312769  0  0.096906  -0.032217  0  3.870384  0
C  C29  1  0.38550057  0.42201193  0.27879799  1  0.315876  0  0.097116  -0.031833  0  3.870514  0
C  C30  1  0.48522409  0.51628003  0.74804794  1  0.469196  0  0.125034  0.15585  0  3.991322  0
C  C31  1  0.48655963  0.48146929  0.25219260  1  0.461235  0  0.125396  0.157399  0  3.98825  0
C  C32  1  0.46758762  0.50773961  0.89863898  1  -0.042994  0  0.012173  0.045419  0  3.972667  0
C  C33  1  0.46760002  0.48970084  0.10156849  1  0.068779  0  0.012149  0.045393  0  3.971224  0
C  C34  1  0.48260653  0.62192080  0.87583243  1  0.09745  0  0.002772  -0.103981  0  3.948028  0
C  C35  1  0.48532680  0.37584739  0.12442813  1  0.028157  0  0.00283  -0.104453  0  3.949877  0
C  C36  1  0.49235314  0.72837444  0.90428638  1  0.222399  0  0.100847  0.09513  0  3.932101  0
C  C37  1  0.49771183  0.26965992  0.09603396  1  0.208435  0  0.101045  0.095453  0  3.930896  0
C  C38  1  0.45567584  0.39720418  0.87065313  1  -0.077545  0  0.003209  -0.031687  0  3.979746  0
C  C39  1  0.45317131  0.59992321  0.12946899  1  -0.053664  0  0.003043  -0.03053  0  3.97898  0
C  C40  1  0.50377058  0.51862643  0.64752228  1  0.153701  0  0.004116  -0.140967  0  3.896151  0
C  C41  1  0.50634141  0.48057097  0.35276909  1  0.15712  0  0.003891  -0.14164  0  3.897698  0
C  C42  1  0.45650167  0.61157763  0.02856632  1  0.124553  0  0.001327  -0.070358  0  3.955145  0
C  C43  1  0.45918013  0.38566806  0.97156879  1  0.0817  0  0.001359  -0.071336  0  3.957315  0
C  C44  1  0.47065285  0.38182141  0.02318889  1  0.032307  0  0.01407  0.084257  0  3.950488  0
C  C45  1  0.46803397  0.61569284  0.97702032  1  -0.002306  0  0.014943  0.084514  0  3.950908  0
C  C46  1  0.46485443  0.49486983  0.05089308  1  -0.05202  0  0.012596  0.017131  0  3.904362  0
C  C47  1  0.46497794  0.50254867  0.94929733  1  0.064781  0  0.012084  0.016811  0  3.907968  0
C  C48  1  0.43916176  0.71569641  0.05881967  1  0.452311  0  0.119117  0.260392  0  4.003904  0
C  C49  1  0.44398847  0.28121293  0.94120124  1  0.366173  0  0.119628  0.261383  0  4.001182  0
C  C50  1  0.43695866  0.71197843  0.10801998  1  0.015638  0  -0.05948  -0.171386  0  3.925241  0
C  C51  1  0.44175004  0.28480288  0.89198158  1  0.162521  0  -0.059404  -0.17146  0  3.925311  0
C  C52  1  0.48355297  0.72654487  0.95353240  1  0.00864  0  -0.074275  -0.177448  0  3.921023  0
C  C53  1  0.48878097  0.27129272  0.04673465  1  0.002561  0  -0.073552  -0.176895  0  3.920335  0
C  C54  1  0.62997178  0.93822292  0.50751942  1  -0.0114  0  -0.080273  -0.092135  0  3.975046  0
C  C55  1  0.38043537  0.06405665  0.49078654  1  -0.108247  0  -0.076742  -0.082495  0  3.961711  0
C  C56  1  0.62949345  0.06619342  0.50814510  1  -0.063572  0  -0.079477  -0.090067  0  3.97368  0
C  C57  1  0.38023375  0.93621036  0.49140220  1  0.082281  0  -0.077737  -0.088264  0  3.965716  0
C  C58  1  0.50482124  0.12928742  0.49956696  1  0.072405  0  -0.01179  -0.021807  0  3.95984  0
C  C59  1  0.50514031  0.87318863  0.49953399  1  -0.102632  0  -0.009216  -0.014345  0  3.958541  0
C  C60  1  0.93274450  0.42314119  0.47130141  1  0.54372  0  0.084397  0.069607  0  3.844055  0
C  C61  1  0.08168143  0.57876530  0.52893659  1  0.529468  0  0.082027  0.074184  0  3.845309  0
C  C62  1  0.93662123  0.57776225  0.52990501  1  0.522858  0  0.08467  0.071059  0  3.844142  0
C  C63  1  0.07779467  0.42255931  0.47082419  1  0.480839  0  0.082595  0.075029  0  3.844844  0
N  N64  1  0.47716689  0.51390794  0.79842042  1  -1.131089  0  -0.235721  -0.235891  0  3.655527  0
N  N65  1  0.47769545  0.48359333  0.20177719  1  -1.12673  0  -0.236715  -0.237586  0  3.659947  0
N  N66  1  0.15014979  0.50078452  0.49952436  1  -1.194943  0  -0.296136  -0.147676  0  3.50447  0
N  N67  1  0.86415201  0.50042898  0.50093651  1  -1.222059  0  -0.295437  -0.146485  0  3.51603  0
N  N68  1  0.28157090  0.63353968  0.64355575  1  0.44056  0  0.062838  0.513214  0  4.256782  0
N  N69  1  0.28679283  0.36111023  0.35602466  1  0.440497  0  0.062432  0.511408  0  4.259316  0
N  N70  1  0.26363025  0.63640672  0.74461337  1  0.410852  0  0.063987  0.523895  0  4.236327  0
N  N71  1  0.26746141  0.35702360  0.25476600  1  0.419362  0  0.063562  0.523296  0  4.23568  0
N  N72  1  0.51275959  0.85261547  0.88476821  1  0.421204  0  0.0637  0.513791  0  4.250502  0
N  N73  1  0.52096889  0.14592614  0.11568308  1  0.42887  0  0.063573  0.513719  0  4.247574  0
N  N74  1  0.70807317  0.60336161  0.24984417  1  0.424046  0  0.064824  0.532929  0  4.225258  0
N  N75  1  0.70893723  0.39869455  0.75122538  1  0.418677  0  0.064502  0.534081  0  4.223346  0
O  O76  1  0.38860773  0.68329751  0.50710389  1  -1.153722  0  -0.312215  -0.538231  0  2.368105  0
O  O77  1  0.61896950  0.32180548  0.50973051  1  -1.153441  0  -0.316286  -0.542555  0  2.353797  0
O  O78  1  0.38899771  0.31911873  0.49052111  1  -1.164395  0  -0.312546  -0.53891  0  2.376357  0
O  O79  1  0.62096768  0.68164609  0.49259562  1  -1.159505  0  -0.317282  -0.543211  0  2.349773  0
O  O80  1  0.39610455  0.48403287  0.57317728  1  -1.15154  0  -0.309462  -0.53607  0  2.290289  0
O  O81  1  0.62700537  0.46676923  0.42626741  1  -1.147575  0  -0.304574  -0.532843  0  2.283344  0
O  O82  1  0.39673434  0.51786774  0.42570876  1  -1.149782  0  -0.308756  -0.53328  0  2.290532  0
O  O83  1  0.62626382  0.53622260  0.57537645  1  -1.145785  0  -0.305358  -0.53118  0  2.282966  0
O  O84  1  0.50311310  0.72383740  0.80263017  1  -1.077098  0  -0.253308  -0.400831  0  2.096378  0
O  O85  1  0.50799989  0.27426040  0.19771057  1  -1.073648  0  -0.252963  -0.400945  0  2.092937  0
O  O86  1  0.44147756  0.69224020  0.20727472  1  -1.080993  0  -0.256021  -0.402513  0  2.063535  0
O  O87  1  0.44625026  0.30436860  0.79283557  1  -1.084135  0  -0.256417  -0.402834  0  2.063076  0
O  O88  1  0.16411044  0.58719093  0.64588665  1  -0.424498  0  -0.115872  -0.308778  0  1.888538  0
O  O89  1  0.31588455  0.72138270  0.61961784  1  -0.411455  0  -0.098055  -0.280731  0  1.902191  0
O  O90  1  0.16810454  0.40450882  0.35316463  1  -0.432012  0  -0.116587  -0.308564  0  1.887997  0
O  O91  1  0.32384965  0.27437732  0.38022169  1  -0.405192  0  -0.097693  -0.280789  0  1.90856  0
O  O92  1  0.23297787  0.73926076  0.73041146  1  -0.387182  0  -0.10317  -0.283458  0  1.880519  0
O  O93  1  0.20498075  0.58048370  0.77636122  1  -0.423228  0  -0.117317  -0.304326  0  1.878557  0
O  O94  1  0.23934659  0.25358946  0.26888811  1  -0.395226  0  -0.102631  -0.283076  0  1.878491  0
O  O95  1  0.20711637  0.41158404  0.22274349  1  -0.421811  0  -0.11733  -0.303821  0  1.878046  0
O  O96  1  0.63459742  0.88641181  0.88009711  1  -0.397167  0  -0.113633  -0.296516  0  1.851111  0
O  O97  1  0.40667635  0.91441129  0.87845152  1  -0.41437  0  -0.11269  -0.299896  0  1.863909  0
O  O98  1  0.64350850  0.11476580  0.12111625  1  -0.405499  0  -0.113432  -0.295686  0  1.848574  0
O  O99  1  0.41615989  0.08191430  0.12127220  1  -0.421809  0  -0.113013  -0.30104  0  1.865115  0
O  O100  1  0.73830958  0.70897185  0.26352075  1  -0.388806  0  -0.099104  -0.281153  0  1.863046  0
O  O101  1  0.76067326  0.54428274  0.21621517  1  -0.4262  0  -0.122968  -0.312409  0  1.861579  0
O  O102  1  0.74093430  0.29367263  0.73767490  1  -0.380004  0  -0.098693  -0.282036  0  1.86363  0
O  O103  1  0.76112899  0.45885719  0.78500416  1  -0.435552  0  -0.12351  -0.312675  0  1.857505  0
F  F104  1  0.71433384  0.59636428  0.34776376  1  -0.603535  0  -0.062856  -0.08461  0  1.381807  0
F  F105  1  0.71356439  0.40595768  0.65339871  1  -0.606944  0  -0.06307  -0.084348  0  1.381605  0
F  F106  1  0.42283746  0.82958917  0.04083048  1  -0.619835  0  -0.074452  -0.117466  0  1.367914  0
F  F107  1  0.42985198  0.16702659  0.95914814  1  -0.623102  0  -0.075011  -0.11845  0  1.36692  0
