# generated using pymatgen
data_AlH4C12SClO9
_symmetry_space_group_name_H-M   'P 1'
_cell_length_a   6.62405127
_cell_length_b   11.15003750
_cell_length_c   12.71340413
_cell_angle_alpha   83.71930365
_cell_angle_beta   75.11945054
_cell_angle_gamma   72.90068676
_symmetry_Int_Tables_number   1
_chemical_formula_structural   AlH4C12SClO9
_chemical_formula_sum   'Al2 H8 C24 S2 Cl2 O18'
_cell_volume   866.80257657
_cell_formula_units_Z   2
loop_
 _symmetry_equiv_pos_site_id
 _symmetry_equiv_pos_as_xyz
  1  'x, y, z'
loop_
 _atom_site_type_symbol
 _atom_site_label
 _atom_site_symmetry_multiplicity
 _atom_site_fract_x
 _atom_site_fract_y
 _atom_site_fract_z
 _atom_site_occupancy
 _atom_site_pbe_bader_charge
 _atom_site_pbe_bader_spin_density
 _atom_site_pbe_cm5_charge
 _atom_site_pbe_ddec_charge
 _atom_site_pbe_ddec_spin_density
 _atom_site_pbe_ddec_sum_bond_order
 _atom_site_pbe_magmom
Al  Al0  1  0.47641420  0.50442090  0.50082703  1  2.503681  0  0.392482  1.638762  0  2.57006  0
Al  Al1  1  0.97673493  0.50697645  0.50050006  1  2.501269  0  0.393238  1.631389  0  2.563875  0
H  H2  1  0.26210200  0.35738002  0.56913721  1  0.653339  0  0.337236  0.428402  0  0.881901  0
H  H3  1  0.76038351  0.56406155  0.36837790  1  0.633371  0  0.335297  0.405619  0  0.907069  0
H  H4  1  0.21114948  0.24185306  0.34205209  1  0.089646  0  0.113424  0.12412  0  1.014203  0
H  H5  1  0.47766158  0.77732452  0.39038830  1  0.110041  0  0.113596  0.118092  0  1.048531  0
H  H6  1  0.93944848  0.81281795  0.71384788  1  0.631919  0  0.345342  0.38353  0  0.853814  0
H  H7  1  0.72591684  0.13785774  0.72538358  1  0.615522  0  0.348245  0.38634  0  0.84552  0
H  H8  1  0.45051660  0.17320219  0.12329523  1  0.62049  0  0.339615  0.376609  0  0.866585  0
H  H9  1  0.84108343  0.76604715  0.37213771  1  0.637918  0  0.322602  0.368579  0  0.921327  0
C  C10  1  0.83990026  0.28041590  0.48457243  1  1.635977  0  0.271387  0.637696  0  4.096646  0
C  C11  1  0.63451143  0.51221710  0.69384924  1  1.614896  0  0.262777  0.667437  0  4.12452  0
C  C12  1  0.12496342  0.73316441  0.50957908  1  1.551667  0  0.266692  0.621524  0  4.112359  0
C  C13  1  0.31168642  0.51457141  0.30335805  1  1.531301  0  0.257548  0.665507  0  4.122264  0
C  C14  1  0.39825765  0.47423410  0.88318687  1  0.128701  0  0.010054  0.098673  0  4.086024  0
C  C15  1  0.53392280  0.56522646  0.11423583  1  0.205946  0  0.015212  0.108198  0  4.065923  0
C  C16  1  0.56409686  0.51743453  0.81265237  1  -0.134831  0  -0.024619  -0.195916  0  3.923847  0
C  C17  1  0.37179163  0.51975049  0.18460596  1  -0.097801  0  -0.022975  -0.182089  0  3.926257  0
C  C18  1  0.54353967  0.54889929  0.00414439  1  -0.140044  0  -0.023594  -0.069806  0  4.092723  0
C  C19  1  0.38690531  0.49252765  0.99306201  1  -0.116311  0  -0.025594  -0.065829  0  4.09175  0
C  C20  1  0.91623759  0.13929759  0.48281717  1  -0.07555  0  0.014483  -0.058726  0  3.863856  0
C  C21  1  0.12897012  0.07516093  0.42408589  1  0.103818  0  0.020593  0.094324  0  3.905466  0
C  C22  1  0.78063509  0.07214595  0.54809059  1  0.02354  0  -0.001542  -0.091669  0  3.972651  0
C  C23  1  0.26814648  0.14025570  0.35260178  1  0.058406  0  -0.069677  -0.122787  0  3.895143  0
C  C24  1  0.47484119  0.07717595  0.29829519  1  -0.067933  0  -0.00252  -0.055342  0  3.977751  0
C  C25  1  0.06046547  0.87440453  0.50276622  1  0.027869  0  0.001809  -0.091326  0  3.911749  0
C  C26  1  0.85350021  0.93921252  0.55877217  1  -0.04586  0  -0.010362  -0.109483  0  4.016315  0
C  C27  1  0.20409461  0.94101337  0.43599498  1  0.016918  0  0.015796  0.087697  0  3.911575  0
C  C28  1  0.41923575  0.87880452  0.38060281  1  -0.026392  0  -0.072592  -0.125775  0  3.907083  0
C  C29  1  0.55326371  0.94477498  0.31445000  1  0.054837  0  -0.009691  -0.065769  0  4.001234  0
C  C30  1  0.70763109  0.87152379  0.63744085  1  1.541515  0  0.228799  0.571219  0  4.132957  0
C  C31  1  0.56349509  0.13970907  0.61844298  1  1.550323  0  0.244178  0.591515  0  4.102835  0
C  C32  1  0.62441724  0.14860921  0.22774024  1  1.548511  0  0.235708  0.593187  0  4.112798  0
C  C33  1  0.77155123  0.87862668  0.24737700  1  1.523967  0  0.223236  0.5686  0  4.138707  0
S  S34  1  0.70305074  0.58057607  0.88120838  1  0.352069  0  0.114184  0.191001  0  2.912369  0
S  S35  1  0.22559566  0.46217864  0.11609998  1  0.322378  0  0.101764  0.159173  0  2.920419  0
Cl  Cl36  1  0.23056616  0.40324068  0.84879759  1  -0.142205  0  0.034724  -0.001926  0  1.66667  0
Cl  Cl37  1  0.69942955  0.63758310  0.14935976  1  -0.152595  0  0.042064  -0.007129  0  1.712699  0
O  O38  1  0.65042795  0.33333148  0.47075540  1  -1.240881  0  -0.224026  -0.568979  0  2.354993  0
O  O39  1  0.81645813  0.53401434  0.64764252  1  -1.257323  0  -0.23616  -0.578699  0  2.319247  0
O  O40  1  0.98942605  0.68147408  0.49091216  1  -1.246263  0  -0.222298  -0.576542  0  2.371738  0
O  O41  1  0.44110405  0.53521767  0.35370494  1  -1.263208  0  -0.240704  -0.607148  0  2.385441  0
O  O42  1  0.30546495  0.67608546  0.53136687  1  -1.240704  0  -0.218105  -0.539743  0  2.346403  0
O  O43  1  0.13165196  0.48911127  0.34862653  1  -1.256093  0  -0.246306  -0.604516  0  2.348158  0
O  O44  1  0.96872313  0.33437445  0.50568498  1  -1.251164  0  -0.226855  -0.583271  0  2.373838  0
O  O45  1  0.51063873  0.48416979  0.64460483  1  -1.259126  0  -0.236319  -0.599  0  2.400637  0
O  O46  1  0.23330540  0.44588911  0.54499469  1  -1.454393  0  -0.451018  -0.996607  0  2.193118  0
O  O47  1  0.72397350  0.56345381  0.44771527  1  -1.438747  0  -0.451391  -0.980855  0  2.188214  0
O  O48  1  0.79275437  0.80601264  0.72039743  1  -1.116212  0  -0.323762  -0.469539  0  2.275055  0
O  O49  1  0.52418130  0.87712513  0.63305393  1  -1.096531  0  -0.263544  -0.419603  0  2.073461  0
O  O50  1  0.57477467  0.16417360  0.71918622  1  -1.087298  0  -0.323412  -0.468199  0  2.23485  0
O  O51  1  0.39020489  0.17048092  0.59312076  1  -1.109387  0  -0.248617  -0.425053  0  2.143185  0
O  O52  1  0.57322775  0.19933048  0.13271906  1  -1.107329  0  -0.330201  -0.478614  0  2.271957  0
O  O53  1  0.77759249  0.16523874  0.25430887  1  -1.112569  0  -0.276609  -0.445287  0  2.074097  0
O  O54  1  0.89496312  0.77762997  0.29286356  1  -1.146154  0  -0.336288  -0.476919  0  2.302578  0
O  O55  1  0.83561503  0.91120357  0.15283040  1  -1.10693  0  -0.283308  -0.455047  0  2.063969  0
