# generated using pymatgen
data_Cu3H13C14SI3N5
_symmetry_space_group_name_H-M   'P 1'
_cell_length_a   9.23815696
_cell_length_b   10.62641162
_cell_length_c   11.08504527
_cell_angle_alpha   76.95559221
_cell_angle_beta   86.15258180
_cell_angle_gamma   69.69844808
_symmetry_Int_Tables_number   1
_chemical_formula_structural   Cu3H13C14SI3N5
_chemical_formula_sum   'Cu6 H26 C28 S2 I6 N10'
_cell_volume   994.19113839
_cell_formula_units_Z   2
loop_
 _symmetry_equiv_pos_site_id
 _symmetry_equiv_pos_as_xyz
  1  'x, y, z'
loop_
 _atom_site_type_symbol
 _atom_site_label
 _atom_site_symmetry_multiplicity
 _atom_site_fract_x
 _atom_site_fract_y
 _atom_site_fract_z
 _atom_site_occupancy
 _atom_site_hle17_bader_spin_density
 _atom_site_hle17_ddec_charge
 _atom_site_hle17_ddec_spin_density
 _atom_site_hle17_ddec_sum_bond_order
 _atom_site_hle17_magmom
 _atom_site_hse06_10hf_bader_spin_density
 _atom_site_hse06_10hf_ddec_charge
 _atom_site_hse06_10hf_ddec_spin_density
 _atom_site_hse06_10hf_ddec_sum_bond_order
 _atom_site_hse06_10hf_magmom
 _atom_site_hse06_bader_spin_density
 _atom_site_hse06_ddec_charge
 _atom_site_hse06_ddec_spin_density
 _atom_site_hse06_ddec_sum_bond_order
 _atom_site_hse06_magmom
 _atom_site_pbe_bader_spin_density
 _atom_site_pbe_cm5_charge
 _atom_site_pbe_ddec_charge
 _atom_site_pbe_ddec_spin_density
 _atom_site_pbe_ddec_sum_bond_order
 _atom_site_pbe_magmom
Cu  Cu0  1  0.41250187  0.27807878  0.76119851  1  0  0.270576  0  2.217498  0  0  0.173687  0  2.718176  0  0  0.17837  0  2.669293  0  0  0.344579  0.173167  0  2.748796  0
Cu  Cu1  1  0.58749763  0.72192066  0.23880006  1  0  0.270568  0  2.217574  0  0  0.17368  0  2.718271  0  0  0.178368  0  2.669385  0  0  0.344574  0.173164  0  2.748892  0
Cu  Cu2  1  0.10173066  0.49492141  0.58110020  1  0  0.232338  0  2.181738  0  0  0.150516  0  2.668683  0  0  0.163825  0  2.61053  0  0  0.242086  0.142886  0  2.708045  0
Cu  Cu3  1  0.89826834  0.50508214  0.41889659  1  0  0.232343  0  2.181714  0  0  0.150521  0  2.668663  0  0  0.163833  0  2.610516  0  0  0.242071  0.14289  0  2.708031  0
Cu  Cu4  1  0.21015889  0.18576482  0.68948654  1  0  0.252791  0  2.133427  0  0  0.179173  0  2.597215  0  0  0.193628  0  2.540988  0  0  0.238844  0.170624  0  2.634598  0
Cu  Cu5  1  0.78984209  0.81423360  0.31051307  1  0  0.252735  0  2.133466  0  0  0.179109  0  2.597274  0  0  0.193577  0  2.541025  0  0  0.238819  0.170561  0  2.634655  0
H  H6  1  0.46817047  0.17079121  0.03291715  1  0  0.075105  0  0.951701  0  0  0.079732  0  1.022616  0  0  0.083528  0  1.018391  0  0  0.10329  0.076467  0  1.026514  0
H  H7  1  0.53183169  0.82920411  0.96708217  1  0  0.075063  0  0.951849  0  0  0.079742  0  1.02269  0  0  0.083537  0  1.018465  0  0  0.103289  0.076475  0  1.026587  0
H  H8  1  0.60257416  0.20627026  0.20148256  1  0  0.094853  0  0.996428  0  0  0.099853  0  1.068792  0  0  0.102679  0  1.068539  0  0  0.09117  0.097896  0  1.068884  0
H  H9  1  0.39742682  0.79372815  0.79851705  1  0  0.094829  0  0.996498  0  0  0.099835  0  1.068855  0  0  0.102659  0  1.068604  0  0  0.091165  0.097874  0  1.068944  0
H  H10  1  0.74974337  0.37420971  0.14818899  1  0  0.095431  0  0.949183  0  0  0.104271  0  1.013816  0  0  0.106251  0  1.013213  0  0  0.099141  0.102439  0  1.014983  0
H  H11  1  0.25025238  0.62579384  0.85180980  1  0  0.095465  0  0.949179  0  0  0.104286  0  1.013832  0  0  0.106266  0  1.013229  0  0  0.099152  0.102454  0  1.014993  0
H  H12  1  0.77134620  0.47928619  0.92550939  1  0  0.110763  0  0.956852  0  0  0.120118  0  1.017377  0  0  0.123558  0  1.016315  0  0  0.0972  0.11677  0  1.019893  0
H  H13  1  0.22864699  0.52071838  0.07448933  1  0  0.110692  0  0.957005  0  0  0.120079  0  1.017478  0  0  0.123526  0  1.01641  0  0  0.097183  0.116729  0  1.019994  0
H  H14  1  0.73203713  0.49141049  0.71296217  1  0  0.103547  0  0.963576  0  0  0.115395  0  1.031734  0  0  0.117332  0  1.030419  0  0  0.105731  0.11383  0  1.032821  0
H  H15  1  0.26796198  0.50858998  0.28703710  1  0  0.103518  0  0.963555  0  0  0.115355  0  1.031731  0  0  0.117291  0  1.030417  0  0  0.105705  0.113787  0  1.032821  0
H  H16  1  0.70977695  0.34115157  0.68460653  1  0  0.105914  0  0.919513  0  0  0.119294  0  0.986638  0  0  0.121103  0  0.984577  0  0  0.120226  0.117772  0  0.988502  0
H  H17  1  0.29022068  0.65884992  0.31539440  1  0  0.105897  0  0.919488  0  0  0.119275  0  0.986616  0  0  0.121081  0  0.984559  0  0  0.120227  0.117757  0  0.988476  0
H  H18  1  0.52232861  0.71782127  0.61323917  1  0  0.138798  0  0.967246  0  0  0.145544  0  1.034916  0  0  0.150001  0  1.030956  0  0  0.11711  0.142122  0  1.037926  0
H  H19  1  0.47767011  0.28218022  0.38676080  1  0  0.138826  0  0.967228  0  0  0.145573  0  1.034901  0  0  0.150031  0  1.030939  0  0  0.117117  0.142151  0  1.037911  0
H  H20  1  0.08356946  0.80819281  0.49888842  1  0  0.110627  0  0.987513  0  0  0.117817  0  1.062093  0  0  0.119843  0  1.061585  0  0  0.091541  0.116186  0  1.062572  0
H  H21  1  0.91642807  0.19181177  0.50111095  1  0  0.110673  0  0.987427  0  0  0.117841  0  1.061997  0  0  0.119867  0  1.061487  0  0  0.091572  0.116203  0  1.062495  0
H  H22  1  0.23703716  0.83230706  0.40157937  1  0  0.116739  0  0.942176  0  0  0.129473  0  1.007239  0  0  0.131504  0  1.006462  0  0  0.097545  0.1278  0  1.007916  0
H  H23  1  0.76296452  0.16769239  0.59842268  1  0  0.116712  0  0.942176  0  0  0.129415  0  1.007252  0  0  0.131439  0  1.006481  0  0  0.097529  0.127744  0  1.007924  0
H  H24  1  0.02675381  0.78098534  0.68307381  1  0  0.102509  0  1.001824  0  0  0.11215  0  1.067526  0  0  0.11507  0  1.066686  0  0  0.088348  0.109013  0  1.070264  0
H  H25  1  0.97325329  0.21901411  0.31692611  1  0  0.102532  0  1.001724  0  0  0.112164  0  1.067454  0  0  0.115086  0  1.066612  0  0  0.088295  0.109026  0  1.070198  0
H  H26  1  0.84853847  0.81673120  0.85850172  1  0  0.094683  0  0.937577  0  0  0.105532  0  0.996511  0  0  0.109046  0  0.992992  0  0  0.097262  0.101859  0  1.001044  0
H  H27  1  0.15146724  0.18326618  0.14149693  1  0  0.094769  0  0.937544  0  0  0.105594  0  0.996494  0  0  0.109108  0  0.992974  0  0  0.097272  0.101919  0  1.001029  0
H  H28  1  0.81286893  0.01978957  0.95380605  1  0  0.106507  0  0.949378  0  0  0.118837  0  1.00552  0  0  0.121672  0  1.005535  0  0  0.103636  0.116844  0  1.005252  0
H  H29  1  0.18713501  0.98020679  0.04619473  1  0  0.106502  0  0.949338  0  0  0.118832  0  1.005494  0  0  0.121667  0  1.005508  0  0  0.103615  0.116835  0  1.005224  0
H  H30  1  0.97082897  0.16994163  0.87333064  1  0  0.066084  0  0.989156  0  0  0.073448  0  1.059125  0  0  0.075631  0  1.058041  0  0  0.09339  0.072005  0  1.059393  0
H  H31  1  0.02917311  0.83005679  0.12667161  1  0  0.066094  0  0.989189  0  0  0.073457  0  1.059154  0  0  0.075639  0  1.05807  0  0  0.093378  0.072013  0  1.059417  0
C  C32  1  0.53621912  0.23881875  0.01248542  1  0  0.127646  0  3.693505  0  0  0.100875  0  3.939788  0  0  0.107853  0  3.954712  0  0  0.039575  0.095985  0  3.930777  0
C  C33  1  0.46377999  0.76118171  0.98751385  1  0  0.127681  0  3.693512  0  0  0.100897  0  3.939792  0  0  0.107875  0  3.954718  0  0  0.039577  0.096007  0  3.930776  0
C  C34  1  0.61031802  0.26085895  0.10684848  1  0  -0.121625  0  3.735017  0  0  -0.133333  0  3.981233  0  0  -0.141081  0  4.004383  0  0  -0.090671  -0.128456  0  3.966077  0
C  C35  1  0.38967783  0.73914151  0.89315008  1  0  -0.121558  0  3.735087  0  0  -0.133256  0  3.981289  0  0  -0.141005  0  4.004442  0  0  -0.090636  -0.128377  0  3.966123  0
C  C36  1  0.69314375  0.35103236  0.07706240  1  0  0.00636  0  3.709665  0  0  -0.013067  0  3.960168  0  0  -0.009016  0  3.979674  0  0  -0.071806  -0.015678  0  3.947031  0
C  C37  1  0.30685349  0.64897016  0.92293653  1  0  0.006321  0  3.709898  0  0  -0.013111  0  3.960424  0  0  -0.00906  0  3.979933  0  0  -0.071824  -0.015716  0  3.947277  0
C  C38  1  0.70459841  0.41086295  0.95287231  1  0  -0.152933  0  3.71495  0  0  -0.168368  0  3.956185  0  0  -0.175777  0  3.977966  0  0  -0.085703  -0.163618  0  3.941888  0
C  C39  1  0.29539418  0.58913750  0.04712465  1  0  -0.152878  0  3.715073  0  0  -0.168306  0  3.956309  0  0  -0.175719  0  3.978086  0  0  -0.085687  -0.163555  0  3.942014  0
C  C40  1  0.63222036  0.37944202  0.86309109  1  0  0.21942  0  3.710121  0  0  0.22275  0  3.9539  0  0  0.228237  0  3.975439  0  0  0.11068  0.219061  0  3.939472  0
C  C41  1  0.36777864  0.62056153  0.13690751  1  0  0.219318  0  3.710167  0  0  0.222584  0  3.954049  0  0  0.228068  0  3.975594  0  0  0.110618  0.218896  0  3.939632  0
C  C42  1  0.65583884  0.43012480  0.72712109  1  0  -0.090342  0  3.628713  0  0  -0.169059  0  3.87271  0  0  -0.165924  0  3.879342  0  0  -0.042478  -0.171039  0  3.868396  0
C  C43  1  0.34416255  0.56987259  0.27288052  1  0  -0.090264  0  3.628637  0  0  -0.168911  0  3.872532  0  0  -0.165771  0  3.879166  0  0  -0.042429  -0.170887  0  3.868233  0
C  C44  1  0.45644931  0.65105822  0.61328594  1  0  -0.082101  0  3.609205  0  0  -0.152278  0  3.874586  0  0  -0.147831  0  3.886872  0  0  0.026426  -0.154951  0  3.866402  0
C  C45  1  0.54354873  0.34894225  0.38671700  1  0  -0.082053  0  3.609208  0  0  -0.152255  0  3.874602  0  0  -0.147807  0  3.886886  0  0  0.026464  -0.154931  0  3.866419  0
C  C46  1  0.31146621  0.67657624  0.56636798  1  0  0.164114  0  3.745285  0  0  0.163227  0  4.016168  0  0  0.164824  0  4.036028  0  0  0.087674  0.162021  0  4.003211  0
C  C47  1  0.68852927  0.32342526  0.43363488  1  0  0.164033  0  3.745221  0  0  0.163143  0  4.016083  0  0  0.164739  0  4.035939  0  0  0.087634  0.161939  0  4.003123  0
C  C48  1  0.20198588  0.80942059  0.49882543  1  0  -0.215884  0  3.679448  0  0  -0.24813  0  3.917548  0  0  -0.249368  0  3.927448  0  0  -0.149573  -0.246878  0  3.910595  0
C  C49  1  0.79801363  0.19057886  0.50117585  1  0  -0.215817  0  3.679303  0  0  -0.247957  0  3.917289  0  0  -0.249186  0  3.927185  0  0  -0.149525  -0.246707  0  3.910329  0
C  C50  1  0.09132658  0.95915838  0.68286651  1  0  0.175322  0  3.762726  0  0  0.178227  0  4.021701  0  0  0.18795  0  4.040659  0  0  0.106486  0.172304  0  4.00752  0
C  C51  1  0.90867578  0.04084209  0.31713347  1  0  0.1752  0  3.76277  0  0  0.178146  0  4.021702  0  0  0.18787  0  4.040661  0  0  0.106485  0.172229  0  4.007525  0
C  C52  1  0.01257168  0.86656865  0.72643360  1  0  -0.16894  0  3.750643  0  0  -0.186236  0  3.998266  0  0  -0.194774  0  4.019659  0  0  -0.102558  -0.181002  0  3.98403  0
C  C53  1  0.98743070  0.13343183  0.27356908  1  0  -0.168763  0  3.750238  0  0  -0.186072  0  3.99785  0  0  -0.194609  0  4.019241  0  0  -0.102459  -0.180832  0  3.983611  0
C  C54  1  0.91156237  0.88715170  0.82443517  1  0  0.011318  0  3.73866  0  0  -0.008089  0  3.990408  0  0  -0.000504  0  4.003773  0  0  -0.077383  -0.012141  0  3.981103  0
C  C55  1  0.08844441  0.11284569  0.17556071  1  0  0.011109  0  3.738584  0  0  -0.008255  0  3.990322  0  0  -0.00067  0  4.003688  0  0  -0.077413  -0.012304  0  3.981021  0
C  C56  1  0.89217450  0.99901582  0.87786103  1  0  -0.135593  0  3.764645  0  0  -0.151024  0  4.018786  0  0  -0.15792  0  4.038729  0  0  -0.099287  -0.146634  0  4.003692  0
C  C57  1  0.10782650  0.00098260  0.12214218  1  0  -0.135517  0  3.764705  0  0  -0.150966  0  4.018847  0  0  -0.157863  0  4.03879  0  0  -0.09927  -0.146567  0  4.003753  0
C  C58  1  0.97818294  0.08337561  0.83282530  1  0  0.119112  0  3.708264  0  0  0.092786  0  3.95602  0  0  0.100094  0  3.972993  0  0  0.027445  0.087857  0  3.943873  0
C  C59  1  0.02182021  0.91662280  0.16717418  1  0  0.118999  0  3.708247  0  0  0.092685  0  3.955997  0  0  0.099997  0  3.972968  0  0  0.027409  0.087744  0  3.943881  0
S  S60  1  0.21055057  0.95571082  0.55304286  1  0  0.039216  0  2.548091  0  0  0.044062  0  2.903237  0  0  0.040902  0  2.903353  0  0  0.023466  0.0447  0  2.902977  0
S  S61  1  0.78945061  0.04429274  0.44695651  1  0  0.039151  0  2.548229  0  0  0.043978  0  2.903301  0  0  0.040796  0  2.903447  0  0  0.023396  0.044619  0  2.903038  0
I  I62  1  0.50889750  0.04336135  0.70643153  1  0  -0.426351  0  1.531226  0  0  -0.3779  0  1.952185  0  0  -0.399006  0  1.920122  0  0  -0.22171  -0.362818  0  1.974319  0
I  I63  1  0.49110456  0.95663705  0.29356621  1  0  -0.426328  0  1.531271  0  0  -0.377861  0  1.952224  0  0  -0.398971  0  1.920159  0  0  -0.221695  -0.362776  0  1.974362  0
I  I64  1  0.11703463  0.37237517  0.83394079  1  0  -0.399655  0  1.517444  0  0  -0.345228  0  1.925592  0  0  -0.361014  0  1.887135  0  0  -0.200275  -0.333182  0  1.954465  0
I  I65  1  0.88296418  0.62762324  0.16605625  1  0  -0.39963  0  1.517452  0  0  -0.345206  0  1.925609  0  0  -0.360995  0  1.887156  0  0  -0.200253  -0.333156  0  1.95448  0
I  I66  1  0.16313943  0.30985910  0.44764871  1  0  -0.338962  0  1.956471  0  0  -0.292092  0  2.445816  0  0  -0.305026  0  2.396331  0  0  -0.151818  -0.281253  0  2.480816  0
I  I67  1  0.83685889  0.69014343  0.55235105  1  0  -0.338927  0  1.956438  0  0  -0.29208  0  2.445813  0  0  -0.305011  0  2.396322  0  0  -0.151825  -0.281246  0  2.480806  0
N  N68  1  0.54555769  0.29743593  0.89233461  1  0  -0.309432  0  3.323211  0  0  -0.243979  0  3.606441  0  0  -0.256421  0  3.6167  0  0  -0.351689  -0.236335  0  3.599392  0
N  N69  1  0.45444032  0.70256454  0.10766382  1  0  -0.309392  0  3.323269  0  0  -0.24397  0  3.606579  0  0  -0.256412  0  3.61684  0  0  -0.351684  -0.236327  0  3.599533  0
N  N70  1  0.51240490  0.51392615  0.65977022  1  0  0.09128  0  3.544202  0  0  0.204353  0  3.728129  0  0  0.19855  0  3.749557  0  0  -0.130187  0.207973  0  3.714148  0
N  N71  1  0.48759638  0.48607433  0.34023072  1  0  0.091298  0  3.544246  0  0  0.204376  0  3.728169  0  0  0.19857  0  3.749601  0  0  -0.130177  0.207996  0  3.714193  0
N  N72  1  0.40961230  0.45473343  0.64397614  1  0  -0.075886  0  3.137444  0  0  -0.061635  0  3.449759  0  0  -0.057669  0  3.450258  0  0  -0.156088  -0.064958  0  3.450162  0
N  N73  1  0.59038711  0.54526910  0.35602356  1  0  -0.075929  0  3.137504  0  0  -0.061684  0  3.449823  0  0  -0.057721  0  3.450325  0  0  -0.156114  -0.065009  0  3.450228  0
N  N74  1  0.28616114  0.55395460  0.58745694  1  0  -0.198124  0  3.230738  0  0  -0.15562  0  3.546153  0  0  -0.160373  0  3.550241  0  0  -0.256557  -0.153297  0  3.544912  0
N  N75  1  0.71383433  0.44604690  0.41254412  1  0  -0.198126  0  3.230657  0  0  -0.155629  0  3.546073  0  0  -0.16038  0  3.550164  0  0  -0.25655  -0.153304  0  3.544831  0
N  N76  1  0.07729737  0.06524852  0.73759305  1  0  -0.315238  0  3.327263  0  0  -0.245105  0  3.608852  0  0  -0.259767  0  3.617066  0  0  -0.365071  -0.235371  0  3.602957  0
N  N77  1  0.92270392  0.93475196  0.26240969  1  0  -0.315126  0  3.327149  0  0  -0.245022  0  3.608739  0  0  -0.25969  0  3.616957  0  0  -0.364999  -0.235289  0  3.602849  0
