# generated using pymatgen
data_ErH13C18N3O8
_symmetry_space_group_name_H-M   'P 1'
_cell_length_a   5.85873769
_cell_length_b   10.43587877
_cell_length_c   14.59105633
_cell_angle_alpha   112.00373007
_cell_angle_beta   87.94761832
_cell_angle_gamma   97.23321723
_symmetry_Int_Tables_number   1
_chemical_formula_structural   ErH13C18N3O8
_chemical_formula_sum   'Er2 H26 C36 N6 O16'
_cell_volume   820.48590229
_cell_formula_units_Z   2
loop_
 _symmetry_equiv_pos_site_id
 _symmetry_equiv_pos_as_xyz
  1  'x, y, z'
loop_
 _atom_site_type_symbol
 _atom_site_label
 _atom_site_symmetry_multiplicity
 _atom_site_fract_x
 _atom_site_fract_y
 _atom_site_fract_z
 _atom_site_occupancy
 _atom_site_hle17_bader_spin_density
 _atom_site_hle17_ddec_charge
 _atom_site_hle17_ddec_spin_density
 _atom_site_hle17_ddec_sum_bond_order
 _atom_site_hle17_magmom
 _atom_site_hse06_10hf_bader_spin_density
 _atom_site_hse06_10hf_ddec_charge
 _atom_site_hse06_10hf_ddec_spin_density
 _atom_site_hse06_10hf_ddec_sum_bond_order
 _atom_site_hse06_10hf_magmom
 _atom_site_hse06_bader_spin_density
 _atom_site_hse06_ddec_charge
 _atom_site_hse06_ddec_spin_density
 _atom_site_hse06_ddec_sum_bond_order
 _atom_site_hse06_magmom
 _atom_site_pbe_bader_spin_density
 _atom_site_pbe_cm5_charge
 _atom_site_pbe_ddec_charge
 _atom_site_pbe_ddec_spin_density
 _atom_site_pbe_ddec_sum_bond_order
 _atom_site_pbe_magmom
Er  Er0  1  0.38641105  0.25436952  0.51326720  1  0  2.276098  0  1.604665  0  0  2.135842  0  2.073226  0  0  2.264141  0  1.879153  0  0  1.507198  2.101378  0  2.101946  0
Er  Er1  1  0.61360234  0.74563291  0.48673102  1  0  2.276025  0  1.604684  0  0  2.135729  0  2.073362  0  0  2.264091  0  1.879172  0  0  1.50718  2.101265  0  2.102075  0
H  H2  1  0.13129618  0.02238819  0.57875314  1  0  0.460185  0  0.824335  0  0  0.434292  0  0.877388  0  0  0.445045  0  0.861882  0  0  0.31086  0.426963  0  0.887984  0
H  H3  1  0.86870548  0.97761577  0.42124667  1  0  0.460215  0  0.824311  0  0  0.434328  0  0.877348  0  0  0.44508  0  0.861845  0  0  0.310863  0.427  0  0.887946  0
H  H4  1  0.39445610  0.04424577  0.60439609  1  0  0.44477  0  0.847535  0  0  0.415754  0  0.908802  0  0  0.425656  0  0.894507  0  0  0.309731  0.408519  0  0.919589  0
H  H5  1  0.60554784  0.95574752  0.39560006  1  0  0.44475  0  0.847575  0  0  0.415762  0  0.908778  0  0  0.425667  0  0.894475  0  0  0.309777  0.408532  0  0.919555  0
H  H6  1  0.74379920  0.44153316  0.47351224  1  0  0.431082  0  0.855043  0  0  0.401687  0  0.926486  0  0  0.412083  0  0.911627  0  0  0.308855  0.394019  0  0.93776  0
H  H7  1  0.25620872  0.55846210  0.52648438  1  0  0.43113  0  0.855063  0  0  0.401747  0  0.926409  0  0  0.412142  0  0.911554  0  0  0.30891  0.39408  0  0.937682  0
H  H8  1  0.86827893  0.31792669  0.47537430  1  0  0.4413  0  0.840686  0  0  0.411769  0  0.911017  0  0  0.42259  0  0.895376  0  0  0.311646  0.403809  0  0.922808  0
H  H9  1  0.13172893  0.68206990  0.52462536  1  0  0.441241  0  0.840769  0  0  0.41168  0  0.911111  0  0  0.42253  0  0.895441  0  0  0.311635  0.403724  0  0.922894  0
H  H10  1  0.51876858  0.01904277  0.16544431  1  0  0.113503  0  0.936795  0  0  0.119249  0  1.005178  0  0  0.12315  0  1.001104  0  0  0.111971  0.116395  0  1.008154  0
H  H11  1  0.48121104  0.98095559  0.83456438  1  0  0.11348  0  0.936723  0  0  0.119181  0  1.00515  0  0  0.123073  0  1.001098  0  0  0.111927  0.11633  0  1.008123  0
H  H12  1  0.36640741  0.90988809  0.98963346  1  0  0.110098  0  0.969606  0  0  0.117095  0  1.036969  0  0  0.120508  0  1.035747  0  0  0.107656  0.114731  0  1.037981  0
H  H13  1  0.63358493  0.09010033  0.01037184  1  0  0.110057  0  0.969587  0  0  0.117064  0  1.036935  0  0  0.12051  0  1.035663  0  0  0.107671  0.114698  0  1.037952  0
H  H14  1  0.83324293  0.92110818  0.25825008  1  0  0.077527  0  0.955463  0  0  0.084847  0  1.023669  0  0  0.088458  0  1.019436  0  0  0.113677  0.082295  0  1.026464  0
H  H15  1  0.16671864  0.07889404  0.74175100  1  0  0.077546  0  0.955557  0  0  0.084873  0  1.023728  0  0  0.088472  0  1.019508  0  0  0.113687  0.082322  0  1.026525  0
H  H16  1  0.59784257  0.73414007  0.98601857  1  0  0.106092  0  0.984264  0  0  0.111008  0  1.055254  0  0  0.115133  0  1.052487  0  0  0.105706  0.108373  0  1.056813  0
H  H17  1  0.40214530  0.26584923  0.01397379  1  0  0.105999  0  0.984376  0  0  0.110937  0  1.055324  0  0  0.115037  0  1.052641  0  0  0.105654  0.108304  0  1.056881  0
H  H18  1  0.42470052  0.61913436  0.81642339  1  0  0.102635  0  0.974823  0  0  0.109377  0  1.042723  0  0  0.112477  0  1.039566  0  0  0.10937  0.10727  0  1.044626  0
H  H19  1  0.57530322  0.38086032  0.18356617  1  0  0.102726  0  0.97471  0  0  0.109344  0  1.042748  0  0  0.112448  0  1.039585  0  0  0.109369  0.107236  0  1.044658  0
H  H20  1  0.08032158  0.72921510  0.70316268  1  0  0.098268  0  0.940227  0  0  0.105351  0  1.002675  0  0  0.109251  0  0.99867  0  0  0.116153  0.102783  0  1.005105  0
H  H21  1  0.91969855  0.27078971  0.29684094  1  0  0.098316  0  0.940318  0  0  0.105407  0  1.00275  0  0  0.109303  0  0.998765  0  0  0.116148  0.102841  0  1.00518  0
H  H22  1  0.55083485  0.28688700  0.77793272  1  0  0.107523  0  0.927795  0  0  0.119091  0  0.986306  0  0  0.12205  0  0.983899  0  0  0.116004  0.117018  0  0.98793  0
H  H23  1  0.44916685  0.71310678  0.22206763  1  0  0.107579  0  0.927736  0  0  0.119124  0  0.986262  0  0  0.122077  0  0.983852  0  0  0.115998  0.11704  0  0.987898  0
H  H24  1  0.61958313  0.39874019  0.96166142  1  0  0.112722  0  0.966494  0  0  0.118563  0  1.035856  0  0  0.122813  0  1.032772  0  0  0.108894  0.11564  0  1.038093  0
H  H25  1  0.38042244  0.60126073  0.03833983  1  0  0.112779  0  0.966499  0  0  0.118589  0  1.035912  0  0  0.122834  0  1.032828  0  0  0.108899  0.115665  0  1.038147  0
H  H26  1  0.25909205  0.42667161  0.74135609  1  0  0.072924  0  0.988405  0  0  0.074925  0  1.065909  0  0  0.078286  0  1.062942  0  0  0.115  0.071818  0  1.069744  0
H  H27  1  0.74091005  0.57332948  0.25864586  1  0  0.072915  0  0.988401  0  0  0.07498  0  1.065834  0  0  0.078342  0  1.062862  0  0  0.115022  0.071877  0  1.069663  0
C  C28  1  0.25368250  0.04636836  0.33189616  1  0  0.652641  0  3.917281  0  0  0.601209  0  4.212881  0  0  0.633801  0  4.214988  0  0  0.201743  0.577955  0  4.217197  0
C  C29  1  0.74630354  0.95363258  0.66810972  1  0  0.652444  0  3.917513  0  0  0.601109  0  4.212972  0  0  0.633695  0  4.215104  0  0  0.201789  0.577853  0  4.217292  0
C  C30  1  0.18646560  0.97717998  0.22589002  1  0  -0.125669  0  3.74909  0  0  -0.099298  0  3.983187  0  0  -0.111683  0  4.006925  0  0  -0.015538  -0.090799  0  3.967189  0
C  C31  1  0.81351025  0.02282001  0.77411348  1  0  -0.125299  0  3.749191  0  0  -0.098987  0  3.983244  0  0  -0.111363  0  4.006979  0  0  -0.015423  -0.090489  0  3.967249  0
C  C32  1  0.33970342  0.97386780  0.14928089  1  0  -0.000648  0  3.665595  0  0  -0.030307  0  3.916918  0  0  -0.024867  0  3.933411  0  0  -0.057441  -0.033806  0  3.906399  0
C  C33  1  0.66028271  0.02613307  0.85072428  1  0  -0.000797  0  3.666104  0  0  -0.030415  0  3.917459  0  0  -0.024976  0  3.933952  0  0  -0.057547  -0.033909  0  3.906928  0
C  C34  1  0.25711356  0.91388727  0.05223328  1  0  -0.136541  0  3.681902  0  0  -0.154214  0  3.931045  0  0  -0.161659  0  3.951335  0  0  -0.077901  -0.149937  0  3.918586  0
C  C35  1  0.74285878  0.08610529  0.94776651  1  0  -0.136543  0  3.682046  0  0  -0.154218  0  3.931172  0  0  -0.161672  0  3.951426  0  0  -0.07797  -0.149935  0  3.918717  0
C  C36  1  0.02611293  0.85649989  0.03402786  1  0  0.181908  0  3.745987  0  0  0.180531  0  3.989811  0  0  0.187485  0  4.008259  0  0  0.124086  0.17613  0  3.977953  0
C  C37  1  0.97387060  0.14349792  0.96597662  1  0  0.181905  0  3.746147  0  0  0.180533  0  3.989955  0  0  0.187488  0  4.008399  0  0  0.124099  0.176119  0  3.978118  0
C  C38  1  0.95733122  0.91857750  0.20033395  1  0  0.134122  0  3.709353  0  0  0.096745  0  3.970969  0  0  0.104791  0  3.985934  0  0  0.055252  0.091708  0  3.960355  0
C  C39  1  0.04264764  0.08142393  0.79966438  1  0  0.134117  0  3.709361  0  0  0.096777  0  3.970931  0  0  0.104829  0  3.985897  0  0  0.055265  0.091737  0  3.960323  0
C  C40  1  0.92659975  0.79033951  0.93275731  1  0  0.17761  0  3.760772  0  0  0.176805  0  4.004125  0  0  0.183746  0  4.02315  0  0  0.121466  0.172258  0  3.991573  0
C  C41  1  0.07338768  0.20965651  0.06724063  1  0  0.177707  0  3.760961  0  0  0.176886  0  4.004317  0  0  0.183823  0  4.023344  0  0  0.121447  0.172337  0  3.991768  0
C  C42  1  0.69653246  0.73002343  0.92077605  1  0  -0.140744  0  3.714091  0  0  -0.159146  0  3.963323  0  0  -0.166877  0  3.98362  0  0  -0.082276  -0.1543  0  3.950389  0
C  C43  1  0.30346445  0.26997278  0.07921653  1  0  -0.140684  0  3.714067  0  0  -0.159046  0  3.96318  0  0  -0.166791  0  3.983474  0  0  -0.082152  -0.154195  0  3.950243  0
C  C44  1  0.60282787  0.66579082  0.82664489  1  0  -0.00095  0  3.706305  0  0  -0.029422  0  3.955976  0  0  -0.023963  0  3.972564  0  0  -0.062127  -0.032774  0  3.94508  0
C  C45  1  0.39717723  0.33421171  0.17335189  1  0  -0.001017  0  3.70626  0  0  -0.029372  0  3.955991  0  0  -0.023905  0  3.972565  0  0  -0.06214  -0.032726  0  3.945099  0
C  C46  1  0.74032732  0.66307119  0.74579692  1  0  -0.129403  0  3.722364  0  0  -0.10868  0  3.960081  0  0  -0.121255  0  3.98247  0  0  -0.016413  -0.10024  0  3.945418  0
C  C47  1  0.25967847  0.33693334  0.25419962  1  0  -0.1294  0  3.722499  0  0  -0.10879  0  3.960445  0  0  -0.121368  0  3.982814  0  0  -0.016387  -0.100349  0  3.945784  0
C  C48  1  0.96795456  0.72912259  0.76457358  1  0  0.123801  0  3.670096  0  0  0.089223  0  3.93303  0  0  0.096963  0  3.947966  0  0  0.051716  0.084112  0  3.922921  0
C  C49  1  0.03205342  0.27088153  0.23542977  1  0  0.123721  0  3.670281  0  0  0.089162  0  3.933262  0  0  0.096905  0  3.948188  0  0  0.051685  0.084052  0  3.923155  0
C  C50  1  0.64932016  0.58347552  0.64352429  1  0  0.737847  0  3.81798  0  0  0.692014  0  4.100522  0  0  0.728926  0  4.093112  0  0  0.241233  0.667293  0  4.107859  0
C  C51  1  0.35069481  0.41652567  0.35647230  1  0  0.738029  0  3.817561  0  0  0.692088  0  4.10033  0  0  0.729025  0  4.092863  0  0  0.241279  0.667364  0  4.107682  0
C  C52  1  0.87309925  0.29106409  0.63627705  1  0  0.738388  0  3.835444  0  0  0.69006  0  4.121484  0  0  0.72721  0  4.113963  0  0  0.24046  0.664988  0  4.128973  0
C  C53  1  0.12690770  0.70893448  0.36372165  1  0  0.738392  0  3.835499  0  0  0.690203  0  4.121313  0  0  0.727356  0  4.113785  0  0  0.240527  0.665129  0  4.128808  0
C  C54  1  0.90245445  0.34751622  0.74555867  1  0  -0.143  0  3.751543  0  0  -0.122255  0  3.991412  0  0  -0.135284  0  4.014597  0  0  -0.017961  -0.1136  0  3.97602  0
C  C55  1  0.09754367  0.65248290  0.25444280  1  0  -0.14291  0  3.751466  0  0  -0.122186  0  3.991311  0  0  -0.135211  0  4.014489  0  0  -0.017916  -0.11353  0  3.97592  0
C  C56  1  0.71963230  0.33895558  0.80840724  1  0  0.004553  0  3.687569  0  0  -0.023938  0  3.937984  0  0  -0.018739  0  3.955578  0  0  -0.057041  -0.02685  0  3.925804  0
C  C57  1  0.28037936  0.66104949  0.19159635  1  0  0.004471  0  3.687288  0  0  -0.023999  0  3.937718  0  0  -0.018794  0  3.955303  0  0  -0.057073  -0.026906  0  3.925543  0
C  C58  1  0.75677106  0.39979348  0.90974827  1  0  -0.128622  0  3.680667  0  0  -0.148403  0  3.931866  0  0  -0.155845  0  3.952239  0  0  -0.074146  -0.143781  0  3.918694  0
C  C59  1  0.24324063  0.60020265  0.09024788  1  0  -0.128635  0  3.680759  0  0  -0.148496  0  3.931904  0  0  -0.155934  0  3.952268  0  0  -0.074142  -0.143869  0  3.918725  0
C  C60  1  0.97666656  0.46648948  0.94617858  1  0  0.185377  0  3.741595  0  0  0.18399  0  3.984814  0  0  0.191179  0  4.002811  0  0  0.127283  0.179432  0  3.972992  0
C  C61  1  0.02333469  0.53351861  0.05382142  1  0  0.185197  0  3.741909  0  0  0.184149  0  3.984821  0  0  0.191348  0  4.002802  0  0  0.127359  0.179587  0  3.973  0
C  C62  1  0.11524036  0.41661490  0.78887504  1  0  0.122215  0  3.710683  0  0  0.085357  0  3.974236  0  0  0.092708  0  3.990363  0  0  0.054359  0.080805  0  3.963627  0
C  C63  1  0.88476310  0.58337749  0.21112229  1  0  0.122162  0  3.710756  0  0  0.085237  0  3.974366  0  0  0.092588  0  3.990493  0  0  0.05429  0.08068  0  3.963763  0
N  N64  1  0.87871647  0.85840861  0.10790809  1  0  -0.332889  0  3.070882  0  0  -0.297784  0  3.341564  0  0  -0.310254  0  3.357084  0  0  -0.311668  -0.289601  0  3.331009  0
N  N65  1  0.12125838  0.14159344  0.89209516  1  0  -0.333007  0  3.071051  0  0  -0.29792  0  3.34173  0  0  -0.310385  0  3.357246  0  0  -0.311642  -0.289734  0  3.331179  0
N  N66  1  0.06073265  0.79042250  0.85552136  1  0  -0.333196  0  3.037668  0  0  -0.300117  0  3.308916  0  0  -0.312625  0  3.324583  0  0  -0.311101  -0.291373  0  3.29802  0
N  N67  1  0.93926340  0.20958205  0.14448265  1  0  -0.333189  0  3.037537  0  0  -0.300088  0  3.308758  0  0  -0.312595  0  3.324424  0  0  -0.311069  -0.291346  0  3.297864  0
N  N68  1  0.15394554  0.47435047  0.88609896  1  0  -0.327024  0  3.049871  0  0  -0.29138  0  3.318642  0  0  -0.303735  0  3.333903  0  0  -0.31028  -0.282654  0  3.307592  0
N  N69  1  0.84605185  0.52565682  0.11390222  1  0  -0.326973  0  3.050075  0  0  -0.291416  0  3.318824  0  0  -0.303774  0  3.334083  0  0  -0.310306  -0.282691  0  3.307781  0
O  O70  1  0.09886214  0.08302464  0.39768640  1  0  -0.697626  0  2.017684  0  0  -0.642553  0  2.253898  0  0  -0.675007  0  2.244075  0  0  -0.354924  -0.625209  0  2.260189  0
O  O71  1  0.90114083  0.91698215  0.60232160  1  0  -0.697636  0  2.017618  0  0  -0.642593  0  2.253781  0  0  -0.675059  0  2.243959  0  0  -0.354953  -0.625241  0  2.260058  0
O  O72  1  0.46693462  0.07798460  0.35830834  1  0  -0.701783  0  1.97335  0  0  -0.644767  0  2.211702  0  0  -0.678334  0  2.200804  0  0  -0.370891  -0.627532  0  2.218538  0
O  O73  1  0.53306464  0.92201615  0.64168937  1  0  -0.701711  0  1.973454  0  0  -0.644734  0  2.211831  0  0  -0.678291  0  2.200891  0  0  -0.370932  -0.627499  0  2.218669  0
O  O74  1  0.49929366  0.47896356  0.63014260  1  0  -0.729101  0  2.055866  0  0  -0.676918  0  2.310765  0  0  -0.713289  0  2.296107  0  0  -0.374259  -0.65908  0  2.31814  0
O  O75  1  0.50073107  0.52103636  0.36985450  1  0  -0.729165  0  2.055715  0  0  -0.676927  0  2.3107  0  0  -0.713318  0  2.296026  0  0  -0.374305  -0.659063  0  2.318017  0
O  O76  1  0.73121164  0.62087584  0.57305124  1  0  -0.775595  0  2.068381  0  0  -0.718086  0  2.322623  0  0  -0.754857  0  2.306284  0  0  -0.404018  -0.699897  0  2.330657  0
O  O77  1  0.26880721  0.37912740  0.42694652  1  0  -0.775736  0  2.068416  0  0  -0.718123  0  2.322591  0  0  -0.75495  0  2.306362  0  0  -0.404053  -0.699933  0  2.330631  0
O  O78  1  0.67879681  0.22641595  0.59967497  1  0  -0.739496  0  2.062846  0  0  -0.684297  0  2.324164  0  0  -0.721602  0  2.308495  0  0  -0.40416  -0.665776  0  2.331847  0
O  O79  1  0.32122512  0.77357981  0.40032051  1  0  -0.73953  0  2.06277  0  0  -0.684366  0  2.323986  0  0  -0.72168  0  2.308304  0  0  -0.404194  -0.665846  0  2.331672  0
O  O80  1  0.04104782  0.31305649  0.58337008  1  0  -0.752456  0  2.06348  0  0  -0.692345  0  2.316027  0  0  -0.729851  0  2.29934  0  0  -0.399136  -0.674098  0  2.324529  0
O  O81  1  0.95896756  0.68694692  0.41662837  1  0  -0.752453  0  2.063589  0  0  -0.692381  0  2.316094  0  0  -0.729908  0  2.299409  0  0  -0.39916  -0.674137  0  2.324583  0
O  O82  1  0.27649960  0.08344099  0.57977794  1  0  -0.934487  0  1.88482  0  0  -0.892575  0  2.091147  0  0  -0.922113  0  2.052965  0  0  -0.644305  -0.879639  0  2.114132  0
O  O83  1  0.72351069  0.91655623  0.42021843  1  0  -0.934486  0  1.8849  0  0  -0.892576  0  2.091274  0  0  -0.922123  0  2.053094  0  0  -0.644351  -0.879648  0  2.114257  0
O  O84  1  0.73043443  0.33882232  0.44915410  1  0  -0.88384  0  1.903301  0  0  -0.838321  0  2.107742  0  0  -0.866606  0  2.071021  0  0  -0.624727  -0.824781  0  2.129645  0
O  O85  1  0.26957687  0.66117284  0.55084253  1  0  -0.883849  0  1.903405  0  0  -0.838233  0  2.107862  0  0  -0.86657  0  2.071047  0  0  -0.624771  -0.824694  0  2.129764  0
