# generated using pymatgen
data_SnH20C14(NO3)2
_symmetry_space_group_name_H-M   'P 1'
_cell_length_a   7.79592209
_cell_length_b   7.82960816
_cell_length_c   14.18023371
_cell_angle_alpha   88.38499177
_cell_angle_beta   82.97347709
_cell_angle_gamma   75.77680982
_symmetry_Int_Tables_number   1
_chemical_formula_structural   SnH20C14(NO3)2
_chemical_formula_sum   'Sn2 H40 C28 N4 O12'
_cell_volume   832.71210331
_cell_formula_units_Z   2
loop_
 _symmetry_equiv_pos_site_id
 _symmetry_equiv_pos_as_xyz
  1  'x, y, z'
loop_
 _atom_site_type_symbol
 _atom_site_label
 _atom_site_symmetry_multiplicity
 _atom_site_fract_x
 _atom_site_fract_y
 _atom_site_fract_z
 _atom_site_occupancy
 _atom_site_hle17_bader_spin_density
 _atom_site_hle17_ddec_charge
 _atom_site_hle17_ddec_spin_density
 _atom_site_hle17_ddec_sum_bond_order
 _atom_site_hle17_magmom
 _atom_site_hse06_10hf_bader_spin_density
 _atom_site_hse06_10hf_ddec_charge
 _atom_site_hse06_10hf_ddec_spin_density
 _atom_site_hse06_10hf_ddec_sum_bond_order
 _atom_site_hse06_10hf_magmom
 _atom_site_hse06_bader_spin_density
 _atom_site_hse06_ddec_charge
 _atom_site_hse06_ddec_spin_density
 _atom_site_hse06_ddec_sum_bond_order
 _atom_site_hse06_magmom
 _atom_site_pbe_bader_spin_density
 _atom_site_pbe_cm5_charge
 _atom_site_pbe_ddec_charge
 _atom_site_pbe_ddec_spin_density
 _atom_site_pbe_ddec_sum_bond_order
 _atom_site_pbe_magmom
Sn  Sn0  1  0.89773629  0.43911980  0.18348085  1  0  1.373957  0  2.86844  0  0  1.245511  0  3.354235  0  0  1.283652  0  3.339199  0  0  0.515385  1.219159  0  3.364279  0
Sn  Sn1  1  0.52085474  0.03903454  0.10981241  1  0  1.363986  0  2.883576  0  0  1.233151  0  3.373724  0  0  1.27126  0  3.359022  0  0  0.512821  1.2068  0  3.383556  0
H  H2  1  0.33028719  0.99561342  0.36870036  1  0  0.116156  0  0.922759  0  0  0.132216  0  0.981509  0  0  0.134895  0  0.980118  0  0  0.109539  0.130283  0  0.982614  0
H  H3  1  0.27809009  0.86095556  0.28522785  1  0  0.106925  0  0.932379  0  0  0.125518  0  0.98846  0  0  0.1273  0  0.988612  0  0  0.107422  0.124297  0  0.98836  0
H  H4  1  0.95821361  0.92647384  0.36769244  1  0  0.10028  0  0.937245  0  0  0.113615  0  1.000359  0  0  0.115724  0  0.999786  0  0  0.101436  0.112126  0  1.000821  0
H  H5  1  0.12084219  0.80443183  0.43632650  1  0  0.105789  0  0.933581  0  0  0.121666  0  0.992854  0  0  0.123679  0  0.991858  0  0  0.104659  0.120212  0  0.99368  0
H  H6  1  0.76709313  0.13271137  0.44526955  1  0  0.3031  0  0.887098  0  0  0.282425  0  0.954069  0  0  0.289898  0  0.948255  0  0  0.323793  0.277118  0  0.9583  0
H  H7  1  0.94934982  0.23086668  0.66307412  1  0  0.140759  0  0.960027  0  0  0.142979  0  1.027711  0  0  0.148321  0  1.022021  0  0  0.115486  0.139114  0  1.031825  0
H  H8  1  0.44334707  0.58276409  0.76375737  1  0  0.115177  0  0.955733  0  0  0.117614  0  1.026815  0  0  0.121703  0  1.02301  0  0  0.110198  0.114575  0  1.029667  0
H  H9  1  0.32011233  0.52660939  0.62034792  1  0  0.131997  0  0.95507  0  0  0.141687  0  1.013371  0  0  0.145378  0  1.011317  0  0  0.114759  0.139074  0  1.014891  0
H  H10  1  0.23355611  0.35072017  0.50875340  1  0  0.107232  0  0.94305  0  0  0.121523  0  1.008787  0  0  0.122425  0  1.007848  0  0  0.105649  0.120869  0  1.009448  0
H  H11  1  0.32269656  0.35025580  0.38582988  1  0  0.104646  0  0.929351  0  0  0.123163  0  0.989243  0  0  0.123076  0  0.99023  0  0  0.110175  0.123126  0  0.988638  0
H  H12  1  0.31296433  0.53620617  0.45869999  1  0  0.087587  0  0.935675  0  0  0.105684  0  0.999373  0  0  0.105493  0  0.999253  0  0  0.102733  0.1058  0  0.99946  0
H  H13  1  0.89123247  0.32624575  0.00382597  1  0  0.161091  0  1.004333  0  0  0.17404  0  1.068579  0  0  0.177498  0  1.067897  0  0  0.084224  0.171539  0  1.069166  0
H  H14  1  0.94804907  0.14043730  0.08030956  1  0  0.148148  0  1.005188  0  0  0.166109  0  1.063846  0  0  0.168924  0  1.064419  0  0  0.082129  0.164062  0  1.063547  0
H  H15  1  0.11258367  0.25502775  0.03605927  1  0  0.135698  0  1.032735  0  0  0.153107  0  1.095872  0  0  0.155248  0  1.097449  0  0  0.080108  0.151519  0  1.094897  0
H  H16  1  0.20215572  0.54835510  0.18818144  1  0  0.149651  0  1.006825  0  0  0.166225  0  1.067671  0  0  0.169133  0  1.067945  0  0  0.081819  0.164135  0  1.067554  0
H  H17  1  0.07571524  0.56917467  0.30353945  1  0  0.158603  0  1.002114  0  0  0.173355  0  1.065729  0  0  0.176495  0  1.065587  0  0  0.085096  0.171092  0  1.06591  0
H  H18  1  0.01208487  0.73165755  0.21468783  1  0  0.148778  0  1.001914  0  0  0.168824  0  1.056805  0  0  0.170879  0  1.058522  0  0  0.081554  0.167311  0  1.05571  0
H  H19  1  0.55648867  0.40289236  0.21425965  1  0  0.142838  0  1.01736  0  0  0.161845  0  1.075304  0  0  0.163902  0  1.077092  0  0  0.081857  0.16035  0  1.07412  0
H  H20  1  0.56566660  0.61335400  0.25607709  1  0  0.151011  0  1.001925  0  0  0.170046  0  1.059052  0  0  0.172407  0  1.059774  0  0  0.084199  0.16835  0  1.0586  0
H  H21  1  0.63903825  0.42146671  0.32528430  1  0  0.159722  0  1.008928  0  0  0.171601  0  1.074467  0  0  0.175705  0  1.073011  0  0  0.08385  0.168643  0  1.075573  0
H  H22  1  0.11945648  0.65284044  0.01963152  1  0  0.110925  0  0.930705  0  0  0.130477  0  0.985036  0  0  0.132017  0  0.985627  0  0  0.108791  0.129397  0  0.984654  0
H  H23  1  0.01779999  0.56270067  0.93534923  1  0  0.119763  0  0.938082  0  0  0.131535  0  1.002927  0  0  0.134455  0  1.001139  0  0  0.107128  0.129391  0  1.00433  0
H  H24  1  0.04681423  0.94622201  0.91955637  1  0  0.105422  0  0.941433  0  0  0.117018  0  1.006448  0  0  0.119988  0  1.004613  0  0  0.102349  0.114829  0  1.007908  0
H  H25  1  0.23310434  0.77225156  0.87809888  1  0  0.106178  0  0.92694  0  0  0.123552  0  0.981568  0  0  0.125734  0  0.980383  0  0  0.104769  0.121956  0  0.982533  0
H  H26  1  0.77439187  0.93823716  0.85802184  1  0  0.308295  0  0.906809  0  0  0.281965  0  0.982513  0  0  0.29076  0  0.97512  0  0  0.312957  0.275734  0  0.987748  0
H  H27  1  0.94148242  0.70828880  0.62729159  1  0  0.140697  0  0.972311  0  0  0.142371  0  1.04009  0  0  0.147685  0  1.034681  0  0  0.114522  0.138536  0  1.043997  0
H  H28  1  0.42906146  0.88956503  0.52303600  1  0  0.117252  0  0.956577  0  0  0.119246  0  1.028677  0  0  0.123916  0  1.023466  0  0  0.109391  0.115826  0  1.032449  0
H  H29  1  0.31028928  0.05457306  0.66972154  1  0  0.127566  0  0.954127  0  0  0.136382  0  1.014376  0  0  0.14002  0  1.01258  0  0  0.11317  0.133805  0  1.015727  0
H  H30  1  0.29933091  0.27518276  0.77446670  1  0  0.094512  0  0.9483  0  0  0.110045  0  1.015237  0  0  0.110176  0  1.015335  0  0  0.10181  0.109961  0  1.015126  0
H  H31  1  0.30465179  0.23443378  0.89903916  1  0  0.098209  0  0.954383  0  0  0.117477  0  1.014666  0  0  0.11726  0  1.015621  0  0  0.107806  0.11754  0  1.014094  0
H  H32  1  0.22669782  0.09059418  0.82796079  1  0  0.089505  0  0.95181  0  0  0.106434  0  1.017871  0  0  0.106048  0  1.01811  0  0  0.102636  0.106659  0  1.017724  0
H  H33  1  0.55317066  0.25459665  0.95912067  1  0  0.158575  0  0.99418  0  0  0.174126  0  1.0545  0  0  0.177444  0  1.054092  0  0  0.084691  0.171729  0  1.054883  0
H  H34  1  0.57930817  0.36329060  0.06253512  1  0  0.155711  0  1.004676  0  0  0.177301  0  1.057237  0  0  0.179266  0  1.059115  0  0  0.087738  0.175892  0  1.055965  0
H  H35  1  0.36142498  0.35888914  0.03928806  1  0  0.142671  0  1.009197  0  0  0.162239  0  1.067963  0  0  0.164541  0  1.068648  0  0  0.081915  0.160561  0  1.067562  0
H  H36  1  0.35430980  0.76958984  0.12593980  1  0  0.147522  0  1.007176  0  0  0.165411  0  1.067721  0  0  0.167551  0  1.06908  0  0  0.08277  0.163856  0  1.066858  0
H  H37  1  0.44695602  0.78783732  0.00583646  1  0  0.169227  0  0.975175  0  0  0.188055  0  1.028689  0  0  0.19143  0  1.027963  0  0  0.090247  0.185648  0  1.029244  0
H  H38  1  0.24129974  0.93855960  0.05165465  1  0  0.148162  0  1.006204  0  0  0.16821  0  1.062203  0  0  0.17008  0  1.064243  0  0  0.081923  0.166815  0  1.060892  0
H  H39  1  0.60688586  0.11000138  0.28085112  1  0  0.155573  0  0.993194  0  0  0.174404  0  1.050196  0  0  0.17753  0  1.050031  0  0  0.085053  0.172152  0  1.050388  0
H  H40  1  0.80569155  0.00496361  0.20789388  1  0  0.147604  0  1.008684  0  0  0.166078  0  1.067094  0  0  0.168852  0  1.067599  0  0  0.082913  0.16406  0  1.066856  0
H  H41  1  0.66385176  0.87561705  0.26551221  1  0  0.157393  0  1.015569  0  0  0.172775  0  1.078791  0  0  0.175293  0  1.079647  0  0  0.085192  0.170956  0  1.078294  0
C  C42  1  0.15723296  0.13397629  0.27076289  1  0  0.701813  0  3.808742  0  0  0.65197  0  4.105656  0  0  0.685958  0  4.097684  0  0  0.232814  0.628953  0  4.110258  0
C  C43  1  0.21985513  0.97475899  0.33262605  1  0  -0.247987  0  3.672895  0  0  -0.289208  0  3.926491  0  0  -0.294343  0  3.933241  0  0  -0.155686  -0.285649  0  3.92176  0
C  C44  1  0.07234347  0.93412788  0.40420110  1  0  -0.233237  0  3.699433  0  0  -0.282254  0  3.963161  0  0  -0.285331  0  3.970531  0  0  -0.163419  -0.280085  0  3.958023  0
C  C45  1  0.01678892  0.06469193  0.48603374  1  0  0.599325  0  3.754033  0  0  0.558343  0  4.04463  0  0  0.586066  0  4.044991  0  0  0.246761  0.539702  0  4.043763  0
C  C46  1  0.74474860  0.26210673  0.57061609  1  0  0.170421  0  3.778009  0  0  0.159582  0  4.034025  0  0  0.162429  0  4.056089  0  0  0.095276  0.157461  0  4.019235  0
C  C47  1  0.81270533  0.29356398  0.65288822  1  0  -0.172413  0  3.693154  0  0  -0.210266  0  3.962361  0  0  -0.209477  0  3.977899  0  0  -0.088512  -0.210521  0  3.951917  0
C  C48  1  0.70214552  0.40828800  0.72160841  1  0  0.058744  0  3.758135  0  0  0.04008  0  4.019391  0  0  0.034845  0  4.043211  0  0  0.063411  0.043326  0  4.003336  0
C  C49  1  0.52628079  0.49229834  0.71027497  1  0  -0.071465  0  3.755135  0  0  -0.102265  0  4.025489  0  0  -0.099471  0  4.043974  0  0  -0.080996  -0.103769  0  4.012814  0
C  C50  1  0.45744543  0.46050186  0.62839562  1  0  -0.185564  0  3.753394  0  0  -0.209139  0  4.015587  0  0  -0.21687  0  4.036908  0  0  -0.102946  -0.203963  0  4.00115  0
C  C51  1  0.56466903  0.34664574  0.55860632  1  0  0.207377  0  3.75851  0  0  0.18961  0  4.021528  0  0  0.200482  0  4.03903  0  0  0.097652  0.182131  0  4.009583  0
C  C52  1  0.33240517  0.39246306  0.45744808  1  0  -0.068637  0  3.577685  0  0  -0.167522  0  3.844827  0  0  -0.16  0  3.849178  0  0  -0.133383  -0.172468  0  3.841569  0
C  C53  1  0.97103934  0.27013407  0.06071316  1  0  -0.725735  0  3.525222  0  0  -0.767641  0  3.7625  0  0  -0.781358  0  3.768299  0  0  -0.3407  -0.758023  0  3.75866  0
C  C54  1  0.06880707  0.59163056  0.22730806  1  0  -0.716561  0  3.517202  0  0  -0.759543  0  3.751537  0  0  -0.773154  0  3.757595  0  0  -0.339095  -0.750064  0  3.747468  0
C  C55  1  0.63164132  0.47280469  0.25300287  1  0  -0.710308  0  3.508378  0  0  -0.750579  0  3.73894  0  0  -0.76401  0  3.744589  0  0  -0.339103  -0.741187  0  3.735085  0
C  C56  1  0.84354227  0.76521186  0.02273730  1  0  0.709578  0  3.799031  0  0  0.652972  0  4.104038  0  0  0.687397  0  4.095469  0  0  0.234224  0.629617  0  4.109067  0
C  C57  1  0.02340934  0.68757547  0.96711465  1  0  -0.258178  0  3.657947  0  0  -0.297615  0  3.909009  0  0  -0.302979  0  3.916119  0  0  -0.157378  -0.2938  0  3.903977  0
C  C58  1  0.08733032  0.81055569  0.89204210  1  0  -0.238293  0  3.688946  0  0  -0.284472  0  3.946463  0  0  -0.287705  0  3.953042  0  0  -0.163026  -0.282152  0  3.941858  0
C  C59  1  0.01833313  0.80107384  0.79718957  1  0  0.591693  0  3.754241  0  0  0.552658  0  4.042688  0  0  0.579942  0  4.04359  0  0  0.242143  0.534285  0  4.041454  0
C  C60  1  0.73899766  0.87925371  0.72135986  1  0  0.173218  0  3.765595  0  0  0.159289  0  4.025589  0  0  0.162299  0  4.047572  0  0  0.093496  0.157027  0  4.010841  0
C  C61  1  0.80427536  0.78425348  0.63758218  1  0  -0.187411  0  3.714219  0  0  -0.221558  0  3.981984  0  0  -0.222187  0  4.000146  0  0  -0.093683  -0.220839  0  3.969784  0
C  C62  1  0.69199620  0.78925116  0.56738300  1  0  0.055094  0  3.78508  0  0  0.034952  0  4.04806  0  0  0.028985  0  4.073591  0  0  0.059466  0.038618  0  4.030978  0
C  C63  1  0.51524502  0.88639936  0.57799615  1  0  -0.065329  0  3.736286  0  0  -0.098664  0  4.010773  0  0  -0.094336  0  4.025849  0  0  -0.082417  -0.101215  0  4.00047  0
C  C64  1  0.44856478  0.98013160  0.66162424  1  0  -0.173249  0  3.745948  0  0  -0.196615  0  4.007817  0  0  -0.204046  0  4.028653  0  0  -0.100772  -0.191686  0  3.993776  0
C  C65  1  0.55771642  0.97812904  0.73320664  1  0  0.207552  0  3.748474  0  0  0.190753  0  4.011878  0  0  0.201815  0  4.028618  0  0  0.098497  0.183149  0  4.000504  0
C  C66  1  0.32140714  0.17304848  0.82928556  1  0  -0.072979  0  3.593049  0  0  -0.171533  0  3.856007  0  0  -0.163828  0  3.860897  0  0  -0.137604  -0.176585  0  3.852369  0
C  C67  1  0.50070789  0.28346842  0.03368498  1  0  -0.712153  0  3.497729  0  0  -0.752677  0  3.722117  0  0  -0.766011  0  3.728373  0  0  -0.337967  -0.743343  0  3.717839  0
C  C68  1  0.37177383  0.86218216  0.06828111  1  0  -0.709662  0  3.502946  0  0  -0.751227  0  3.729961  0  0  -0.764792  0  3.737298  0  0  -0.335905  -0.741775  0  3.724964  0
C  C69  1  0.66714793  0.00162713  0.23082856  1  0  -0.720129  0  3.518514  0  0  -0.765363  0  3.754274  0  0  -0.778823  0  3.760183  0  0  -0.337832  -0.755992  0  3.750331  0
N  N70  1  0.83938473  0.14806177  0.49803918  1  0  -0.432338  0  3.374185  0  0  -0.383173  0  3.624359  0  0  -0.404125  0  3.63416  0  0  -0.397512  -0.368885  0  3.617502  0
N  N71  1  0.77439929  0.44219442  0.80677542  1  0  0.475099  0  3.934055  0  0  0.531971  0  4.1905  0  0  0.554154  0  4.197487  0  0  0.048634  0.517143  0  4.185808  0
N  N72  1  0.84112259  0.88183997  0.79545428  1  0  -0.440566  0  3.338899  0  0  -0.387373  0  3.586421  0  0  -0.409293  0  3.596067  0  0  -0.399406  -0.37231  0  3.579545  0
N  N73  1  0.76252283  0.68894306  0.48112984  1  0  0.467333  0  3.955323  0  0  0.523188  0  4.214666  0  0  0.545056  0  4.222588  0  0  0.045401  0.508582  0  4.209363  0
O  O74  1  0.99223213  0.21447615  0.28434972  1  0  -0.607597  0  2.011513  0  0  -0.532066  0  2.241972  0  0  -0.558867  0  2.236112  0  0  -0.274274  -0.513529  0  2.245403  0
O  O75  1  0.26686140  0.18316524  0.20859221  1  0  -0.652317  0  2.055748  0  0  -0.581371  0  2.298699  0  0  -0.608515  0  2.293156  0  0  -0.285012  -0.562487  0  2.30185  0
O  O76  1  0.12484896  0.08851733  0.53841279  1  0  -0.543217  0  1.918486  0  0  -0.488831  0  2.125642  0  0  -0.510867  0  2.121578  0  0  -0.283363  -0.473722  0  2.128136  0
O  O77  1  0.67805901  0.54967571  0.86628823  1  0  -0.370381  0  1.737877  0  0  -0.35979  0  1.928339  0  0  -0.370368  0  1.924688  0  0  -0.143088  -0.352838  0  1.930936  0
O  O78  1  0.93081026  0.36231096  0.81714786  1  0  -0.384327  0  1.748042  0  0  -0.366686  0  1.939817  0  0  -0.378934  0  1.936019  0  0  -0.14463  -0.35864  0  1.942569  0
O  O79  1  0.51073503  0.30703035  0.47652203  1  0  -0.238461  0  2.379235  0  0  -0.16207  0  2.619166  0  0  -0.182248  0  2.623829  0  0  -0.173569  -0.147595  0  2.615222  0
O  O80  1  0.76219986  0.92381201  0.00324077  1  0  -0.627641  0  2.02494  0  0  -0.54855  0  2.256704  0  0  -0.57544  0  2.249684  0  0  -0.277277  -0.52988  0  2.260925  0
O  O81  1  0.77868699  0.67767439  0.08788116  1  0  -0.634511  0  2.05756  0  0  -0.56107  0  2.299548  0  0  -0.588689  0  2.294514  0  0  -0.272587  -0.541887  0  2.302364  0
O  O82  1  0.11671224  0.72322406  0.72831839  1  0  -0.537386  0  1.912442  0  0  -0.488632  0  2.119793  0  0  -0.509249  0  2.11532  0  0  -0.288962  -0.474419  0  2.122482  0
O  O83  1  0.66553293  0.70343745  0.41597056  1  0  -0.378306  0  1.771224  0  0  -0.361931  0  1.968431  0  0  -0.373116  0  1.964733  0  0  -0.14  -0.354587  0  1.97113  0
O  O84  1  0.91707742  0.59251092  0.47486371  1  0  -0.378378  0  1.761487  0  0  -0.36318  0  1.957736  0  0  -0.374437  0  1.954202  0  0  -0.140933  -0.355784  0  1.960305  0
O  O85  1  0.50229557  0.06762831  0.81622458  1  0  -0.236427  0  2.355276  0  0  -0.159506  0  2.593724  0  0  -0.179604  0  2.598705  0  0  -0.173399  -0.145171  0  2.589627  0
