# generated using pymatgen
data_ZnH4(C2O)4
_symmetry_space_group_name_H-M   'P 1'
_cell_length_a   5.22841997
_cell_length_b   10.55708952
_cell_length_c   14.03954623
_cell_angle_alpha   108.81146009
_cell_angle_beta   90.00023945
_cell_angle_gamma   90.00061445
_symmetry_Int_Tables_number   1
_chemical_formula_structural   ZnH4(C2O)4
_chemical_formula_sum   'Zn4 H16 C32 O16'
_cell_volume   733.54583933
_cell_formula_units_Z   4
loop_
 _symmetry_equiv_pos_site_id
 _symmetry_equiv_pos_as_xyz
  1  'x, y, z'
loop_
 _atom_site_type_symbol
 _atom_site_label
 _atom_site_symmetry_multiplicity
 _atom_site_fract_x
 _atom_site_fract_y
 _atom_site_fract_z
 _atom_site_occupancy
 _atom_site_hle17_bader_spin_density
 _atom_site_hle17_ddec_charge
 _atom_site_hle17_ddec_spin_density
 _atom_site_hle17_ddec_sum_bond_order
 _atom_site_hle17_magmom
 _atom_site_hse06_10hf_bader_spin_density
 _atom_site_hse06_10hf_ddec_charge
 _atom_site_hse06_10hf_ddec_spin_density
 _atom_site_hse06_10hf_ddec_sum_bond_order
 _atom_site_hse06_10hf_magmom
 _atom_site_hse06_bader_spin_density
 _atom_site_hse06_ddec_charge
 _atom_site_hse06_ddec_spin_density
 _atom_site_hse06_ddec_sum_bond_order
 _atom_site_hse06_magmom
 _atom_site_pbe_bader_spin_density
 _atom_site_pbe_cm5_charge
 _atom_site_pbe_ddec_charge
 _atom_site_pbe_ddec_spin_density
 _atom_site_pbe_ddec_sum_bond_order
 _atom_site_pbe_magmom
Zn  Zn0  1  0.46608878  0.44144687  0.11659848  1  0  1.20094  0  1.70417  0  0  1.023677  0  2.189151  0  0  1.075732  0  2.122212  0  0  0.711946  0.98684  0  2.235648  0
Zn  Zn1  1  0.96606649  0.55856006  0.38341415  1  0  1.200965  0  1.704221  0  0  1.023681  0  2.189289  0  0  1.075751  0  2.122349  0  0  0.711948  0.986857  0  2.235798  0
Zn  Zn2  1  0.53392692  0.55856218  0.88341034  1  0  1.20087  0  1.704591  0  0  1.023565  0  2.189714  0  0  1.075636  0  2.122774  0  0  0.71187  0.986728  0  2.236214  0
Zn  Zn3  1  0.03393582  0.44143705  0.61657963  1  0  1.200931  0  1.704075  0  0  1.023665  0  2.189153  0  0  1.075714  0  2.122211  0  0  0.711917  0.986812  0  2.23565  0
H  H4  1  0.54187373  0.17702083  0.52319155  1  0  0.1054  0  0.947939  0  0  0.11642  0  1.005597  0  0  0.120056  0  1.002983  0  0  0.107963  0.113777  0  1.007587  0
H  H5  1  0.04187335  0.82297837  0.97681553  1  0  0.105507  0  0.947852  0  0  0.11647  0  1.005582  0  0  0.120113  0  1.002949  0  0  0.107995  0.113821  0  1.007588  0
H  H6  1  0.45814962  0.82296627  0.47680262  1  0  0.105445  0  0.947905  0  0  0.116498  0  1.005528  0  0  0.12013  0  1.002921  0  0  0.107998  0.113855  0  1.00752  0
H  H7  1  0.95810983  0.17704072  0.02319077  1  0  0.105411  0  0.94795  0  0  0.116406  0  1.00566  0  0  0.120048  0  1.003029  0  0  0.107982  0.113759  0  1.007667  0
H  H8  1  0.20090244  0.00198354  0.47500537  1  0  0.090827  0  0.962827  0  0  0.102517  0  1.022929  0  0  0.105006  0  1.022178  0  0  0.10361  0.100729  0  1.023583  0
H  H9  1  0.70089949  0.99800956  0.02500839  1  0  0.09089  0  0.962886  0  0  0.102608  0  1.022963  0  0  0.105084  0  1.022228  0  0  0.103614  0.100822  0  1.023618  0
H  H10  1  0.79910370  0.99800854  0.52499288  1  0  0.090856  0  0.962832  0  0  0.102535  0  1.022936  0  0  0.105025  0  1.022185  0  0  0.103604  0.100747  0  1.023589  0
H  H11  1  0.29907222  0.00200249  0.97500259  1  0  0.090909  0  0.963087  0  0  0.102691  0  1.023034  0  0  0.105183  0  1.022277  0  0  0.10368  0.100903  0  1.023687  0
H  H12  1  0.91257287  0.98924513  0.33104659  1  0  0.086226  0  0.977586  0  0  0.095626  0  1.042574  0  0  0.097687  0  1.042871  0  0  0.099328  0.094094  0  1.042527  0
H  H13  1  0.41256344  0.01074540  0.16896762  1  0  0.086304  0  0.977529  0  0  0.095709  0  1.042518  0  0  0.097755  0  1.042833  0  0  0.09936  0.094176  0  1.042472  0
H  H14  1  0.08741222  0.01076794  0.66896108  1  0  0.086235  0  0.977675  0  0  0.09566  0  1.042628  0  0  0.097671  0  1.042974  0  0  0.099326  0.094128  0  1.042583  0
H  H15  1  0.58741400  0.98924761  0.83104225  1  0  0.086292  0  0.977362  0  0  0.09569  0  1.042383  0  0  0.097751  0  1.042681  0  0  0.099341  0.094159  0  1.042338  0
H  H16  1  0.96687229  0.14809089  0.23552687  1  0  0.100631  0  0.943291  0  0  0.111313  0  1.002316  0  0  0.114067  0  1.002112  0  0  0.104964  0.109359  0  1.002543  0
H  H17  1  0.46686663  0.85189304  0.26448011  1  0  0.100537  0  0.943352  0  0  0.111214  0  1.002427  0  0  0.113973  0  1.002204  0  0  0.104961  0.109259  0  1.002655  0
H  H18  1  0.03311854  0.85190822  0.76446954  1  0  0.100647  0  0.943355  0  0  0.111347  0  1.002363  0  0  0.114104  0  1.002151  0  0  0.104985  0.109394  0  1.002588  0
H  H19  1  0.53313186  0.14810197  0.73553096  1  0  0.100701  0  0.943288  0  0  0.11134  0  1.002355  0  0  0.114095  0  1.002148  0  0  0.104994  0.109387  0  1.002582  0
C  C20  1  0.28937468  0.24943580  0.32351047  1  0  -0.055446  0  3.716412  0  0  -0.042099  0  3.951213  0  0  -0.044149  0  3.970043  0  0  -0.004442  -0.040731  0  3.938734  0
C  C21  1  0.78938319  0.75055596  0.17649314  1  0  -0.055543  0  3.716153  0  0  -0.042109  0  3.950869  0  0  -0.044275  0  3.969842  0  0  -0.004439  -0.040728  0  3.938367  0
C  C22  1  0.71060467  0.75056130  0.67648687  1  0  -0.05552  0  3.716387  0  0  -0.042138  0  3.950958  0  0  -0.044252  0  3.969866  0  0  -0.004449  -0.040776  0  3.938474  0
C  C23  1  0.21060956  0.24945011  0.82351210  1  0  -0.055389  0  3.716499  0  0  -0.042048  0  3.951164  0  0  -0.044209  0  3.970129  0  0  -0.00441  -0.040621  0  3.938596  0
C  C24  1  0.45148151  0.25804409  0.40561241  1  0  -0.098243  0  3.730765  0  0  -0.082343  0  3.965544  0  0  -0.091392  0  3.988967  0  0  -0.017165  -0.076437  0  3.949852  0
C  C25  1  0.95148903  0.74194578  0.09438746  1  0  -0.098208  0  3.730532  0  0  -0.082322  0  3.96525  0  0  -0.09134  0  3.988695  0  0  -0.017092  -0.076416  0  3.949552  0
C  C26  1  0.54851123  0.74194102  0.59437700  1  0  -0.09817  0  3.730825  0  0  -0.082192  0  3.96545  0  0  -0.091226  0  3.988883  0  0  -0.017102  -0.07628  0  3.949763  0
C  C27  1  0.04849416  0.25805831  0.90561373  1  0  -0.098512  0  3.731063  0  0  -0.082491  0  3.965688  0  0  -0.091503  0  3.989123  0  0  -0.017191  -0.0766  0  3.949987  0
C  C28  1  0.41562295  0.16848160  0.45975691  1  0  -0.060212  0  3.730322  0  0  -0.084728  0  3.981216  0  0  -0.083488  0  4.000017  0  0  -0.07962  -0.085407  0  3.968511  0
C  C29  1  0.91560317  0.83151808  0.04023889  1  0  -0.060147  0  3.730102  0  0  -0.084633  0  3.981004  0  0  -0.083388  0  3.999791  0  0  -0.079609  -0.085318  0  3.968301  0
C  C30  1  0.58440614  0.83151653  0.54023498  1  0  -0.060214  0  3.73042  0  0  -0.084807  0  3.9813  0  0  -0.083565  0  4.000096  0  0  -0.079605  -0.08549  0  3.968602  0
C  C31  1  0.08437810  0.16849802  0.95976525  1  0  -0.059976  0  3.730064  0  0  -0.084542  0  3.980951  0  0  -0.083296  0  3.999743  0  0  -0.079599  -0.085228  0  3.968256  0
C  C32  1  0.22504986  0.07157310  0.43291335  1  0  -0.067327  0  3.745243  0  0  -0.082111  0  3.998706  0  0  -0.084755  0  4.018127  0  0  -0.086545  -0.080418  0  3.985567  0
C  C33  1  0.72505921  0.92841715  0.06710117  1  0  -0.067576  0  3.745314  0  0  -0.082412  0  3.998868  0  0  -0.085043  0  4.018282  0  0  -0.086607  -0.080718  0  3.985731  0
C  C34  1  0.77493141  0.92842595  0.56709230  1  0  -0.067401  0  3.74545  0  0  -0.082179  0  3.998937  0  0  -0.084821  0  4.01834  0  0  -0.086553  -0.080483  0  3.985799  0
C  C35  1  0.27493737  0.07158187  0.93290946  1  0  -0.067681  0  3.745372  0  0  -0.082509  0  3.998831  0  0  -0.085153  0  4.018246  0  0  -0.086599  -0.080812  0  3.985691  0
C  C36  1  0.06325289  0.06431342  0.35224776  1  0  -0.028729  0  3.723766  0  0  -0.047925  0  3.978653  0  0  -0.047075  0  3.998142  0  0  -0.078223  -0.048325  0  3.965364  0
C  C37  1  0.56323259  0.93567874  0.14776553  1  0  -0.028712  0  3.723512  0  0  -0.047944  0  3.978472  0  0  -0.047081  0  3.997951  0  0  -0.078217  -0.04835  0  3.96519  0
C  C38  1  0.93675133  0.93569061  0.64776268  1  0  -0.028727  0  3.723811  0  0  -0.047948  0  3.97868  0  0  -0.047048  0  3.998181  0  0  -0.078205  -0.048352  0  3.965395  0
C  C39  1  0.43673338  0.06432132  0.85223894  1  0  -0.028652  0  3.72383  0  0  -0.047905  0  3.978777  0  0  -0.047052  0  3.99826  0  0  -0.078259  -0.048309  0  3.965496  0
C  C40  1  0.09450394  0.15318918  0.29815699  1  0  -0.09391  0  3.725229  0  0  -0.112981  0  3.972551  0  0  -0.11667  0  3.993221  0  0  -0.087081  -0.110551  0  3.958605  0
C  C41  1  0.59448226  0.84680323  0.20185001  1  0  -0.093605  0  3.725046  0  0  -0.112701  0  3.97234  0  0  -0.116354  0  3.993042  0  0  -0.086971  -0.110277  0  3.958391  0
C  C42  1  0.90550028  0.84680993  0.70183942  1  0  -0.093831  0  3.725386  0  0  -0.112966  0  3.972693  0  0  -0.116638  0  3.99337  0  0  -0.087056  -0.110531  0  3.958744  0
C  C43  1  0.40549710  0.15319880  0.79815994  1  0  -0.093876  0  3.725401  0  0  -0.11291  0  3.972714  0  0  -0.116564  0  3.993411  0  0  -0.087029  -0.110499  0  3.958752  0
C  C44  1  0.31497768  0.33611709  0.25797627  1  0  0.695395  0  3.862599  0  0  0.639219  0  4.156327  0  0  0.675232  0  4.147021  0  0  0.22542  0.614557  0  4.162051  0
C  C45  1  0.81495818  0.66387084  0.24202502  1  0  0.695485  0  3.862854  0  0  0.639284  0  4.156579  0  0  0.675341  0  4.147252  0  0  0.225408  0.614618  0  4.162306  0
C  C46  1  0.68504950  0.66386901  0.74201694  1  0  0.695377  0  3.862978  0  0  0.639345  0  4.156461  0  0  0.675393  0  4.147117  0  0  0.22543  0.614697  0  4.162161  0
C  C47  1  0.18503457  0.33612424  0.75797325  1  0  0.69536  0  3.862922  0  0  0.639268  0  4.156527  0  0  0.675322  0  4.1472  0  0  0.225375  0.614602  0  4.162223  0
C  C48  1  0.66360802  0.35816485  0.43745869  1  0  0.691784  0  3.882103  0  0  0.634061  0  4.178238  0  0  0.670132  0  4.170795  0  0  0.226596  0.609505  0  4.182552  0
C  C49  1  0.16359967  0.64183809  0.06254246  1  0  0.692131  0  3.881405  0  0  0.634443  0  4.177457  0  0  0.670517  0  4.169999  0  0  0.226689  0.609878  0  4.181775  0
C  C50  1  0.33642107  0.64183327  0.56253462  1  0  0.692293  0  3.880999  0  0  0.634622  0  4.177027  0  0  0.670704  0  4.169558  0  0  0.226805  0.610056  0  4.181355  0
C  C51  1  0.83637587  0.35816604  0.93745304  1  0  0.692266  0  3.881312  0  0  0.634497  0  4.177452  0  0  0.670577  0  4.169987  0  0  0.226752  0.609933  0  4.181776  0
O  O52  1  0.44477127  0.29156663  0.17706493  1  0  -0.61134  0  1.9648  0  0  -0.538883  0  2.214239  0  0  -0.569265  0  2.201186  0  0  -0.304132  -0.517548  0  2.22263  0
O  O53  1  0.94476500  0.70842519  0.32293825  1  0  -0.61142  0  1.964562  0  0  -0.53895  0  2.214002  0  0  -0.569339  0  2.200933  0  0  -0.304207  -0.517618  0  2.222399  0
O  O54  1  0.55529798  0.70844043  0.82294340  1  0  -0.611313  0  1.964462  0  0  -0.538903  0  2.213823  0  0  -0.569293  0  2.200758  0  0  -0.304215  -0.517575  0  2.222206  0
O  O55  1  0.05529086  0.29156392  0.67705499  1  0  -0.6113  0  1.964856  0  0  -0.53888  0  2.214268  0  0  -0.569255  0  2.201188  0  0  -0.304151  -0.517554  0  2.22266  0
O  O56  1  0.19414895  0.44581413  0.27811645  1  0  -0.644382  0  2.131388  0  0  -0.568508  0  2.413244  0  0  -0.599548  0  2.39634  0  0  -0.305031  -0.546676  0  2.424288  0
O  O57  1  0.69418045  0.55417598  0.22188588  1  0  -0.644338  0  2.132029  0  0  -0.56853  0  2.414017  0  0  -0.59956  0  2.397069  0  0  -0.305014  -0.546712  0  2.425088  0
O  O58  1  0.80582658  0.55418100  0.72187329  1  0  -0.644366  0  2.132035  0  0  -0.56859  0  2.413853  0  0  -0.599626  0  2.396927  0  0  -0.304996  -0.546774  0  2.424911  0
O  O59  1  0.30582760  0.44582908  0.77812053  1  0  -0.644338  0  2.131662  0  0  -0.568562  0  2.413572  0  0  -0.599606  0  2.396655  0  0  -0.305005  -0.546747  0  2.424635  0
O  O60  1  0.67348559  0.44952902  0.39596612  1  0  -0.649352  0  2.126645  0  0  -0.57267  0  2.411292  0  0  -0.601931  0  2.393893  0  0  -0.304991  -0.552371  0  2.422818  0
O  O61  1  0.17350628  0.55046898  0.10403526  1  0  -0.649367  0  2.126241  0  0  -0.572775  0  2.410988  0  0  -0.60203  0  2.393581  0  0  -0.304951  -0.552473  0  2.422509  0
O  O62  1  0.32652054  0.55045605  0.60403254  1  0  -0.649491  0  2.126094  0  0  -0.572907  0  2.410831  0  0  -0.602167  0  2.393416  0  0  -0.305043  -0.552595  0  2.422351  0
O  O63  1  0.82648456  0.44954219  0.89595556  1  0  -0.649535  0  2.12617  0  0  -0.572868  0  2.41084  0  0  -0.602152  0  2.393454  0  0  -0.305051  -0.55256  0  2.422359  0
O  O64  1  0.81850584  0.34343471  0.50252983  1  0  -0.662354  0  2.153859  0  0  -0.590581  0  2.449464  0  0  -0.619649  0  2.432076  0  0  -0.312617  -0.570375  0  2.46095  0
O  O65  1  0.31853651  0.65655147  0.99745388  1  0  -0.662786  0  2.153319  0  0  -0.590966  0  2.448955  0  0  -0.620042  0  2.431556  0  0  -0.312837  -0.570764  0  2.460453  0
O  O66  1  0.18149073  0.65654946  0.49744938  1  0  -0.662763  0  2.153176  0  0  -0.591076  0  2.448935  0  0  -0.620153  0  2.431534  0  0  -0.312836  -0.570875  0  2.460441  0
O  O67  1  0.68147537  0.34345970  0.00253623  1  0  -0.662562  0  2.153478  0  0  -0.59078  0  2.449204  0  0  -0.619851  0  2.431809  0  0  -0.312714  -0.570578  0  2.460696  0
