# generated using pymatgen
data_CuH14C17SN3
_symmetry_space_group_name_H-M   'P 1'
_cell_length_a   5.82125953
_cell_length_b   10.56068069
_cell_length_c   12.75222427
_cell_angle_alpha   93.90859943
_cell_angle_beta   105.86175243
_cell_angle_gamma   95.01174475
_symmetry_Int_Tables_number   1
_chemical_formula_structural   CuH14C17SN3
_chemical_formula_sum   'Cu2 H28 C34 S2 N6'
_cell_volume   747.75491059
_cell_formula_units_Z   2
loop_
 _symmetry_equiv_pos_site_id
 _symmetry_equiv_pos_as_xyz
  1  'x, y, z'
loop_
 _atom_site_type_symbol
 _atom_site_label
 _atom_site_symmetry_multiplicity
 _atom_site_fract_x
 _atom_site_fract_y
 _atom_site_fract_z
 _atom_site_occupancy
 _atom_site_hle17_bader_spin_density
 _atom_site_hle17_ddec_charge
 _atom_site_hle17_ddec_spin_density
 _atom_site_hle17_ddec_sum_bond_order
 _atom_site_hle17_magmom
 _atom_site_hse06_10hf_bader_spin_density
 _atom_site_hse06_10hf_ddec_charge
 _atom_site_hse06_10hf_ddec_spin_density
 _atom_site_hse06_10hf_ddec_sum_bond_order
 _atom_site_hse06_10hf_magmom
 _atom_site_hse06_bader_spin_density
 _atom_site_hse06_ddec_charge
 _atom_site_hse06_ddec_spin_density
 _atom_site_hse06_ddec_sum_bond_order
 _atom_site_hse06_magmom
 _atom_site_pbe_bader_spin_density
 _atom_site_pbe_cm5_charge
 _atom_site_pbe_ddec_charge
 _atom_site_pbe_ddec_spin_density
 _atom_site_pbe_ddec_sum_bond_order
 _atom_site_pbe_magmom
Cu  Cu0  1  0.38941399  0.62560419  0.41323977  1  0  0.480333  0  2.077276  0  0  0.383178  0  2.569825  0  0  0.377125  0  2.530741  0  0  0.535312  0.389624  0  2.593687  0
Cu  Cu1  1  0.61056955  0.37439167  0.58676062  1  0  0.480182  0  2.077441  0  0  0.383048  0  2.570015  0  0  0.37702  0  2.530951  0  0  0.535238  0.389462  0  2.593849  0
H  H2  1  0.86579416  0.46074296  0.30347097  1  0  0.075176  0  0.935707  0  0  0.09141  0  1.00269  0  0  0.091999  0  1.003535  0  0  0.102379  0.090942  0  1.002056  0
H  H3  1  0.13416462  0.53923950  0.69652146  1  0  0.075168  0  0.935718  0  0  0.091354  0  1.002819  0  0  0.091949  0  1.003675  0  0  0.102361  0.090887  0  1.002181  0
H  H4  1  0.72366398  0.34080401  0.19542471  1  0  0.064731  0  0.942382  0  0  0.085282  0  1.000397  0  0  0.085371  0  1.001177  0  0  0.101912  0.085126  0  1.000229  0
H  H5  1  0.27628328  0.65918325  0.80456504  1  0  0.064622  0  0.94238  0  0  0.08518  0  1.000466  0  0  0.085277  0  1.001248  0  0  0.101843  0.085023  0  1.000294  0
H  H6  1  0.33815803  0.43965319  0.16124107  1  0  0.079479  0  0.932147  0  0  0.100684  0  0.988113  0  0  0.100015  0  0.99068  0  0  0.107219  0.100565  0  0.986755  0
H  H7  1  0.66181201  0.56035592  0.83875203  1  0  0.079446  0  0.932252  0  0  0.100663  0  0.988257  0  0  0.100003  0  0.990792  0  0  0.10723  0.100541  0  0.986907  0
H  H8  1  0.42998164  0.39977057  0.29796788  1  0  0.069026  0  0.972958  0  0  0.086959  0  1.036961  0  0  0.088901  0  1.035063  0  0  0.092103  0.085426  0  1.038356  0
H  H9  1  0.56996495  0.60022234  0.70201964  1  0  0.068905  0  0.972966  0  0  0.086903  0  1.036975  0  0  0.088839  0  1.035081  0  0  0.092045  0.085375  0  1.038367  0
H  H10  1  0.93427244  0.87447662  0.23540691  1  0  0.086153  0  0.981682  0  0  0.098193  0  1.04295  0  0  0.099941  0  1.043484  0  0  0.098352  0.096975  0  1.042635  0
H  H11  1  0.06576187  0.12551596  0.76459511  1  0  0.086097  0  0.981597  0  0  0.098127  0  1.042895  0  0  0.099879  0  1.043419  0  0  0.098322  0.096916  0  1.042579  0
H  H12  1  0.96229536  0.09848505  0.31380661  1  0  0.080264  0  0.986205  0  0  0.087631  0  1.054978  0  0  0.090133  0  1.054911  0  0  0.092018  0.085975  0  1.05507  0
H  H13  1  0.03775110  0.90150904  0.68618662  1  0  0.080375  0  0.986239  0  0  0.087724  0  1.055033  0  0  0.090233  0  1.054967  0  0  0.092053  0.086041  0  1.055148  0
H  H14  1  0.64826705  0.16881654  0.39556021  1  0  0.091073  0  0.97057  0  0  0.101545  0  1.031539  0  0  0.104514  0  1.030108  0  0  0.095158  0.099466  0  1.03253  0
H  H15  1  0.35179048  0.83120497  0.60442821  1  0  0.091111  0  0.970557  0  0  0.101575  0  1.031588  0  0  0.104517  0  1.030188  0  0  0.095178  0.099493  0  1.032581  0
H  H16  1  0.30032653  0.01479935  0.39618675  1  0  0.087596  0  0.971349  0  0  0.096014  0  1.036042  0  0  0.09847  0  1.036413  0  0  0.09722  0.094453  0  1.035501  0
H  H17  1  0.69973168  0.98522841  0.60381767  1  0  0.087659  0  0.971438  0  0  0.096171  0  1.035998  0  0  0.098629  0  1.036363  0  0  0.097296  0.094611  0  1.035456  0
H  H18  1  0.26433401  0.79255895  0.31318815  1  0  0.083179  0  0.995434  0  0  0.08922  0  1.070255  0  0  0.093969  0  1.065046  0  0  0.090862  0.08576  0  1.073876  0
H  H19  1  0.73570789  0.20746191  0.68683381  1  0  0.083238  0  0.995341  0  0  0.089278  0  1.070194  0  0  0.093998  0  1.065075  0  0  0.090847  0.085881  0  1.073706  0
H  H20  1  0.05096283  0.63245511  0.04604360  1  0  0.101421  0  0.952094  0  0  0.105349  0  1.025032  0  0  0.108845  0  1.022511  0  0  0.101972  0.102838  0  1.026828  0
H  H21  1  0.94903341  0.36754164  0.95395825  1  0  0.101493  0  0.952078  0  0  0.105415  0  1.025029  0  0  0.108914  0  1.022502  0  0  0.102002  0.102917  0  1.026811  0
H  H22  1  0.10179843  0.76208296  0.89647851  1  0  0.083794  0  0.981266  0  0  0.095175  0  1.042072  0  0  0.097743  0  1.041097  0  0  0.098401  0.093216  0  1.043062  0
H  H23  1  0.89820192  0.23791573  0.10352543  1  0  0.083756  0  0.981327  0  0  0.095146  0  1.042097  0  0  0.097702  0  1.041154  0  0  0.098389  0.093187  0  1.043086  0
H  H24  1  0.81299444  0.91822766  0.82638077  1  0  0.083026  0  0.973348  0  0  0.094744  0  1.034356  0  0  0.096887  0  1.034418  0  0  0.095757  0.093292  0  1.034133  0
H  H25  1  0.18699602  0.08176721  0.17362036  1  0  0.082949  0  0.973458  0  0  0.094688  0  1.034467  0  0  0.096835  0  1.034517  0  0  0.095737  0.093237  0  1.034249  0
H  H26  1  0.46994342  0.94110309  0.90410812  1  0  0.085511  0  0.976871  0  0  0.09565  0  1.03974  0  0  0.097564  0  1.040456  0  0  0.096467  0.094259  0  1.039331  0
H  H27  1  0.53004060  0.05888789  0.09588901  1  0  0.085592  0  0.976757  0  0  0.095717  0  1.039647  0  0  0.097628  0  1.040361  0  0  0.096523  0.09433  0  1.039242  0
H  H28  1  0.42482180  0.81634219  0.05602575  1  0  0.085599  0  0.979799  0  0  0.095686  0  1.045035  0  0  0.097605  0  1.04552  0  0  0.097957  0.094283  0  1.044756  0
H  H29  1  0.57515919  0.18364310  0.94397161  1  0  0.085561  0  0.979823  0  0  0.095604  0  1.04512  0  0  0.097524  0  1.045605  0  0  0.097897  0.094198  0  1.044848  0
C  C30  1  0.95440518  0.65923778  0.49775280  1  0  0.320937  0  3.944546  0  0  0.308964  0  4.230995  0  0  0.324845  0  4.250634  0  0  0.15774  0.298328  0  4.217595  0
C  C31  1  0.04558425  0.34077278  0.50226057  1  0  0.320967  0  3.9445  0  0  0.308979  0  4.230956  0  0  0.324858  0  4.250594  0  0  0.157786  0.298345  0  4.21754  0
C  C32  1  0.72255158  0.44071666  0.22506453  1  0  -0.005839  0  3.722249  0  0  -0.056004  0  3.986595  0  0  -0.054326  0  3.998892  0  0  -0.070342  -0.056794  0  3.977658  0
C  C33  1  0.27740687  0.55927247  0.77492732  1  0  -0.005545  0  3.721704  0  0  -0.05576  0  3.986275  0  0  -0.054118  0  3.998624  0  0  -0.070191  -0.05654  0  3.977322  0
C  C34  1  0.47881749  0.46108529  0.23989757  1  0  -0.012162  0  3.68376  0  0  -0.067542  0  3.940702  0  0  -0.065506  0  3.951577  0  0  -0.076544  -0.06844  0  3.933212  0
C  C35  1  0.52114658  0.53891246  0.76009679  1  0  -0.01208  0  3.683577  0  0  -0.067609  0  3.940904  0  0  -0.065535  0  3.951758  0  0  -0.076577  -0.068508  0  3.93341  0
C  C36  1  0.79459513  0.90445806  0.27034152  1  0  -0.090757  0  3.721911  0  0  -0.110438  0  3.960893  0  0  -0.111703  0  3.982688  0  0  -0.085254  -0.109817  0  3.946651  0
C  C37  1  0.20543900  0.09554212  0.72965919  1  0  -0.090717  0  3.721983  0  0  -0.110339  0  3.960923  0  0  -0.111596  0  3.982706  0  0  -0.085221  -0.10973  0  3.946666  0
C  C38  1  0.81041225  0.03059992  0.31417280  1  0  -0.075011  0  3.769993  0  0  -0.085146  0  4.01664  0  0  -0.087708  0  4.036891  0  0  -0.094452  -0.083808  0  4.003404  0
C  C39  1  0.18963640  0.96940202  0.68582724  1  0  -0.075129  0  3.77  0  0  -0.085231  0  4.016646  0  0  -0.0878  0  4.036896  0  0  -0.094461  -0.083868  0  4.003414  0
C  C40  1  0.63376076  0.07073138  0.36000708  1  0  -0.048383  0  3.731042  0  0  -0.063447  0  3.974975  0  0  -0.063066  0  3.993992  0  0  -0.085482  -0.063265  0  3.961864  0
C  C41  1  0.36629232  0.92928461  0.63998613  1  0  -0.048241  0  3.730643  0  0  -0.06338  0  3.974716  0  0  -0.062983  0  3.993747  0  0  -0.085489  -0.063198  0  3.961591  0
C  C42  1  0.43836963  0.98426888  0.36023073  1  0  -0.069079  0  3.775376  0  0  -0.079277  0  4.022737  0  0  -0.082722  0  4.043673  0  0  -0.090686  -0.076919  0  4.007892  0
C  C43  1  0.56168172  0.01575223  0.63977268  1  0  -0.069557  0  3.77543  0  0  -0.079782  0  4.022835  0  0  -0.083216  0  4.043747  0  0  -0.090914  -0.077426  0  4.008003  0
C  C44  1  0.42095303  0.85872556  0.31536711  1  0  -0.110142  0  3.753628  0  0  -0.131047  0  4.00265  0  0  -0.13  0  4.019336  0  0  -0.095268  -0.131137  0  3.990912  0
C  C45  1  0.57908019  0.14129294  0.68463889  1  0  -0.109927  0  3.753615  0  0  -0.130841  0  4.002682  0  0  -0.1298  0  4.019346  0  0  -0.095062  -0.13096  0  3.99093  0
C  C46  1  0.60036066  0.81599044  0.27126140  1  0  0.008571  0  3.796898  0  0  0.026202  0  4.02797  0  0  0.021829  0  4.051432  0  0  -0.014827  0.028877  0  4.012271  0
C  C47  1  0.39966659  0.18401670  0.72874587  1  0  0.008502  0  3.797069  0  0  0.026119  0  4.028228  0  0  0.021756  0  4.051678  0  0  -0.014923  0.028796  0  4.012523  0
C  C48  1  0.58586761  0.67967456  0.23263963  1  0  0.168813  0  3.637408  0  0  0.157153  0  3.876215  0  0  0.169642  0  3.886972  0  0  0.140675  0.148902  0  3.869346  0
C  C49  1  0.41413102  0.32032417  0.76736491  1  0  0.169014  0  3.637434  0  0  0.157234  0  3.876525  0  0  0.169726  0  3.887321  0  0  0.140768  0.148975  0  3.86962  0
C  C50  1  0.70278250  0.63483908  0.14759596  1  0  0.149292  0  3.709901  0  0  0.144252  0  3.960107  0  0  0.151146  0  3.972749  0  0  0.142207  0.139081  0  3.951912  0
C  C51  1  0.29720704  0.36515194  0.85240414  1  0  0.149308  0  3.709989  0  0  0.144279  0  3.960256  0  0  0.151106  0  3.973008  0  0  0.142283  0.139139  0  3.952007  0
C  C52  1  0.73727453  0.71718136  0.06234038  1  0  0.011245  0  3.794427  0  0  0.028522  0  4.024993  0  0  0.025483  0  4.049712  0  0  -0.012722  0.030617  0  4.008427  0
C  C53  1  0.26271555  0.28281162  0.93766143  1  0  0.01114  0  3.794663  0  0  0.028444  0  4.025192  0  0  0.025421  0  4.04992  0  0  -0.012819  0.030526  0  4.008614  0
C  C54  1  0.92795566  0.70262976  0.01632821  1  0  -0.092208  0  3.721233  0  0  -0.11669  0  3.974653  0  0  -0.117835  0  3.994244  0  0  -0.084545  -0.115779  0  3.961572  0
C  C55  1  0.07203074  0.29736320  0.98367162  1  0  -0.092354  0  3.721302  0  0  -0.116853  0  3.974729  0  0  -0.117996  0  3.994308  0  0  -0.084597  -0.115956  0  3.961643  0
C  C56  1  0.95488255  0.77501951  0.93227401  1  0  -0.073674  0  3.779543  0  0  -0.085161  0  4.027007  0  0  -0.087567  0  4.048106  0  0  -0.092087  -0.083814  0  4.013056  0
C  C57  1  0.04510965  0.22497447  0.06772963  1  0  -0.073643  0  3.779615  0  0  -0.085115  0  4.027078  0  0  -0.087518  0  4.048165  0  0  -0.092078  -0.083767  0  4.013127  0
C  C58  1  0.79218890  0.86188013  0.89226492  1  0  -0.058029  0  3.7561  0  0  -0.072042  0  3.998942  0  0  -0.073175  0  4.02043  0  0  -0.089392  -0.071437  0  3.98447  0
C  C59  1  0.20779285  0.13810892  0.10773109  1  0  -0.057961  0  3.756184  0  0  -0.072011  0  3.999038  0  0  -0.073144  0  4.020524  0  0  -0.089403  -0.071411  0  3.98457  0
C  C60  1  0.60035827  0.87550425  0.93647336  1  0  -0.078626  0  3.783644  0  0  -0.088189  0  4.029028  0  0  -0.090417  0  4.050531  0  0  -0.094897  -0.086644  0  4.014454  0
C  C61  1  0.39961954  0.12448294  0.06352293  1  0  -0.078763  0  3.783612  0  0  -0.088316  0  4.029011  0  0  -0.090539  0  4.050507  0  0  -0.094968  -0.08678  0  4.014443  0
C  C62  1  0.57444177  0.80462164  0.02166697  1  0  -0.10978  0  3.756574  0  0  -0.13074  0  4.000626  0  0  -0.132988  0  4.022363  0  0  -0.089955  -0.129031  0  3.985589  0
C  C63  1  0.42553776  0.19536551  0.97832873  1  0  -0.109541  0  3.756612  0  0  -0.130459  0  4.00062  0  0  -0.132698  0  4.022347  0  0  -0.089791  -0.128747  0  3.985577  0
S  S64  1  0.73517643  0.68088598  0.55204365  1  0  -0.344951  0  2.433389  0  0  -0.312699  0  2.82362  0  0  -0.32444  0  2.808178  0  0  -0.14803  -0.305077  0  2.833438  0
S  S65  1  0.26482369  0.31911770  0.44796674  1  0  -0.345006  0  2.433367  0  0  -0.312737  0  2.823584  0  0  -0.324474  0  2.808126  0  0  -0.148002  -0.305098  0  2.833366  0
N  N66  1  0.11671079  0.64372205  0.46089442  1  0  -0.520386  0  3.15984  0  0  -0.466092  0  3.493488  0  0  -0.479012  0  3.49437  0  0  -0.439764  -0.458128  0  3.492383  0
N  N67  1  0.88329001  0.35628537  0.53911382  1  0  -0.520278  0  3.159907  0  0  -0.465979  0  3.493568  0  0  -0.478901  0  3.494462  0  0  -0.439791  -0.458015  0  3.492424  0
N  N68  1  0.77785345  0.52304556  0.14654653  1  0  -0.290878  0  2.893314  0  0  -0.261101  0  3.167527  0  0  -0.268075  0  3.178617  0  0  -0.305815  -0.255643  0  3.15936  0
N  N69  1  0.22211338  0.47694070  0.85344772  1  0  -0.291  0  2.893178  0  0  -0.261103  0  3.167353  0  0  -0.26805  0  3.178487  0  0  -0.305823  -0.255659  0  3.159167  0
N  N70  1  0.48084611  0.59497233  0.27995523  1  0  -0.315314  0  3.259004  0  0  -0.246178  0  3.565567  0  0  -0.253472  0  3.568099  0  0  -0.37365  -0.242254  0  3.563596  0
N  N71  1  0.51914922  0.40502739  0.72004976  1  0  -0.315348  0  3.259026  0  0  -0.246155  0  3.565733  0  0  -0.253462  0  3.56828  0  0  -0.373686  -0.242232  0  3.563729  0
