# generated using pymatgen
data_Al3H28C51N7O16
_symmetry_space_group_name_H-M   'P 1'
_cell_length_a   13.59012653
_cell_length_b   13.56977670
_cell_length_c   33.57516164
_cell_angle_alpha   83.79284582
_cell_angle_beta   83.44485840
_cell_angle_gamma   63.41815800
_symmetry_Int_Tables_number   1
_chemical_formula_structural   Al3H28C51N7O16
_chemical_formula_sum   'Al6 H56 C102 N14 O32'
_cell_volume   5489.72013385
_cell_formula_units_Z   2
loop_
 _symmetry_equiv_pos_site_id
 _symmetry_equiv_pos_as_xyz
  1  'x, y, z'
loop_
 _atom_site_type_symbol
 _atom_site_label
 _atom_site_symmetry_multiplicity
 _atom_site_fract_x
 _atom_site_fract_y
 _atom_site_fract_z
 _atom_site_occupancy
 _atom_site_pbe_bader_charge
 _atom_site_pbe_bader_spin_density
 _atom_site_pbe_cm5_charge
 _atom_site_pbe_ddec_charge
 _atom_site_pbe_ddec_spin_density
 _atom_site_pbe_ddec_sum_bond_order
 _atom_site_pbe_magmom
Al  Al0  1  0.41109062  0.41114757  0.50921419  1  2.496302  0  0.395441  1.692724  0  2.549748  0
Al  Al1  1  0.64054660  0.42719390  0.49692432  1  2.479584  0  0.501345  1.657725  0  2.507275  0
Al  Al2  1  0.43212693  0.63852810  0.49798339  1  2.479239  0  0.505771  1.667344  0  2.502911  0
Al  Al3  1  0.91748615  0.93100063  0.98459094  1  2.498323  0  0.393847  1.688409  0  2.560018  0
Al  Al4  1  0.91362708  0.69572118  0.99563109  1  2.481924  0  0.504596  1.665096  0  2.505124  0
Al  Al5  1  0.69625928  0.89866729  0.99656278  1  2.482373  0  0.504371  1.665001  0  2.50352  0
H  H6  1  0.56928625  0.84620968  0.10665717  1  0.090878  0  0.113486  0.116594  0  0.993086  0
H  H7  1  0.28892108  0.77535278  0.39406609  1  0.104309  0  0.114317  0.120967  0  1.004232  0
H  H8  1  0.11271500  0.55297989  0.09198780  1  0.102778  0  0.112328  0.116422  0  0.985922  0
H  H9  1  0.22403593  0.49415890  0.33278544  1  0.110962  0  0.111645  0.112741  0  1.004785  0
H  H10  1  0.16709493  0.52769572  0.16268327  1  0.110734  0  0.108071  0.106133  0  1.012847  0
H  H11  1  0.04284073  0.89523636  0.08766617  1  0.123767  0  0.11989  0.128405  0  0.982759  0
H  H12  1  0.09130113  0.87248099  0.15919308  1  0.114577  0  0.109024  0.106899  0  1.01039  0
H  H13  1  0.78339469  0.25277266  0.39573239  1  0.088302  0  0.110728  0.113665  0  0.991034  0
H  H14  1  0.45953363  0.26652215  0.40861023  1  0.073965  0  0.112981  0.116556  0  0.992815  0
H  H15  1  0.84688351  0.10188899  0.08041284  1  0.137395  0  0.119681  0.128396  0  0.97907  0
H  H16  1  0.54633755  0.82249429  0.18163663  1  0.09537  0  0.116004  0.126167  0  0.973427  0
H  H17  1  0.80184926  0.21320376  0.32331721  1  0.136695  0  0.109556  0.10992  0  1.005697  0
H  H18  1  0.47729646  0.22688300  0.33614394  1  0.105645  0  0.109588  0.109066  0  1.011876  0
H  H19  1  0.82295119  0.15789519  0.15120046  1  0.098811  0  0.108048  0.105973  0  1.012372  0
H  H20  1  0.55659597  0.04812782  0.10183415  1  0.086895  0  0.110102  0.113116  0  0.995526  0
H  H21  1  0.53235861  0.10284709  0.17267517  1  0.101305  0  0.109937  0.110046  0  1.009547  0
H  H22  1  0.45268079  0.71526757  0.60137755  1  0.067338  0  0.104177  0.104295  0  1.025847  0
H  H23  1  0.88915735  0.57569450  0.89618959  1  0.124615  0  0.111517  0.114728  0  0.999225  0
H  H24  1  0.81912679  0.53450084  0.65744965  1  0.107499  0  0.103919  0.105705  0  1.058453  0
H  H25  1  0.46863914  0.73324182  0.67339536  1  0.109597  0  0.102265  0.105442  0  1.034111  0
H  H26  1  0.86390712  0.54748319  0.82636364  1  0.092623  0  0.10862  0.106326  0  1.013486  0
H  H27  1  0.55646664  0.83170323  0.90617718  1  0.088905  0  0.114036  0.118092  0  0.983808  0
H  H28  1  0.52945673  0.80159629  0.83683212  1  0.107045  0  0.110962  0.11038  0  1.006747  0
H  H29  1  0.05822371  0.88092378  0.87361676  1  0.096073  0  0.114217  0.11835  0  0.992891  0
H  H30  1  0.11000383  0.85171688  0.79994486  1  0.096228  0  0.115258  0.125279  0  0.976909  0
H  H31  1  0.24982457  0.78953148  0.59892046  1  0.075431  0  0.110876  0.10802  0  1.00902  0
H  H32  1  0.25598866  0.46902265  0.61751909  1  0.129491  0  0.117387  0.11955  0  0.99368  0
H  H33  1  0.15574196  0.51528370  0.82201529  1  0.079304  0  0.112095  0.116471  0  0.980783  0
H  H34  1  0.10291775  0.54626238  0.89524759  1  0.082985  0  0.111783  0.11515  0  0.990806  0
H  H35  1  0.49376532  0.78667176  0.38896130  1  0.106129  0  0.115105  0.116128  0  0.996766  0
H  H36  1  0.20690936  0.49662048  0.69108348  1  0.079274  0  0.113315  0.119579  0  0.988059  0
H  H37  1  0.54512494  0.06089618  0.89520456  1  0.085411  0  0.111311  0.114114  0  0.99308  0
H  H38  1  0.51351988  0.10924449  0.82202730  1  0.09541  0  0.114198  0.121797  0  0.975469  0
H  H39  1  0.44906284  0.32196651  0.61595710  1  0.119941  0  0.114133  0.113869  0  1.023743  0
H  H40  1  0.82645200  0.12306995  0.80137209  1  0.080967  0  0.109491  0.112427  0  0.985239  0
H  H41  1  0.85523051  0.07759032  0.87470447  1  0.104969  0  0.112681  0.116018  0  0.993533  0
H  H42  1  0.80507677  0.12098901  0.67674416  1  0.060932  0  0.109626  0.119637  0  0.99491  0
H  H43  1  0.75901242  0.45877757  0.38464334  1  0.09686  0  0.114082  0.116535  0  0.994842  0
H  H44  1  0.85911624  0.53175625  0.18060840  1  0.062835  0  0.110921  0.114126  0  0.983844  0
H  H45  1  0.88188929  0.55808867  0.10592669  1  0.073843  0  0.113601  0.117834  0  0.990358  0
H  H46  1  0.78334488  0.48564927  0.31031142  1  0.094868  0  0.113873  0.120143  0  0.979065  0
H  H47  1  0.26493382  0.46815549  0.40534404  1  0.123191  0  0.118156  0.125415  0  0.979766  0
H  H48  1  0.28761581  0.81569007  0.28452537  1  0.088426  0  0.104483  0.043448  0  0.984915  0
H  H49  1  0.81344828  0.49239045  0.55236392  1  0.483357  0  0.312928  0.262783  0  0.981227  0
H  H50  1  0.99465374  0.42282017  0.56755435  1  0.075212  0  0.118358  0.130616  0  0.962436  0
H  H51  1  0.95450004  0.52735911  0.60200522  1  0.059913  0  0.104863  0.111949  0  0.973355  0
H  H52  1  0.94935610  0.40005170  0.61806185  1  0.043925  0  0.099015  0.096551  0  1.004613  0
H  H53  1  0.44040893  0.90700385  0.33373129  1  0.078358  0  0.100634  0.042035  0  0.971082  0
H  H54  1  0.20928717  0.90486477  0.64819435  1  0.042679  0  0.09294  0.02146  0  0.964247  0
H  H55  1  0.34859769  0.31694225  0.67311460  1  0.028229  0  0.091247  0.018824  0  0.988914  0
H  H56  1  0.88736541  0.10053734  0.61694055  1  0.390205  0  0.304313  0.241168  0  0.942102  0
H  H57  1  0.94545765  0.20642232  0.56540484  1  0.045976  0  0.102106  0.110326  0  0.978643  0
H  H58  1  0.80940061  0.31519910  0.57081505  1  0.102635  0  0.10429  0.118942  0  1.058336  0
H  H59  1  0.89573986  0.27337493  0.61166435  1  0.039036  0  0.087909  0.08386  0  1.019423  0
H  H60  1  0.35103001  0.27778984  0.50121497  1  0.56005  0  0.287599  0.375544  0  0.934854  0
H  H61  1  0.99295806  0.04731940  0.95282907  1  0.573392  0  0.288142  0.376077  0  0.93364  0
C  C62  1  0.60032098  0.30039630  0.44761932  1  1.553466  0  0.271694  0.640203  0  4.089531  0
C  C63  1  0.65332672  0.65222718  0.30706394  1  0.075206  0  0.024682  0.143365  0  4.035058  0
C  C64  1  0.57151599  0.73863242  0.33003967  1  -0.022314  0  -0.013545  -0.036738  0  3.946228  0
C  C65  1  0.55832656  0.72123194  0.37170778  1  -0.106329  0  -0.062152  -0.099639  0  3.939063  0
C  C66  1  0.61865322  0.76416218  0.16474506  1  -0.060189  0  -0.07175  -0.114943  0  3.910519  0
C  C67  1  0.63140226  0.77716233  0.12320496  1  0.047003  0  -0.072819  -0.080515  0  3.975092  0
C  C68  1  0.80801029  0.61412008  0.12276515  1  0.002185  0  -0.073438  -0.078856  0  3.974123  0
C  C69  1  0.79552560  0.60001750  0.16429486  1  -0.017477  0  -0.075967  -0.122313  0  3.938233  0
C  C70  1  0.70083368  0.67515621  0.18596844  1  0.108262  0  0.01103  0.143172  0  4.094089  0
C  C71  1  0.68746435  0.66368074  0.22833677  1  -0.105283  0  -0.023091  -0.07243  0  4.056369  0
C  C72  1  0.66872474  0.66253865  0.26483591  1  -0.195512  0  -0.033645  -0.093472  0  4.102591  0
C  C73  1  0.60449961  0.59906049  0.43531556  1  1.552584  0  0.27398  0.643743  0  4.087478  0
C  C74  1  0.72619725  0.70265307  0.10185808  1  -0.011419  0  -0.011399  -0.048881  0  3.970802  0
C  C75  1  0.27753288  0.62086077  0.40423741  1  -0.044349  0  -0.007518  -0.034972  0  3.967189  0
C  C76  1  0.26036259  0.54087372  0.38678487  1  0.012103  0  -0.064801  -0.066446  0  3.938394  0
C  C77  1  0.23879965  0.55486796  0.34661444  1  -0.018786  0  -0.075497  -0.105816  0  3.959808  0
C  C78  1  0.23477554  0.64844676  0.32288124  1  -3e-06  0  0.009816  0.003495  0  3.953248  0
C  C79  1  0.25321904  0.72875325  0.34029377  1  -0.039583  0  -0.010292  -0.01181  0  3.955055  0
C  C80  1  0.27328241  0.71412874  0.38098357  1  -0.001912  0  -0.062579  -0.093779  0  3.905774  0
C  C81  1  0.15627429  0.68592985  0.20742565  1  0.944312  0  0.24753  0.254438  0  3.967106  0
C  C82  1  0.20529474  0.66251074  0.28125195  1  0.955632  0  0.239794  0.23783  0  3.993647  0
C  C83  1  0.13934300  0.60789505  0.14611594  1  -0.001172  0  -0.078245  -0.104646  0  3.957756  0
C  C84  1  0.31120093  0.59985768  0.44625615  1  1.567194  0  0.270737  0.63329  0  4.098123  0
C  C85  1  0.10984426  0.62178398  0.10687309  1  -0.022121  0  -0.075075  -0.083813  0  3.963826  0
C  C86  1  0.07008925  0.81557469  0.10463348  1  -0.047035  0  -0.070376  -0.079871  0  3.943283  0
C  C87  1  0.09733355  0.80267765  0.14409323  1  -0.007542  0  -0.075945  -0.100686  0  3.955162  0
C  C88  1  0.13147586  0.69877814  0.16525520  1  -0.029823  0  -0.003503  0.014854  0  3.99463  0
C  C89  1  0.07446439  0.72573195  0.08605922  1  -0.070252  0  -0.003408  -0.026228  0  3.952739  0
C  C90  1  0.61992240  0.26255665  0.40623416  1  -0.066389  0  -0.012117  -0.044319  0  3.971053  0
C  C91  1  0.71715106  0.24638305  0.38244077  1  -0.080549  0  -0.076063  -0.083199  0  3.970254  0
C  C92  1  0.72741741  0.22449746  0.34226466  1  -0.037127  0  -0.078948  -0.108193  0  3.954501  0
C  C93  1  0.64006961  0.21894425  0.32535227  1  0.042827  0  0.001245  0.028608  0  3.982464  0
C  C94  1  0.54409168  0.23173095  0.34958800  1  -0.060385  0  -0.078983  -0.107486  0  3.95972  0
C  C95  1  0.60346381  0.30261785  0.56240901  1  1.567533  0  0.270865  0.651638  0  4.072263  0
C  C96  1  0.53438326  0.25336155  0.38965522  1  0.051115  0  -0.075321  -0.079506  0  3.965803  0
C  C97  1  0.66278321  0.16461238  0.20759012  1  0.925422  0  0.245402  0.252124  0  3.973158  0
C  C98  1  0.64668804  0.20337709  0.28232115  1  0.957781  0  0.240869  0.242286  0  3.986925  0
C  C99  1  0.76513004  0.13379342  0.14013304  1  -0.040389  0  -0.078456  -0.104984  0  3.961272  0
C  C100  1  0.77824022  0.10338945  0.10101590  1  -0.007055  0  -0.071663  -0.080235  0  3.951941  0
C  C101  1  0.61378768  0.07304487  0.11295338  1  -0.008025  0  -0.076387  -0.08448  0  3.968586  0
C  C102  1  0.60049408  0.10306016  0.15220734  1  -0.011199  0  -0.077749  -0.105568  0  3.954598  0
C  C103  1  0.67627399  0.13350620  0.16609582  1  0.005305  0  -0.001471  0.021312  0  3.989295  0
C  C104  1  0.70293205  0.07248990  0.08726126  1  -0.081454  0  -0.007179  -0.033885  0  3.962407  0
C  C105  1  0.62508294  0.61422702  0.58843133  1  0.043957  0  -0.029263  -0.173224  0  3.943337  0
C  C106  1  0.60406426  0.59751339  0.54837960  1  1.495404  0  0.267601  0.650006  0  4.076402  0
C  C107  1  0.73243949  0.56334940  0.60367292  1  0.453708  0  0.118486  0.244742  0  4.039185  0
C  C108  1  0.73963014  0.57455631  0.64450615  1  -0.064708  0  -0.099023  -0.234184  0  3.918992  0
C  C109  1  0.64597769  0.63361917  0.66934999  1  0.006492  0  0.000815  0.054245  0  4.015447  0
C  C110  1  0.54112339  0.68715646  0.65381310  1  0.030798  0  -0.103266  -0.156123  0  3.999893  0
C  C111  1  0.53283902  0.67701408  0.61391759  1  -0.068871  0  -0.081002  -0.057405  0  4.001289  0
C  C112  1  0.67985993  0.65602141  0.78623095  1  0.983672  0  0.24502  0.251167  0  3.971079  0
C  C113  1  0.65713961  0.63804963  0.71219349  1  0.949563  0  0.245566  0.251905  0  3.959609  0
C  C114  1  0.79662169  0.60864428  0.84415980  1  -0.042959  0  -0.075953  -0.101672  0  3.947473  0
C  C115  1  0.81055638  0.62396827  0.88299426  1  -0.082148  0  -0.072859  -0.076444  0  3.951975  0
C  C116  1  0.62262818  0.76858146  0.88868532  1  0.007414  0  -0.072045  -0.07609  0  3.954407  0
C  C117  1  0.30078715  0.60268096  0.56166915  1  1.56168  0  0.271405  0.631583  0  4.103607  0
C  C118  1  0.60789088  0.75242445  0.85004743  1  -0.003753  0  -0.074416  -0.102745  0  3.947103  0
C  C119  1  0.69490842  0.67248240  0.82732991  1  0.017825  0  0.003218  0.027841  0  3.970048  0
C  C120  1  0.72385369  0.70414789  0.90552817  1  -0.02781  0  -0.008492  -0.042794  0  3.964854  0
C  C121  1  0.25694474  0.62712638  0.60384439  1  0.017036  0  -0.016213  -0.052136  0  3.990163  0
C  C122  1  0.24263965  0.54541097  0.62992321  1  -0.055158  0  -0.065815  -0.068926  0  3.962533  0
C  C123  1  0.21510086  0.56092119  0.67057056  1  -0.048469  0  -0.07383  -0.126559  0  3.930358  0
C  C124  1  0.19935648  0.65936463  0.68670275  1  0.114362  0  0.025529  0.145977  0  4.037471  0
C  C125  1  0.20962441  0.74402476  0.65995528  1  -0.009351  0  -0.014872  -0.03324  0  3.953626  0
C  C126  1  0.23926780  0.72581056  0.61918842  1  -0.046917  0  -0.066839  -0.110646  0  3.964024  0
C  C127  1  0.10860539  0.78555552  0.82116460  1  -0.023085  0  -0.070696  -0.113724  0  3.916693  0
C  C128  1  0.62525357  0.62117152  0.39168845  1  0.036046  0  -0.016507  -0.056833  0  3.984536  0
C  C129  1  0.08042294  0.80148953  0.86174216  1  -0.034603  0  -0.074191  -0.082876  0  3.976949  0
C  C130  1  0.10542009  0.61205184  0.87409956  1  0.037215  0  -0.077616  -0.088374  0  3.989647  0
C  C131  1  0.13422271  0.59505358  0.83351883  1  -0.041926  0  -0.075431  -0.121817  0  3.936745  0
C  C132  1  0.13473309  0.68219462  0.80649026  1  0.081029  0  0.009497  0.141244  0  4.101926  0
C  C133  1  0.15884133  0.66929064  0.76486966  1  -0.399974  0  -0.019258  -0.064835  0  4.055597  0
C  C134  1  0.17637797  0.66905649  0.72837665  1  0.135787  0  -0.033407  -0.0939  0  4.101896  0
C  C135  1  0.07741147  0.71546749  0.88838068  1  -0.032332  0  -0.009832  -0.040769  0  3.971157  0
C  C136  1  0.62343954  0.25938735  0.60489345  1  -0.007995  0  -0.017715  -0.137816  0  3.903452  0
C  C137  1  0.72712473  0.19862992  0.62206779  1  0.418971  0  0.113316  0.240608  0  4.005894  0
C  C138  1  0.72612442  0.16553965  0.66328605  1  -0.027306  0  -0.087635  -0.242479  0  3.911502  0
C  C139  1  0.70754706  0.53697255  0.36913526  1  0.034977  0  -0.066146  -0.061435  0  3.953767  0
C  C140  1  0.62940561  0.19148840  0.68843367  1  0.130374  0  0.02089  0.161107  0  4.080609  0
C  C141  1  0.52641119  0.24894653  0.67081421  1  -0.011623  0  -0.025578  -0.05288  0  3.995578  0
C  C142  1  0.52735801  0.27945240  0.62988041  1  -0.072849  0  -0.065306  -0.092513  0  3.970503  0
C  C143  1  0.58809427  0.10189225  0.83385188  1  0.012767  0  -0.075022  -0.11966  0  3.925135  0
C  C144  1  0.60539070  0.07581914  0.87440337  1  -0.023502  0  -0.076066  -0.083927  0  3.986163  0
C  C145  1  0.78088891  0.08516994  0.86266611  1  -0.003207  0  -0.075856  -0.08182  0  3.985689  0
C  C146  1  0.76493561  0.11001677  0.82209234  1  -0.038629  0  -0.078335  -0.124147  0  3.948978  0
C  C147  1  0.66847908  0.11798850  0.80706292  1  0.10675  0  0.009309  0.143712  0  4.107369  0
C  C148  1  0.65341672  0.14146895  0.76562002  1  -0.509776  0  -0.025866  -0.077746  0  4.074287  0
C  C149  1  0.63797669  0.16388240  0.72999174  1  0.158789  0  -0.033423  -0.087901  0  4.096893  0
C  C150  1  0.72095072  0.55196675  0.32770308  1  -0.04097  0  -0.073855  -0.125059  0  3.9295  0
C  C151  1  0.70202259  0.06673698  0.88905887  1  -0.076529  0  -0.013202  -0.047894  0  3.977726  0
C  C152  1  0.03231547  0.74561024  0.04543749  1  1.583095  0  0.272746  0.627131  0  4.102613  0
C  C153  1  0.74486758  0.72383852  0.05800881  1  1.546399  0  0.276656  0.644134  0  4.084358  0
C  C154  1  0.72526896  0.03029869  0.04646196  1  1.563076  0  0.272245  0.63081  0  4.099643  0
C  C155  1  0.03516975  0.73900366  0.93079504  1  1.555296  0  0.270232  0.63447  0  4.095121  0
C  C156  1  0.74318804  0.72678115  0.94552468  1  1.547794  0  0.277857  0.646968  0  4.078375  0
C  C157  1  0.72727287  0.02850795  0.93142480  1  1.566799  0  0.268069  0.636684  0  4.095481  0
C  C158  1  0.26239604  0.82454031  0.31709680  1  0.932449  0  0.095591  0.261734  0  3.992097  0
C  C159  1  0.93590428  0.46248371  0.59271092  1  0.287742  0  -0.126234  -0.210012  0  3.978633  0
C  C160  1  0.49841166  0.84797302  0.31159302  1  0.924698  0  0.093929  0.263677  0  3.990968  0
C  C161  1  0.19041963  0.85201878  0.67294953  1  0.935814  0  0.090827  0.264298  0  4.012855  0
C  C162  1  0.41858232  0.27910282  0.69314201  1  0.972844  0  0.086063  0.265337  0  4.026616  0
C  C163  1  0.87254220  0.24449702  0.58636659  1  0.231583  0  -0.147934  -0.22659  0  3.970798  0
N  N164  1  0.19360960  0.58329264  0.22623889  1  -0.543661  0  -0.149515  -0.141117  0  3.201682  0
N  N165  1  0.75642699  0.57362088  0.72705257  1  -0.541913  0  -0.155829  -0.147177  0  3.217187  0
N  N166  1  0.56598375  0.70095199  0.73513419  1  -0.55808  0  -0.149013  -0.136592  0  3.201805  0
N  N167  1  0.57732840  0.70972573  0.77283906  1  -0.573507  0  -0.15108  -0.144988  0  3.200604  0
N  N168  1  0.22129900  0.57110034  0.26329616  1  -0.557045  0  -0.149021  -0.138703  0  3.215273  0
N  N169  1  0.15706466  0.76631116  0.26390033  1  -0.540721  0  -0.146995  -0.142244  0  3.24668  0
N  N170  1  0.13533994  0.77785971  0.22603529  1  -0.550199  0  -0.149027  -0.13831  0  3.198375  0
N  N171  1  0.74056521  0.18777250  0.22053743  1  -0.542365  0  -0.15377  -0.146841  0  3.214196  0
N  N172  1  0.73186471  0.20861963  0.25850713  1  -0.564682  0  -0.156513  -0.151303  0  3.218708  0
N  N173  1  0.56209660  0.19367322  0.26821030  1  -0.55523  0  -0.149267  -0.140107  0  3.220306  0
N  N174  1  0.56950460  0.17519179  0.23014100  1  -0.528474  0  -0.148863  -0.139454  0  3.204491  0
N  N175  1  0.76806267  0.58317315  0.76462227  1  -0.550257  0  -0.153775  -0.147362  0  3.21432  0
N  N176  1  0.82518994  0.50790477  0.57986196  1  -1.245769  0  -0.436101  -0.27589  0  3.629077  0
N  N177  1  0.83018666  0.16366225  0.60059801  1  -1.096737  0  -0.451557  -0.304284  0  3.460465  0
O  O178  1  0.32489706  0.50887085  0.46444385  1  -1.234995  0  -0.214969  -0.564176  0  2.353033  0
O  O179  1  0.67561961  0.51225513  0.52977842  1  -1.278566  0  -0.244626  -0.621982  0  2.303649  0
O  O180  1  0.51240386  0.66513947  0.53398828  1  -1.273606  0  -0.240109  -0.606571  0  2.316159  0
O  O181  1  0.32144375  0.67656036  0.53972953  1  -1.27432  0  -0.250384  -0.613848  0  2.281995  0
O  O182  1  0.49553345  0.49323686  0.50090452  1  -1.605654  0  -0.391086  -1.261541  0  2.286591  0
O  O183  1  0.81475457  0.01859969  0.02726901  1  -1.24031  0  -0.210845  -0.556681  0  2.364946  0
O  O184  1  0.00873982  0.83906997  0.02750442  1  -1.240159  0  -0.206103  -0.540005  0  2.352817  0
O  O185  1  0.01804085  0.66716117  0.03236141  1  -1.270602  0  -0.24857  -0.614454  0  2.287039  0
O  O186  1  0.83581184  0.65772020  0.04021014  1  -1.276831  0  -0.236433  -0.60011  0  2.299543  0
O  O187  1  0.67183932  0.81045691  0.04086125  1  -1.273717  0  -0.235182  -0.598656  0  2.308229  0
O  O188  1  0.65383062  0.00386930  0.03426254  1  -1.273533  0  -0.249771  -0.614335  0  2.278833  0
O  O189  1  0.50898634  0.31697324  0.46667471  1  -1.247699  0  -0.222048  -0.58597  0  2.36153  0
O  O190  1  0.81890736  0.01559462  0.94202125  1  -1.250454  0  -0.220695  -0.583147  0  2.366002  0
O  O191  1  0.01080836  0.83375039  0.94180697  1  -1.245726  0  -0.217224  -0.573603  0  2.364849  0
O  O192  1  0.02122692  0.66175943  0.95329797  1  -1.281833  0  -0.251952  -0.61871  0  2.27971  0
O  O193  1  0.83447609  0.66165275  0.96049955  1  -1.26381  0  -0.234877  -0.601027  0  2.307135  0
O  O194  1  0.66979953  0.81357806  0.96173173  1  -1.270323  0  -0.234913  -0.599048  0  2.300791  0
O  O195  1  0.65580674  0.00617175  0.95442817  1  -1.279118  0  -0.249168  -0.61611  0  2.283271  0
O  O196  1  0.84137553  0.84065167  0.99243526  1  -1.608969  0  -0.391106  -1.26305  0  2.284574  0
O  O197  1  0.67548345  0.31969849  0.46064027  1  -1.272784  0  -0.248956  -0.612127  0  2.281674  0
O  O198  1  0.67204194  0.50682969  0.45149113  1  -1.271856  0  -0.238479  -0.603391  0  2.31932  0
O  O199  1  0.51796508  0.66968166  0.45384282  1  -1.275959  0  -0.236304  -0.596467  0  2.287621  0
O  O200  1  0.32927565  0.67484634  0.46026663  1  -1.272797  0  -0.249265  -0.611944  0  2.283652  0
O  O201  1  0.31994744  0.50934195  0.55056126  1  -1.242152  0  -0.210025  -0.544964  0  2.345377  0
O  O202  1  0.51067475  0.32253622  0.55085468  1  -1.247118  0  -0.219524  -0.575618  0  2.371339  0
O  O203  1  0.67776473  0.32221223  0.54003069  1  -1.280517  0  -0.245261  -0.609202  0  2.314502  0
O  O204  1  0.24930686  0.90710029  0.33305064  1  -1.077402  0  -0.26655  -0.358467  0  2.121321  0
O  O205  1  0.49808808  0.87464471  0.27557053  1  -1.054664  0  -0.260199  -0.345436  0  2.122537  0
O  O206  1  0.15632901  0.88591882  0.70652757  1  -1.068768  0  -0.263803  -0.350885  0  2.117267  0
O  O207  1  0.40100662  0.26648788  0.72953634  1  -1.087438  0  -0.27625  -0.365433  0  2.108993  0
O  O208  1  0.32885914  0.34000456  0.51741948  1  -1.357953  0  -0.584705  -1.002221  0  1.799322  0
O  O209  1  0.98952471  0.01222163  0.97921936  1  -1.367027  0  -0.581614  -0.99764  0  1.800598  0
