# generated using pymatgen
data_CuH3C4BrN2Cl
_symmetry_space_group_name_H-M   'P 1'
_cell_length_a   3.84650917
_cell_length_b   12.65102645
_cell_length_c   13.07447518
_cell_angle_alpha   89.99974573
_cell_angle_beta   90.00039853
_cell_angle_gamma   89.48811645
_symmetry_Int_Tables_number   1
_chemical_formula_structural   CuH3C4BrN2Cl
_chemical_formula_sum   'Cu4 H12 C16 Br4 N8 Cl4'
_cell_volume   636.20850232
_cell_formula_units_Z   4
loop_
 _symmetry_equiv_pos_site_id
 _symmetry_equiv_pos_as_xyz
  1  'x, y, z'
loop_
 _atom_site_type_symbol
 _atom_site_label
 _atom_site_symmetry_multiplicity
 _atom_site_fract_x
 _atom_site_fract_y
 _atom_site_fract_z
 _atom_site_occupancy
 _atom_site_hle17_bader_spin_density
 _atom_site_hle17_ddec_charge
 _atom_site_hle17_ddec_spin_density
 _atom_site_hle17_ddec_sum_bond_order
 _atom_site_hle17_magmom
 _atom_site_hse06_10hf_bader_spin_density
 _atom_site_hse06_10hf_ddec_charge
 _atom_site_hse06_10hf_ddec_spin_density
 _atom_site_hse06_10hf_ddec_sum_bond_order
 _atom_site_hse06_10hf_magmom
 _atom_site_hse06_bader_spin_density
 _atom_site_hse06_ddec_charge
 _atom_site_hse06_ddec_spin_density
 _atom_site_hse06_ddec_sum_bond_order
 _atom_site_hse06_magmom
 _atom_site_pbe_bader_spin_density
 _atom_site_pbe_cm5_charge
 _atom_site_pbe_ddec_charge
 _atom_site_pbe_ddec_spin_density
 _atom_site_pbe_ddec_sum_bond_order
 _atom_site_pbe_magmom
Cu  Cu0  1  0.55443544  0.67881259  0.65936704  1  0  0.419126  0  2.004281  0  0  0.306136  0  2.501722  0  0  0.298681  0  2.460444  0  0  0.421934  0.314516  0  2.526854  0
Cu  Cu1  1  0.55440644  0.17881169  0.84063814  1  0  0.419151  0  2.004392  0  0  0.306177  0  2.501838  0  0  0.29873  0  2.460566  0  0  0.42196  0.314569  0  2.526901  0
Cu  Cu2  1  0.44558860  0.32118851  0.34063599  1  0  0.419173  0  2.004302  0  0  0.306191  0  2.501743  0  0  0.298787  0  2.460498  0  0  0.421969  0.314586  0  2.52682  0
Cu  Cu3  1  0.44558120  0.82118951  0.15935648  1  0  0.419149  0  2.004376  0  0  0.306199  0  2.50183  0  0  0.298731  0  2.460541  0  0  0.421954  0.31458  0  2.526953  0
H  H4  1  0.79169306  0.38211320  0.91875962  1  0  0.100409  0  0.974256  0  0  0.101838  0  1.048862  0  0  0.106399  0  1.045308  0  0  0.100053  0.098499  0  1.051621  0
H  H5  1  0.79173588  0.88212152  0.58124975  1  0  0.100456  0  0.97413  0  0  0.101903  0  1.048756  0  0  0.106462  0  1.045204  0  0  0.100134  0.098574  0  1.051501  0
H  H6  1  0.20828158  0.61787854  0.08123959  1  0  0.100439  0  0.974176  0  0  0.10189  0  1.04877  0  0  0.10645  0  1.045218  0  0  0.100107  0.098549  0  1.051543  0
H  H7  1  0.20825437  0.11788283  0.41875023  1  0  0.100464  0  0.974128  0  0  0.101853  0  1.048783  0  0  0.106409  0  1.045248  0  0  0.100114  0.098521  0  1.051524  0
H  H8  1  0.32774568  0.28845007  0.64519654  1  0  0.09162  0  0.971908  0  0  0.09261  0  1.047972  0  0  0.096766  0  1.044418  0  0  0.09956  0.089502  0  1.05082  0
H  H9  1  0.32775836  0.78845015  0.85480691  1  0  0.091599  0  0.971812  0  0  0.092615  0  1.047846  0  0  0.09678  0  1.044274  0  0  0.099549  0.089491  0  1.05074  0
H  H10  1  0.67227056  0.71155262  0.35479502  1  0  0.091657  0  0.971891  0  0  0.092635  0  1.047963  0  0  0.096778  0  1.04444  0  0  0.099604  0.08951  0  1.050835  0
H  H11  1  0.67227088  0.21154697  0.14519613  1  0  0.091654  0  0.971933  0  0  0.092636  0  1.047994  0  0  0.096796  0  1.044433  0  0  0.099568  0.089517  0  1.050849  0
H  H12  1  0.30602439  0.47576958  0.58675781  1  0  0.098796  0  0.96582  0  0  0.101612  0  1.036722  0  0  0.106182  0  1.032973  0  0  0.102647  0.098207  0  1.039646  0
H  H13  1  0.30601761  0.97577262  0.91324858  1  0  0.098858  0  0.965758  0  0  0.101617  0  1.036716  0  0  0.106192  0  1.032962  0  0  0.102669  0.098213  0  1.039637  0
H  H14  1  0.69397366  0.52423633  0.41324599  1  0  0.098763  0  0.96584  0  0  0.101588  0  1.03673  0  0  0.106155  0  1.032986  0  0  0.102644  0.098195  0  1.039642  0
H  H15  1  0.69396743  0.02422700  0.08675139  1  0  0.098824  0  0.965729  0  0  0.101602  0  1.036647  0  0  0.106172  0  1.032901  0  0  0.102636  0.098217  0  1.039551  0
C  C16  1  0.66569663  0.50751809  0.81125432  1  0  0.225297  0  3.788404  0  0  0.221206  0  4.06262  0  0  0.22691  0  4.079629  0  0  0.127041  0.21707  0  4.05165  0
C  C17  1  0.66570577  0.00752724  0.68875032  1  0  0.225159  0  3.788546  0  0  0.221097  0  4.062752  0  0  0.226805  0  4.079752  0  0  0.127097  0.216968  0  4.051771  0
C  C18  1  0.33430140  0.49247596  0.18874871  1  0  0.2253  0  3.788535  0  0  0.221227  0  4.062714  0  0  0.226932  0  4.079724  0  0  0.127146  0.217098  0  4.05173  0
C  C19  1  0.33428449  0.99248027  0.31124889  1  0  0.225224  0  3.788358  0  0  0.221152  0  4.062578  0  0  0.22686  0  4.079574  0  0  0.127061  0.217019  0  4.051605  0
C  C20  1  0.68202554  0.40327207  0.84463258  1  0  0.010976  0  3.666977  0  0  -0.025599  0  3.920585  0  0  -0.023953  0  3.934132  0  0  0.027172  -0.027299  0  3.912534  0
C  C21  1  0.68206746  0.90328244  0.65537263  1  0  0.010993  0  3.666686  0  0  -0.025662  0  3.92035  0  0  -0.02402  0  3.933891  0  0  0.02707  -0.027371  0  3.912327  0
C  C22  1  0.31796209  0.59672042  0.15536739  1  0  0.010858  0  3.666927  0  0  -0.025726  0  3.920588  0  0  -0.024083  0  3.934132  0  0  0.027047  -0.02743  0  3.912545  0
C  C23  1  0.31793319  0.09672346  0.34462581  1  0  0.011  0  3.666911  0  0  -0.025565  0  3.920575  0  0  -0.023924  0  3.934117  0  0  0.027149  -0.027265  0  3.912534  0
C  C24  1  0.42733671  0.35098035  0.69387380  1  0  0.070524  0  3.651476  0  0  0.037442  0  3.911989  0  0  0.041675  0  3.921725  0  0  0.031251  0.034213  0  3.906415  0
C  C25  1  0.42735607  0.85098616  0.80612652  1  0  0.070325  0  3.651275  0  0  0.037239  0  3.91178  0  0  0.041466  0  3.921531  0  0  0.031191  0.034013  0  3.906207  0
C  C26  1  0.57267693  0.64901761  0.30612159  1  0  0.070523  0  3.651316  0  0  0.037501  0  3.911806  0  0  0.041732  0  3.92154  0  0  0.03128  0.034293  0  3.906245  0
C  C27  1  0.57266797  0.14901809  0.19387422  1  0  0.07037  0  3.651439  0  0  0.037305  0  3.911925  0  0  0.041538  0  3.921665  0  0  0.031247  0.034099  0  3.906343  0
C  C28  1  0.41598629  0.45503671  0.66102482  1  0  0.106348  0  3.626917  0  0  0.077689  0  3.877384  0  0  0.082619  0  3.887809  0  0  0.040102  0.073329  0  3.872573  0
C  C29  1  0.41599081  0.95504163  0.83897655  1  0  0.106535  0  3.626591  0  0  0.077953  0  3.877037  0  0  0.082857  0  3.887507  0  0  0.040189  0.073582  0  3.872214  0
C  C30  1  0.58400655  0.54496130  0.33897363  1  0  0.106425  0  3.626842  0  0  0.077774  0  3.877299  0  0  0.082702  0  3.887734  0  0  0.040147  0.073397  0  3.872469  0
C  C31  1  0.58399424  0.04496036  0.16102266  1  0  0.106428  0  3.626715  0  0  0.077855  0  3.877176  0  0  0.082765  0  3.887633  0  0  0.040182  0.073474  0  3.872342  0
Br  Br32  1  0.05489254  0.67757102  0.53672679  1  0  -0.529251  0  1.318815  0  0  -0.458393  0  1.717183  0  0  -0.480775  0  1.688423  0  0  -0.268185  -0.441778  0  1.736231  0
Br  Br33  1  0.05487935  0.17757112  0.96327810  1  0  -0.529243  0  1.318808  0  0  -0.458395  0  1.717162  0  0  -0.480781  0  1.688399  0  0  -0.268227  -0.441822  0  1.736192  0
Br  Br34  1  0.94512110  0.32242851  0.46327701  1  0  -0.52924  0  1.318766  0  0  -0.458366  0  1.71709  0  0  -0.480778  0  1.68836  0  0  -0.26821  -0.441792  0  1.736128  0
Br  Br35  1  0.94512129  0.82242925  0.03671729  1  0  -0.529237  0  1.318867  0  0  -0.458384  0  1.71723  0  0  -0.48076  0  1.688454  0  0  -0.268198  -0.441772  0  1.736282  0
N  N36  1  0.53692161  0.53546761  0.71904851  1  0  -0.301307  0  3.360665  0  0  -0.241592  0  3.661049  0  0  -0.241721  0  3.660421  0  0  -0.359578  -0.242229  0  3.66147  0
N  N37  1  0.53693025  0.03547398  0.78095268  1  0  -0.301411  0  3.360715  0  0  -0.241714  0  3.661095  0  0  -0.241841  0  3.660462  0  0  -0.359655  -0.242328  0  3.661461  0
N  N38  1  0.46306863  0.46453121  0.28095299  1  0  -0.30137  0  3.36076  0  0  -0.241676  0  3.66117  0  0  -0.241816  0  3.660563  0  0  -0.359666  -0.242304  0  3.661561  0
N  N39  1  0.46305739  0.96452643  0.21904500  1  0  -0.301331  0  3.360556  0  0  -0.241673  0  3.660985  0  0  -0.241792  0  3.660337  0  0  -0.359636  -0.242309  0  3.661404  0
N  N40  1  0.56293736  0.32371491  0.78572931  1  0  -0.224152  0  3.373109  0  0  -0.155482  0  3.671579  0  0  -0.154452  0  3.671893  0  0  -0.353875  -0.156957  0  3.67153  0
N  N41  1  0.56296762  0.82372030  0.71426989  1  0  -0.22404  0  3.372769  0  0  -0.155342  0  3.671235  0  0  -0.154303  0  3.671543  0  0  -0.353882  -0.156826  0  3.671221  0
N  N42  1  0.43706068  0.67627993  0.21426378  1  0  -0.224138  0  3.372978  0  0  -0.155564  0  3.671555  0  0  -0.154528  0  3.671854  0  0  -0.353959  -0.157051  0  3.671533  0
N  N43  1  0.43704082  0.17628162  0.28573085  1  0  -0.224115  0  3.372893  0  0  -0.155451  0  3.671376  0  0  -0.154425  0  3.671711  0  0  -0.35395  -0.156937  0  3.671329  0
Cl  Cl44  1  0.80555266  0.60724450  0.89035264  1  0  -0.068401  0  1.461238  0  0  -0.057512  0  1.735306  0  0  -0.058371  0  1.727065  0  0  0.031892  -0.057092  0  1.741117  0
Cl  Cl45  1  0.80555218  0.10725165  0.60965645  1  0  -0.068367  0  1.46143  0  0  -0.057457  0  1.735436  0  0  -0.058309  0  1.727192  0  0  0.031884  -0.05706  0  1.741238  0
Cl  Cl46  1  0.19444798  0.39275034  0.10965574  1  0  -0.068367  0  1.461375  0  0  -0.057449  0  1.735389  0  0  -0.058308  0  1.727147  0  0  0.031908  -0.057045  0  1.741186  0
Cl  Cl47  1  0.19443027  0.89275351  0.39035041  1  0  -0.068452  0  1.461189  0  0  -0.05754  0  1.735222  0  0  -0.05839  0  1.726976  0  0  0.031865  -0.057134  0  1.74103  0
