# generated using pymatgen
data_AlH12C27(O2F)3
_symmetry_space_group_name_H-M   'P 1'
_cell_length_a   3.99571326
_cell_length_b   16.02914873
_cell_length_c   16.06795130
_cell_angle_alpha   119.80100285
_cell_angle_beta   90.01723485
_cell_angle_gamma   91.34192912
_symmetry_Int_Tables_number   1
_chemical_formula_structural   AlH12C27(O2F)3
_chemical_formula_sum   'Al1 H12 C27 O6 F3'
_cell_volume   892.69483209
_cell_formula_units_Z   1
loop_
 _symmetry_equiv_pos_site_id
 _symmetry_equiv_pos_as_xyz
  1  'x, y, z'
loop_
 _atom_site_type_symbol
 _atom_site_label
 _atom_site_symmetry_multiplicity
 _atom_site_fract_x
 _atom_site_fract_y
 _atom_site_fract_z
 _atom_site_occupancy
 _atom_site_pbe_bader_charge
 _atom_site_pbe_bader_spin_density
 _atom_site_pbe_cm5_charge
 _atom_site_pbe_ddec_charge
 _atom_site_pbe_ddec_spin_density
 _atom_site_pbe_ddec_sum_bond_order
 _atom_site_pbe_magmom
Al  Al0  1  0.99651110  0.50080616  0.50109547  1  2.504855  0  0.429967  1.600022  0  2.567664  0
H  H1  1  0.49755399  0.92324661  0.07782190  1  0.064267  0  0.100169  0.098535  0  1.027583  0
H  H2  1  0.47382466  0.65518803  0.07771405  1  0.074165  0  0.099352  0.097947  0  1.027378  0
H  H3  1  0.52390160  0.92234811  0.34461393  1  0.075168  0  0.100168  0.099048  0  1.0252  0
H  H4  1  0.74853237  0.23731841  0.25240288  1  0.096047  0  0.114003  0.12172  0  0.969503  0
H  H5  1  0.76410819  0.05979130  0.16309768  1  0.044581  0  0.101099  0.103805  0  1.006052  0
H  H6  1  0.22538208  0.05170278  0.39267099  1  0.066052  0  0.108395  0.129904  0  0.997193  0
H  H7  1  0.24083240  0.83895416  0.94237147  1  0.126186  0  0.109122  0.131041  0  0.995623  0
H  H8  1  0.76874102  0.52001592  0.76992317  1  0.091135  0  0.114152  0.121755  0  0.968595  0
H  H9  1  0.76888718  0.60877208  0.94729936  1  0.059251  0  0.100314  0.102718  0  1.008519  0
H  H10  1  0.76213105  0.60625175  0.15943082  1  0.07639  0  0.108725  0.130977  0  0.995761  0
H  H11  1  0.23900628  0.74217009  0.47895710  1  0.117233  0  0.114761  0.122423  0  0.976217  0
H  H12  1  0.23809318  0.83586199  0.39412793  1  0.059745  0  0.10172  0.105712  0  1.004651  0
C  C13  1  0.50527376  0.57587986  0.64869756  1  1.650049  0  0.28551  0.688379  0  4.050001  0
C  C14  1  0.50151674  0.57114371  0.42399196  1  1.561572  0  0.277811  0.675707  0  4.056255  0
C  C15  1  0.48461682  0.35257280  0.42888498  1  1.635738  0  0.286095  0.689778  0  4.049756  0
C  C16  1  0.49770009  0.78300814  0.06535403  1  -0.23341  0  -0.00614  0.08328  0  4.012357  0
C  C17  1  0.49787528  0.88376365  0.11681224  1  -0.002459  0  -0.086583  -0.170784  0  3.91944  0
C  C18  1  0.49882357  0.93505213  0.21729825  1  0.072586  0  -0.005693  0.080887  0  4.016096  0
C  C19  1  0.50459836  0.88338414  0.26656502  1  -0.037634  0  -0.088447  -0.175197  0  3.928622  0
C  C20  1  0.49888408  0.78262152  0.21733181  1  -0.187937  0  -0.007307  0.076811  0  4.01939  0
C  C21  1  0.49239409  0.73348634  0.11675943  1  0.076529  0  -0.087742  -0.175472  0  3.927235  0
C  C22  1  0.63335727  0.19587271  0.28233023  1  -0.016717  0  -0.078741  -0.072302  0  3.989597  0
C  C23  1  0.63833403  0.09581073  0.23190012  1  0.063877  0  -0.096507  -0.152074  0  4.002759  0
C  C24  1  0.49636047  0.04129935  0.27020612  1  0.002654  0  -0.006477  0.088216  0  4.016722  0
C  C25  1  0.34933894  0.09024695  0.36094955  1  -0.064648  0  -0.100104  -0.259313  0  3.987343  0
C  C26  1  0.35076073  0.18984703  0.41037109  1  0.500163  0  0.102231  0.277785  0  4.06264  0
C  C27  1  0.48868257  0.24479030  0.37308195  1  -0.001196  0  -0.01522  -0.14361  0  3.967195  0
C  C28  1  0.36576421  0.77037578  0.90708510  1  -0.008599  0  -0.100498  -0.26048  0  3.988385  0
C  C29  1  0.37725641  0.72034298  0.80782975  1  0.524104  0  0.102908  0.277776  0  4.063074  0
C  C30  1  0.51334976  0.62947709  0.75630178  1  -0.042732  0  -0.015258  -0.143874  0  3.965893  0
C  C31  1  0.65199864  0.58980048  0.80847108  1  0.029358  0  -0.078848  -0.072038  0  3.988032  0
C  C32  1  0.64818139  0.63961229  0.90834769  1  -0.121392  0  -0.096375  -0.151631  0  4.002866  0
C  C33  1  0.50235725  0.73021774  0.95933995  1  0.026057  0  -0.006202  0.088105  0  4.01464  0
C  C34  1  0.64242191  0.63801649  0.22908616  1  0.083401  0  -0.100874  -0.266897  0  3.982257  0
C  C35  1  0.64356022  0.58754627  0.27841745  1  0.406023  0  0.110153  0.295667  0  4.039669  0
C  C36  1  0.50182877  0.62342581  0.36932375  1  0.067304  0  -0.019022  -0.159018  0  3.956682  0
C  C37  1  0.35592244  0.71411006  0.40915044  1  -0.078116  0  -0.075173  -0.059168  0  3.982482  0
C  C38  1  0.35834444  0.76652213  0.36161066  1  0.015339  0  -0.096263  -0.156423  0  3.996364  0
C  C39  1  0.50051110  0.72902200  0.27011184  1  -0.006057  0  0.000852  0.104068  0  4.002085  0
O  O40  1  0.24711139  0.39267222  0.41054147  1  -1.243955  0  -0.229323  -0.584016  0  2.338737  0
O  O41  1  0.26167901  0.51647974  0.60822860  1  -1.242957  0  -0.230419  -0.586574  0  2.339583  0
O  O42  1  0.26988140  0.59079359  0.48537904  1  -1.247417  0  -0.236994  -0.600951  0  2.361515  0
O  O43  1  0.72043303  0.39575589  0.48943793  1  -1.252855  0  -0.231755  -0.592009  0  2.357702  0
O  O44  1  0.73229846  0.51165761  0.40814742  1  -1.249685  0  -0.237029  -0.602049  0  2.385468  0
O  O45  1  0.74197918  0.59307507  0.60618725  1  -1.244417  0  -0.229208  -0.587417  0  2.361497  0
F  F46  1  0.20748107  0.23573219  0.49843138  1  -0.63009  0  -0.103271  -0.142101  0  1.314096  0
F  F47  1  0.24478813  0.76111884  0.75878456  1  -0.630502  0  -0.102861  -0.141243  0  1.316584  0
F  F48  1  0.78357129  0.49972257  0.23410025  1  -0.627049  0  -0.099172  -0.137427  0  1.337179  0
