# generated using pymatgen
data_CuH6C5N5O
_symmetry_space_group_name_H-M   'P 1'
_cell_length_a   6.98436361
_cell_length_b   9.64953623
_cell_length_c   11.27680308
_cell_angle_alpha   89.98758306
_cell_angle_beta   104.05952145
_cell_angle_gamma   89.98479649
_symmetry_Int_Tables_number   1
_chemical_formula_structural   CuH6C5N5O
_chemical_formula_sum   'Cu4 H24 C20 N20 O4'
_cell_volume   737.24294666
_cell_formula_units_Z   4
loop_
 _symmetry_equiv_pos_site_id
 _symmetry_equiv_pos_as_xyz
  1  'x, y, z'
loop_
 _atom_site_type_symbol
 _atom_site_label
 _atom_site_symmetry_multiplicity
 _atom_site_fract_x
 _atom_site_fract_y
 _atom_site_fract_z
 _atom_site_occupancy
 _atom_site_pbe_cm5_charge
 _atom_site_pbe_ddec_charge
 _atom_site_pbe_ddec_spin_density
 _atom_site_pbe_ddec_sum_bond_order
 _atom_site_pbe_magmom
Cu  Cu0  1  0.14975257  0.87699633  0.71763813  1  0.751158  0.750769  -0.000216  2.411454  -0.001
Cu  Cu1  1  0.64954949  0.62249045  0.21758223  1  0.764524  0.774819  -0.595303  2.396813  -0.454
Cu  Cu2  1  0.85022917  0.12296026  0.28230222  1  0.750789  0.750398  0.000225  2.410808  0.001
Cu  Cu3  1  0.35044581  0.37751795  0.78242233  1  0.76451  0.774965  0.595306  2.396554  0.454
H  H4  1  0.91191964  0.35457445  0.17681347  1  0.289131  0.291527  -0.000102  0.996259  0.0
H  H5  1  0.41157001  0.14537514  0.67727319  1  0.289513  0.291644  0.000723  0.995958  0.0
H  H6  1  0.08809800  0.64544949  0.82318396  1  0.289132  0.291679  0.000102  0.996104  0.0
H  H7  1  0.58842677  0.85462290  0.32273160  1  0.289522  0.291754  -0.000723  0.995822  0.0
H  H8  1  0.05534361  0.22706493  0.14738887  1  0.285499  0.261413  5.2e-05  1.011075  0.0
H  H9  1  0.55483936  0.27263541  0.64746245  1  0.285499  0.260962  0.000633  1.010132  0.0
H  H10  1  0.94466234  0.77296212  0.85260050  1  0.285531  0.261438  -5.2e-05  1.01085  0.0
H  H11  1  0.44515445  0.72736781  0.35254276  1  0.285475  0.260938  -0.000633  1.010131  0.0
H  H12  1  0.36541116  0.22030629  0.47110766  1  0.110588  0.094518  6.2e-05  0.991867  0.0
H  H13  1  0.86555390  0.27974161  0.97123741  1  0.110378  0.094291  0.001685  0.991409  0.002
H  H14  1  0.63462575  0.77970625  0.52888837  1  0.110665  0.094591  -6.2e-05  0.991947  0.0
H  H15  1  0.13445334  0.72026990  0.02876193  1  0.110326  0.09422  -0.001686  0.991511  -0.002
H  H16  1  0.34218062  0.12914008  0.33247580  1  0.10878  0.098591  -4e-05  0.97129  0.0
H  H17  1  0.84246626  0.37079347  0.83264042  1  0.108592  0.097952  0.000119  0.970446  0.0
H  H18  1  0.65780460  0.87086729  0.66751387  1  0.10879  0.09861  4e-05  0.971317  0.0
H  H19  1  0.15752330  0.62921494  0.16735436  1  0.108574  0.097986  -0.000119  0.970438  0.0
H  H20  1  0.28003277  0.37646718  0.27932126  1  0.10401  0.094888  -6e-06  0.995807  0.0
H  H21  1  0.77981109  0.12359424  0.77952192  1  0.103744  0.094327  0.002934  0.996352  0.004
H  H22  1  0.71998019  0.62354226  0.72068873  1  0.10409  0.094898  6e-06  0.995858  0.0
H  H23  1  0.22018565  0.87641001  0.22048464  1  0.103727  0.094293  -0.002933  0.996313  -0.004
H  H24  1  0.11054680  0.38775720  0.37427537  1  0.102569  0.076996  2.2e-05  0.996159  0.0
H  H25  1  0.61074721  0.11238468  0.87466601  1  0.102798  0.077433  5e-06  0.996301  0.0
H  H26  1  0.88944863  0.61224084  0.62572211  1  0.102598  0.077025  -2.2e-05  0.996058  0.0
H  H27  1  0.38925247  0.88762476  0.12534189  1  0.102769  0.077428  -5e-06  0.996315  0.0
C  C28  1  0.56423998  0.83677171  0.88669224  1  0.313749  0.459301  -1.2e-05  4.250896  0.0
C  C29  1  0.06422252  0.66365415  0.38721794  1  0.314391  0.462103  -0.001302  4.247946  -0.004
C  C30  1  0.43572901  0.16323359  0.11329488  1  0.314017  0.459556  1.2e-05  4.251335  0.0
C  C31  1  0.93577432  0.33632627  0.61278420  1  0.314421  0.462332  0.001303  4.247954  0.004
C  C32  1  0.80942797  0.89780806  0.05465003  1  0.29247  0.42722  6.9e-05  4.277719  0.0
C  C33  1  0.30994660  0.60221390  0.55458569  1  0.292821  0.429091  -0.000704  4.276238  -0.001
C  C34  1  0.19055739  0.10219309  0.94533257  1  0.292564  0.427615  -6.9e-05  4.277642  0.0
C  C35  1  0.69006373  0.39774579  0.44540793  1  0.292997  0.429298  0.000703  4.276747  0.001
C  C36  1  0.09838327  0.03318755  0.50227298  1  0.213818  0.34779  -5.3e-05  4.237809  0.0
C  C37  1  0.59864210  0.46684421  0.00247791  1  0.213936  0.352076  -1.2e-05  4.227423  0.0
C  C38  1  0.90164888  0.96681359  0.49774003  1  0.213763  0.34798  5.3e-05  4.237513  0.0
C  C39  1  0.40136490  0.53316211  0.99753381  1  0.213937  0.352139  1.2e-05  4.227359  0.0
C  C40  1  0.26020981  0.19126039  0.38574339  1  -0.063677  -0.020974  5e-06  3.894658  0.0
C  C41  1  0.76027904  0.30885810  0.88590408  1  -0.063767  -0.019008  0.001823  3.898107  0.0
C  C42  1  0.73978992  0.80873972  0.61426186  1  -0.063768  -0.021068  -5e-06  3.895049  0.0
C  C43  1  0.23972223  0.69115238  0.11409787  1  -0.063696  -0.01897  -0.001823  3.898316  0.0
C  C44  1  0.16918899  0.31890185  0.31405466  1  -0.074497  -0.006918  4.1e-05  3.885643  0.0
C  C45  1  0.66918682  0.18121370  0.81436166  1  -0.074619  -0.007098  0.002394  3.884977  0.0
C  C46  1  0.83081240  0.68110240  0.68594109  1  -0.074577  -0.006936  -4.1e-05  3.885584  0.0
C  C47  1  0.33081435  0.81879263  0.18564559  1  -0.074553  -0.007086  -0.002395  3.884709  0.0
N  N48  1  0.41210226  0.84090761  0.81350675  1  -0.420346  -0.540421  -1.2e-05  3.329959  0.0
N  N49  1  0.91132031  0.65997822  0.31479140  1  -0.419474  -0.543931  -0.023121  3.319713  -0.027
N  N50  1  0.58786353  0.15911323  0.18649227  1  -0.420589  -0.540714  1.3e-05  3.330212  0.0
N  N51  1  0.08867190  0.34001568  0.68521976  1  -0.419565  -0.544226  0.023119  3.319764  0.027
N  N52  1  0.73887763  0.82287801  0.95765625  1  -0.31016  -0.402775  -3e-06  3.565596  0.0
N  N53  1  0.23946500  0.67708821  0.45749063  1  -0.310014  -0.403134  -0.000398  3.561823  -0.001
N  N54  1  0.26109273  0.17713144  0.04233640  1  -0.310357  -0.40306  3e-06  3.56569  0.0
N  N55  1  0.76054977  0.32287045  0.54250280  1  -0.310071  -0.403229  0.000399  3.562211  0.001
N  N56  1  0.88915223  0.95908967  0.14336242  1  -0.380842  -0.551856  8e-06  3.053655  0.0
N  N57  1  0.38953993  0.54083160  0.64329682  1  -0.380442  -0.553945  -0.000175  3.055512  0.001
N  N58  1  0.11083891  0.04091459  0.85662729  1  -0.380848  -0.55211  -8e-06  3.05367  0.0
N  N59  1  0.61048957  0.45913535  0.35670070  1  -0.380478  -0.553966  0.000176  3.055656  -0.001
N  N60  1  0.09598895  0.11085101  0.40741459  1  -0.3965  -0.362245  -2.9e-05  3.588785  0.0
N  N61  1  0.59628504  0.38929893  0.90743112  1  -0.401484  -0.373822  0.060733  3.59568  0.077
N  N62  1  0.90402252  0.88913770  0.59259606  1  -0.396564  -0.362336  2.6e-05  3.588895  0.0
N  N63  1  0.40371749  0.61071051  0.09258255  1  -0.401534  -0.373852  -0.060743  3.595709  -0.077
N  N64  1  0.00167768  0.27300689  0.21504241  1  -0.633258  -0.552048  -0.000247  3.417373  0.0
N  N65  1  0.50132462  0.22693976  0.71530611  1  -0.633762  -0.553742  0.076092  3.41373  0.094
N  N66  1  0.99832976  0.72701291  0.78494632  1  -0.63319  -0.55209  0.000247  3.417126  0.0
N  N67  1  0.49867809  0.77305620  0.28469784  1  -0.633708  -0.553714  -0.076084  3.413628  -0.094
O  O68  1  0.24256453  0.00924282  0.59495232  1  -0.293711  -0.466641  0.000153  2.327633  0.0
O  O69  1  0.74312736  0.49096601  0.09515629  1  -0.301214  -0.479075  -0.039431  2.325985  -0.054
O  O70  1  0.75742550  0.99070547  0.40509663  1  -0.293697  -0.466722  -0.000155  2.327116  0.0
O  O71  1  0.25687362  0.50905379  0.90486069  1  -0.301206  -0.479143  0.039425  2.326189  0.054
