# generated using pymatgen
data_ErH5C4SN2O7
_symmetry_space_group_name_H-M   'P 1'
_cell_length_a   6.41928427
_cell_length_b   11.15576802
_cell_length_c   12.06876671
_cell_angle_alpha   108.31829623
_cell_angle_beta   89.99998551
_cell_angle_gamma   90.00021716
_symmetry_Int_Tables_number   1
_chemical_formula_structural   ErH5C4SN2O7
_chemical_formula_sum   'Er4 H20 C16 S4 N8 O28'
_cell_volume   820.47238320
_cell_formula_units_Z   4
loop_
 _symmetry_equiv_pos_site_id
 _symmetry_equiv_pos_as_xyz
  1  'x, y, z'
loop_
 _atom_site_type_symbol
 _atom_site_label
 _atom_site_symmetry_multiplicity
 _atom_site_fract_x
 _atom_site_fract_y
 _atom_site_fract_z
 _atom_site_occupancy
 _atom_site_hle17_bader_spin_density
 _atom_site_hle17_ddec_charge
 _atom_site_hle17_ddec_spin_density
 _atom_site_hle17_ddec_sum_bond_order
 _atom_site_hle17_magmom
 _atom_site_hse06_10hf_bader_spin_density
 _atom_site_hse06_10hf_ddec_charge
 _atom_site_hse06_10hf_ddec_spin_density
 _atom_site_hse06_10hf_ddec_sum_bond_order
 _atom_site_hse06_10hf_magmom
 _atom_site_hse06_bader_spin_density
 _atom_site_hse06_ddec_charge
 _atom_site_hse06_ddec_spin_density
 _atom_site_hse06_ddec_sum_bond_order
 _atom_site_hse06_magmom
 _atom_site_pbe_bader_spin_density
 _atom_site_pbe_cm5_charge
 _atom_site_pbe_ddec_charge
 _atom_site_pbe_ddec_spin_density
 _atom_site_pbe_ddec_sum_bond_order
 _atom_site_pbe_magmom
Er  Er0  1  0.86296338  0.84106015  0.39337329  1  0  2.267678  0  1.635201  0  0  2.120201  0  2.108385  0  0  2.250845  0  1.911771  0  0  1.552711  2.086309  0  2.137047  0
Er  Er1  1  0.36296464  0.15893935  0.10662699  1  0  2.267692  0  1.635201  0  0  2.120239  0  2.108356  0  0  2.250857  0  1.911769  0  0  1.55271  2.086346  0  2.13702  0
Er  Er2  1  0.13703903  0.15893942  0.60662685  1  0  2.267699  0  1.63519  0  0  2.120219  0  2.108389  0  0  2.250872  0  1.911749  0  0  1.552725  2.086323  0  2.137059  0
Er  Er3  1  0.63703465  0.84106116  0.89337260  1  0  2.267683  0  1.635197  0  0  2.120255  0  2.108309  0  0  2.250854  0  1.911753  0  0  1.552719  2.086344  0  2.136984  0
H  H4  1  0.72269403  0.43597684  0.55627564  1  0  0.122261  0  0.964142  0  0  0.131174  0  1.026131  0  0  0.134331  0  1.023283  0  0  0.127906  0.128955  0  1.027917  0
H  H5  1  0.22268846  0.56402299  0.94372276  1  0  0.122323  0  0.964003  0  0  0.131182  0  1.02608  0  0  0.134353  0  1.023193  0  0  0.127912  0.128962  0  1.027863  0
H  H6  1  0.27730682  0.56402271  0.44372202  1  0  0.122247  0  0.964093  0  0  0.131165  0  1.026089  0  0  0.134334  0  1.023207  0  0  0.127926  0.128948  0  1.027871  0
H  H7  1  0.77731083  0.43597752  0.05627766  1  0  0.122344  0  0.964011  0  0  0.131206  0  1.026076  0  0  0.134377  0  1.023182  0  0  0.127918  0.12899  0  1.027857  0
H  H8  1  0.77720192  0.48990753  0.22726407  1  0  0.093115  0  0.958723  0  0  0.099485  0  1.02644  0  0  0.10247  0  1.022144  0  0  0.136223  0.097483  0  1.028927  0
H  H9  1  0.27721321  0.51009364  0.27273505  1  0  0.093176  0  0.95858  0  0  0.099535  0  1.026316  0  0  0.102527  0  1.022014  0  0  0.136232  0.097534  0  1.028804  0
H  H10  1  0.22279581  0.51009297  0.77273552  1  0  0.093144  0  0.958666  0  0  0.099519  0  1.026376  0  0  0.102509  0  1.022078  0  0  0.136241  0.097518  0  1.02886  0
H  H11  1  0.72278919  0.48990686  0.72726454  1  0  0.09315  0  0.958623  0  0  0.099508  0  1.026361  0  0  0.1025  0  1.022061  0  0  0.136224  0.097507  0  1.028849  0
H  H12  1  0.72532176  0.33216356  0.33988904  1  0  0.330646  0  0.851747  0  0  0.312546  0  0.906638  0  0  0.320219  0  0.900887  0  0  0.339186  0.30707  0  0.910894  0
H  H13  1  0.22532480  0.66783655  0.16011144  1  0  0.330764  0  0.85161  0  0  0.312644  0  0.906527  0  0  0.320312  0  0.900774  0  0  0.339209  0.307165  0  0.910785  0
H  H14  1  0.27467598  0.66783694  0.66011054  1  0  0.330753  0  0.851613  0  0  0.312645  0  0.906532  0  0  0.320318  0  0.900776  0  0  0.33921  0.307169  0  0.910788  0
H  H15  1  0.77467761  0.33216490  0.83988842  1  0  0.330843  0  0.851533  0  0  0.312698  0  0.906497  0  0  0.320368  0  0.900736  0  0  0.339226  0.307222  0  0.910756  0
H  H16  1  0.04278811  0.91120924  0.19703456  1  0  0.453251  0  0.83438  0  0  0.423006  0  0.895654  0  0  0.433708  0  0.880193  0  0  0.31011  0.415544  0  0.906645  0
H  H17  1  0.54279126  0.08879139  0.30296692  1  0  0.45323  0  0.834398  0  0  0.422998  0  0.895665  0  0  0.433698  0  0.880205  0  0  0.310091  0.415537  0  0.906655  0
H  H18  1  0.95721430  0.08878844  0.80296588  1  0  0.453262  0  0.834361  0  0  0.42302  0  0.895641  0  0  0.433722  0  0.880179  0  0  0.310103  0.415558  0  0.906632  0
H  H19  1  0.45721114  0.91121007  0.69703459  1  0  0.453263  0  0.834359  0  0  0.423018  0  0.895632  0  0  0.433715  0  0.88018  0  0  0.310114  0.415554  0  0.906627  0
H  H20  1  0.06974924  0.03240164  0.31359607  1  0  0.458096  0  0.829913  0  0  0.426212  0  0.894084  0  0  0.438113  0  0.876791  0  0  0.3088  0.417897  0  0.906385  0
H  H21  1  0.56974736  0.96759811  0.18640516  1  0  0.458049  0  0.829967  0  0  0.426175  0  0.894122  0  0  0.438074  0  0.876827  0  0  0.308778  0.417863  0  0.906423  0
H  H22  1  0.93025628  0.96759604  0.68640437  1  0  0.458055  0  0.82996  0  0  0.426182  0  0.894114  0  0  0.43808  0  0.87682  0  0  0.308762  0.417872  0  0.906412  0
H  H23  1  0.43025505  0.03240240  0.81359526  1  0  0.458069  0  0.829949  0  0  0.426189  0  0.894116  0  0  0.438085  0  0.876827  0  0  0.308788  0.41787  0  0.906426  0
C  C24  1  0.73977244  0.48824402  0.49510334  1  0  0.036229  0  3.609502  0  0  -0.019527  0  3.880403  0  0  -0.012145  0  3.894693  0  0  0.02569  -0.023782  0  3.869635  0
C  C25  1  0.23976985  0.51175706  0.00489493  1  0  0.036222  0  3.609331  0  0  -0.019526  0  3.880242  0  0  -0.012146  0  3.894547  0  0  0.025696  -0.023778  0  3.869472  0
C  C26  1  0.26022373  0.51175648  0.50489541  1  0  0.0363  0  3.609407  0  0  -0.019468  0  3.88032  0  0  -0.01208  0  3.894615  0  0  0.02567  -0.023721  0  3.869549  0
C  C27  1  0.76022788  0.48824345  0.99510549  1  0  0.036091  0  3.609334  0  0  -0.019646  0  3.880243  0  0  -0.012264  0  3.894544  0  0  0.025651  -0.023904  0  3.869479  0
C  C28  1  0.77131191  0.51363215  0.32097803  1  0  0.266882  0  3.644431  0  0  0.206415  0  3.926011  0  0  0.221069  0  3.938195  0  0  0.158688  0.197224  0  3.918892  0
C  C29  1  0.27131842  0.48636806  0.17902082  1  0  0.266787  0  3.644398  0  0  0.206296  0  3.925985  0  0  0.220945  0  3.938168  0  0  0.158605  0.197104  0  3.918864  0
C  C30  1  0.22868582  0.48636835  0.67902156  1  0  0.266816  0  3.644329  0  0  0.206351  0  3.925909  0  0  0.221005  0  3.93809  0  0  0.158651  0.197164  0  3.918787  0
C  C31  1  0.72868087  0.51363244  0.82097877  1  0  0.266874  0  3.644407  0  0  0.206387  0  3.925977  0  0  0.221037  0  3.938156  0  0  0.158661  0.197197  0  3.918856  0
C  C32  1  0.76723231  0.61448742  0.50697015  1  0  -0.021199  0  3.816565  0  0  -0.015929  0  4.075116  0  0  -0.022932  0  4.099603  0  0  0.06446  -0.011661  0  4.061182  0
C  C33  1  0.26723333  0.38551252  0.99302910  1  0  -0.021176  0  3.816557  0  0  -0.015885  0  4.075085  0  0  -0.022899  0  4.099565  0  0  0.064461  -0.011621  0  4.061152  0
C  C34  1  0.23276231  0.38551308  0.49302861  1  0  -0.021283  0  3.816645  0  0  -0.015972  0  4.075179  0  0  -0.022977  0  4.099669  0  0  0.064482  -0.011706  0  4.061251  0
C  C35  1  0.73276596  0.61448799  0.00697049  1  0  -0.021139  0  3.81663  0  0  -0.015882  0  4.075146  0  0  -0.0229  0  4.099625  0  0  0.064445  -0.011618  0  4.061212  0
C  C36  1  0.77878535  0.72922791  0.60835387  1  0  0.718264  0  3.879401  0  0  0.666984  0  4.173947  0  0  0.704915  0  4.164793  0  0  0.232896  0.641634  0  4.182727  0
C  C37  1  0.27878566  0.27077301  0.89164649  1  0  0.718186  0  3.879378  0  0  0.666901  0  4.173927  0  0  0.704854  0  4.164737  0  0  0.232868  0.641551  0  4.182708  0
C  C38  1  0.22121550  0.27077166  0.39164545  1  0  0.718342  0  3.879157  0  0  0.667  0  4.173792  0  0  0.704931  0  4.164644  0  0  0.232906  0.64165  0  4.182583  0
C  C39  1  0.72121363  0.72922845  0.10835420  1  0  0.718046  0  3.879615  0  0  0.666839  0  4.174061  0  0  0.704812  0  4.164838  0  0  0.232847  0.641499  0  4.182819  0
S  S40  1  0.32168961  0.83636911  0.45998779  1  0  1.655366  0  5.784931  0  0  1.533825  0  6.32217  0  0  1.591646  0  6.294434  0  0  0.584987  1.49378  0  6.349378  0
S  S41  1  0.82169183  0.16363028  0.04001164  1  0  1.655509  0  5.784662  0  0  1.533962  0  6.321906  0  0  1.591794  0  6.294146  0  0  0.585053  1.493916  0  6.349111  0
S  S42  1  0.67831124  0.16363139  0.54001179  1  0  1.655384  0  5.785064  0  0  1.533843  0  6.322303  0  0  1.591691  0  6.294539  0  0  0.58507  1.493818  0  6.349501  0
S  S43  1  0.17830902  0.83636928  0.95998851  1  0  1.655317  0  5.784542  0  0  1.533797  0  6.321787  0  0  1.591641  0  6.294019  0  0  0.585042  1.493756  0  6.348974  0
N  N44  1  0.74410764  0.42696895  0.37757095  1  0  -0.267716  0  3.425092  0  0  -0.20169  0  3.670678  0  0  -0.217612  0  3.683394  0  0  -0.366793  -0.190795  0  3.660978  0
N  N45  1  0.24411008  0.57303214  0.12242815  1  0  -0.267809  0  3.425001  0  0  -0.201711  0  3.670495  0  0  -0.217629  0  3.683218  0  0  -0.366751  -0.190816  0  3.660797  0
N  N46  1  0.25588853  0.57303155  0.62242781  1  0  -0.267821  0  3.424962  0  0  -0.201814  0  3.670567  0  0  -0.217733  0  3.683282  0  0  -0.366823  -0.19092  0  3.660867  0
N  N47  1  0.75589233  0.42696741  0.87757034  1  0  -0.267855  0  3.424909  0  0  -0.201743  0  3.67041  0  0  -0.217656  0  3.683119  0  0  -0.36677  -0.190854  0  3.660716  0
N  N48  1  0.78706636  0.62827823  0.39733023  1  0  -0.516895  0  3.276583  0  0  -0.469941  0  3.559538  0  0  -0.49706  0  3.579945  0  0  -0.431207  -0.459015  0  3.546951  0
N  N49  1  0.28707059  0.37172297  0.10266807  1  0  -0.5169  0  3.276629  0  0  -0.469946  0  3.55959  0  0  -0.497055  0  3.579989  0  0  -0.431189  -0.459019  0  3.547003  0
N  N50  1  0.21293137  0.37172133  0.60266826  1  0  -0.516874  0  3.276621  0  0  -0.469914  0  3.559564  0  0  -0.497028  0  3.579967  0  0  -0.431205  -0.458989  0  3.546982  0
N  N51  1  0.71292558  0.62827754  0.89733152  1  0  -0.516894  0  3.276632  0  0  -0.469958  0  3.559599  0  0  -0.497068  0  3.580011  0  0  -0.431191  -0.459029  0  3.547012  0
O  O52  1  0.72520301  0.72457784  0.70803516  1  0  -0.719943  0  2.040434  0  0  -0.669554  0  2.305367  0  0  -0.707754  0  2.290574  0  0  -0.399418  -0.651654  0  2.31226  0
O  O53  1  0.22520808  0.27542200  0.79196324  1  0  -0.719894  0  2.040339  0  0  -0.669509  0  2.305325  0  0  -0.707721  0  2.29052  0  0  -0.399411  -0.651609  0  2.312219  0
O  O54  1  0.27479783  0.27542172  0.29196333  1  0  -0.719968  0  2.040296  0  0  -0.66956  0  2.305288  0  0  -0.707757  0  2.290495  0  0  -0.399435  -0.651661  0  2.312188  0
O  O55  1  0.77479121  0.72457945  0.20803662  1  0  -0.719823  0  2.040439  0  0  -0.669453  0  2.305349  0  0  -0.70767  0  2.290532  0  0  -0.399375  -0.65156  0  2.312237  0
O  O56  1  0.84356082  0.82839140  0.58631674  1  0  -0.721934  0  2.0538  0  0  -0.664718  0  2.300356  0  0  -0.700888  0  2.285462  0  0  -0.360527  -0.64685  0  2.308676  0
O  O57  1  0.34356202  0.17161061  0.91368310  1  0  -0.721926  0  2.053788  0  0  -0.664711  0  2.300358  0  0  -0.700889  0  2.285456  0  0  -0.360527  -0.646843  0  2.308682  0
O  O58  1  0.15644314  0.17160722  0.41368231  1  0  -0.721958  0  2.053669  0  0  -0.664711  0  2.300231  0  0  -0.700884  0  2.285343  0  0  -0.360535  -0.646844  0  2.308564  0
O  O59  1  0.65643727  0.82839179  0.08631869  1  0  -0.721853  0  2.05383  0  0  -0.664663  0  2.300321  0  0  -0.700851  0  2.285409  0  0  -0.360525  -0.646797  0  2.308635  0
O  O60  1  0.51110803  0.86369882  0.40262992  1  0  -0.795177  0  2.028715  0  0  -0.741293  0  2.307383  0  0  -0.775001  0  2.283472  0  0  -0.425082  -0.725914  0  2.320525  0
O  O61  1  0.01110914  0.13629986  0.09737266  1  0  -0.795161  0  2.02862  0  0  -0.741295  0  2.307314  0  0  -0.774995  0  2.283397  0  0  -0.425053  -0.725914  0  2.320453  0
O  O62  1  0.48889282  0.13630169  0.59737133  1  0  -0.795177  0  2.028719  0  0  -0.741283  0  2.307387  0  0  -0.774998  0  2.283473  0  0  -0.42509  -0.725913  0  2.320531  0
O  O63  1  0.98888703  0.86370065  0.90262693  1  0  -0.795151  0  2.028542  0  0  -0.741278  0  2.307199  0  0  -0.774986  0  2.28329  0  0  -0.425095  -0.725899  0  2.320336  0
O  O64  1  0.37172931  0.79948910  0.56322328  1  0  -0.704362  0  1.964754  0  0  -0.646115  0  2.206003  0  0  -0.667778  0  2.190431  0  0  -0.31769  -0.630274  0  2.216461  0
O  O65  1  0.87172847  0.20050824  0.93677356  1  0  -0.704408  0  1.964685  0  0  -0.646158  0  2.205965  0  0  -0.667828  0  2.190386  0  0  -0.31769  -0.630319  0  2.216424  0
O  O66  1  0.62827465  0.20051047  0.43677770  1  0  -0.704322  0  1.964866  0  0  -0.646111  0  2.206131  0  0  -0.667776  0  2.190557  0  0  -0.317703  -0.630277  0  2.216592  0
O  O67  1  0.12827082  0.79948850  0.06322661  1  0  -0.704338  0  1.964633  0  0  -0.646098  0  2.205855  0  0  -0.667764  0  2.190277  0  0  -0.317687  -0.630261  0  2.216311  0
O  O68  1  0.19233532  0.73808995  0.37391240  1  0  -0.813581  0  1.950307  0  0  -0.765111  0  2.22183  0  0  -0.79679  0  2.203491  0  0  -0.409979  -0.749728  0  2.233324  0
O  O69  1  0.69233815  0.26191008  0.12608640  1  0  -0.813646  0  1.950302  0  0  -0.765167  0  2.221804  0  0  -0.796845  0  2.203469  0  0  -0.410059  -0.749778  0  2.233296  0
O  O70  1  0.80766709  0.26190962  0.62608692  1  0  -0.813611  0  1.950395  0  0  -0.765118  0  2.221883  0  0  -0.796816  0  2.203563  0  0  -0.410039  -0.749735  0  2.233372  0
O  O71  1  0.30766582  0.73808948  0.87391291  1  0  -0.813543  0  1.950236  0  0  -0.765094  0  2.221748  0  0  -0.796768  0  2.203401  0  0  -0.409999  -0.749709  0  2.23324  0
O  O72  1  0.18024274  0.95031492  0.49303672  1  0  -0.909742  0  2.164665  0  0  -0.843922  0  2.448019  0  0  -0.887185  0  2.431071  0  0  -0.475569  -0.827103  0  2.45934  0
O  O73  1  0.68024267  0.04968226  0.00696292  1  0  -0.909806  0  2.164576  0  0  -0.84396  0  2.447889  0  0  -0.887226  0  2.430942  0  0  -0.475571  -0.827146  0  2.45921  0
O  O74  1  0.81975966  0.04968464  0.50696259  1  0  -0.909758  0  2.164644  0  0  -0.843926  0  2.447987  0  0  -0.8872  0  2.43104  0  0  -0.475573  -0.827112  0  2.459307  0
O  O75  1  0.31976285  0.95031636  0.99303696  1  0  -0.909742  0  2.16456  0  0  -0.843934  0  2.447926  0  0  -0.887205  0  2.430979  0  0  -0.475599  -0.827123  0  2.459245  0
O  O76  1  0.99094845  0.95270172  0.27707742  1  0  -0.931302  0  1.867258  0  0  -0.882112  0  2.069462  0  0  -0.912243  0  2.027968  0  0  -0.655398  -0.86917  0  2.093334  0
O  O77  1  0.49095048  0.04729714  0.22292350  1  0  -0.93121  0  1.867305  0  0  -0.882049  0  2.069461  0  0  -0.91217  0  2.027986  0  0  -0.655357  -0.869114  0  2.093319  0
O  O78  1  0.00905084  0.04729597  0.72292385  1  0  -0.931253  0  1.867245  0  0  -0.882084  0  2.069418  0  0  -0.912217  0  2.027938  0  0  -0.655359  -0.869151  0  2.09328  0
O  O79  1  0.50905349  0.95270243  0.77707748  1  0  -0.931261  0  1.867293  0  0  -0.882083  0  2.069494  0  0  -0.912191  0  2.028006  0  0  -0.655384  -0.869142  0  2.093366  0
