# generated using pymatgen
data_Zr3H18C30Cl5O16
_symmetry_space_group_name_H-M   'P 1'
_cell_length_a   15.01602151
_cell_length_b   14.88459341
_cell_length_c   14.90439002
_cell_angle_alpha   59.46662559
_cell_angle_beta   59.74010947
_cell_angle_gamma   59.69557061
_symmetry_Int_Tables_number   1
_chemical_formula_structural   Zr3H18C30Cl5O16
_chemical_formula_sum   'Zr6 H36 C60 Cl10 O32'
_cell_volume   2335.92658259
_cell_formula_units_Z   2
loop_
 _symmetry_equiv_pos_site_id
 _symmetry_equiv_pos_as_xyz
  1  'x, y, z'
loop_
 _atom_site_type_symbol
 _atom_site_label
 _atom_site_symmetry_multiplicity
 _atom_site_fract_x
 _atom_site_fract_y
 _atom_site_fract_z
 _atom_site_occupancy
 _atom_site_pbe_bader_charge
 _atom_site_pbe_bader_spin_density
 _atom_site_pbe_cm5_charge
 _atom_site_pbe_ddec_charge
 _atom_site_pbe_ddec_spin_density
 _atom_site_pbe_ddec_sum_bond_order
 _atom_site_pbe_magmom
Zr  Zr0  1  0.87910280  0.38536791  0.61965303  1  2.638853  0  1.6265  2.380722  0  2.752196  0
Zr  Zr1  1  0.11561223  0.62515592  0.37840867  1  2.634887  0  1.612069  2.375434  0  2.705679  0
Zr  Zr2  1  0.11626740  0.38528784  0.62008436  1  2.636847  0  1.62393  2.380066  0  2.746754  0
Zr  Zr3  1  0.88148416  0.62475677  0.37865984  1  2.635953  0  1.614692  2.375274  0  2.713057  0
Zr  Zr4  1  0.87983622  0.62020182  0.62082906  1  2.6367  0  1.628269  2.375605  0  2.758792  0
Zr  Zr5  1  0.11682701  0.38198469  0.38541312  1  2.635883  0  1.626476  2.374518  0  2.752504  0
H  H6  1  0.90520722  0.40835356  0.78206279  1  0.606684  0  0.331505  0.422785  0  0.857455  0
H  H7  1  0.90570301  0.78638728  0.40295159  1  0.603562  0  0.328969  0.42006  0  0.861781  0
H  H8  1  0.27708158  0.40956289  0.40798638  1  0.600329  0  0.329885  0.421502  0  0.85914  0
H  H9  1  0.90633526  0.40950699  0.40785128  1  0.607254  0  0.33057  0.422159  0  0.858593  0
H  H10  1  0.52894001  0.75137636  0.86691069  1  0.075964  0  0.084156  0.100922  0  1.05372  0
H  H11  1  0.61196156  0.67632694  0.95205765  1  0.04477  0  0.094941  0.105796  0  0.999601  0
H  H12  1  0.44272483  0.67223622  0.12155677  1  0.076341  0  0.084462  0.097512  0  1.04809  0
H  H13  1  0.35981043  0.75112871  0.03556530  1  0.067809  0  0.09886  0.113782  0  0.987175  0
H  H14  1  0.24195293  0.04761965  0.33416604  1  0.047435  0  0.094638  0.105543  0  1.010646  0
H  H15  1  0.14698133  0.13284297  0.26117171  1  0.079582  0  0.083215  0.098705  0  1.057338  0
H  H16  1  0.14802103  0.96386996  0.25992743  1  0.05429  0  0.097551  0.110655  0  0.982032  0
H  H17  1  0.23955347  0.87771680  0.33703801  1  0.076353  0  0.085681  0.100422  0  1.043011  0
H  H18  1  0.54538002  0.87804758  0.33762186  1  0.071228  0  0.085943  0.100807  0  1.043124  0
H  H19  1  0.62778990  0.96429788  0.26023692  1  0.077498  0  0.09772  0.111594  0  0.98123  0
H  H20  1  0.45834715  0.13318083  0.26212176  1  0.072638  0  0.083603  0.098781  0  1.055895  0
H  H21  1  0.37573625  0.04777968  0.33565155  1  0.031547  0  0.094624  0.105631  0  1.010463  0
H  H22  1  0.85322859  0.75018229  0.03745678  1  0.058109  0  0.098881  0.113814  0  0.987277  0
H  H23  1  0.76369890  0.67090983  0.12264867  1  0.076026  0  0.084732  0.097917  0  1.047854  0
H  H24  1  0.75993228  0.67647987  0.95245157  1  0.033152  0  0.094468  0.105241  0  1.000969  0
H  H25  1  0.85336702  0.75116592  0.86799433  1  0.087042  0  0.084234  0.100419  0  1.055244  0
H  H26  1  0.87821401  0.02369816  0.17664421  1  0.02152  0  0.088825  0.082721  0  0.980937  0
H  H27  1  0.01499977  0.00027776  0.15313882  1  0.034737  0  0.090802  0.088096  0  0.991686  0
H  H28  1  0.01299030  0.15961428  0.99630698  1  0.031669  0  0.084605  0.082498  0  1.014831  0
H  H29  1  0.87659234  0.18104152  0.02026286  1  0.018207  0  0.087642  0.083451  0  0.981987  0
H  H30  1  0.17078483  0.04417643  0.87955710  1  0.031981  0  0.083299  0.084126  0  1.023387  0
H  H31  1  0.14695116  0.98509915  0.82050118  1  0.03027  0  0.089267  0.087831  0  0.974522  0
H  H32  1  0.17150131  0.88490048  0.03728881  1  0.047041  0  0.090259  0.087989  0  1.001595  0
H  H33  1  0.14752091  0.82677194  0.97711077  1  0.02889  0  0.090505  0.086996  0  0.975053  0
H  H34  1  0.84065039  0.94053507  0.09257531  1  0.026174  0  0.088376  0.08526  0  0.997394  0
H  H35  1  0.94929252  0.85947960  0.01143520  1  0.018723  0  0.089073  0.085814  0  0.989923  0
H  H36  1  0.94952099  0.01770517  0.85375387  1  0.01348  0  0.081702  0.08066  0  1.010788  0
H  H37  1  0.84044550  0.09846864  0.93468998  1  0.048558  0  0.081019  0.081351  0  1.01938  0
H  H38  1  0.53861413  0.34683384  0.74492696  1  0.080051  0  0.092499  0.108019  0  1.002924  0
H  H39  1  0.62284704  0.26258653  0.66029765  1  0.080758  0  0.091014  0.104313  0  1.009791  0
H  H40  1  0.45466453  0.26267598  0.66021815  1  0.065914  0  0.090922  0.104206  0  1.011254  0
H  H41  1  0.36994138  0.34689074  0.74488336  1  0.072864  0  0.09264  0.10804  0  1.002436  0
C  C42  1  0.69573081  0.50194010  0.80261994  1  1.580115  0  0.234673  0.652377  0  4.106262  0
C  C43  1  0.99741585  0.80197639  0.50701228  1  1.587444  0  0.2364  0.655824  0  4.093238  0
C  C44  1  0.29630554  0.50205394  0.19593243  1  1.552691  0  0.235742  0.654801  0  4.09568  0
C  C45  1  0.00181051  0.19463810  0.51098255  1  1.574295  0  0.237156  0.656998  0  4.096341  0
C  C46  1  0.99938777  0.19637946  0.80442513  1  1.538117  0  0.240518  0.634642  0  4.008222  0
C  C47  1  0.69446995  0.51062732  0.49773008  1  1.594797  0  0.235878  0.653572  0  4.089892  0
C  C48  1  0.00119974  0.80837923  0.18894796  1  1.52179  0  0.243555  0.637875  0  4.015252  0
C  C49  1  0.29766215  0.51073250  0.49763876  1  1.570738  0  0.235691  0.654363  0  4.087473  0
C  C50  1  0.00005716  0.50198076  0.80284778  1  1.579026  0  0.234895  0.653409  0  4.106256  0
C  C51  1  0.29303177  0.19458832  0.51179235  1  1.554087  0  0.23711  0.656468  0  4.098065  0
C  C52  1  0.00666085  0.50134671  0.19616801  1  1.58158  0  0.2354  0.654193  0  4.099542  0
C  C53  1  0.69416762  0.80197865  0.50708337  1  1.57059  0  0.236731  0.656193  0  4.094591  0
C  C54  1  0.59906221  0.49269408  0.90618972  1  0.023196  0  -0.014845  -0.127677  0  3.938047  0
C  C55  1  0.39867129  0.49485898  0.09774599  1  0.058065  0  -0.015008  -0.131363  0  3.935184  0
C  C56  1  0.54208809  0.57524363  0.95325695  1  0.001691  0  -0.004418  0.070561  0  3.893793  0
C  C57  1  0.45597434  0.40848469  0.05234270  1  0.116105  0  0.014317  0.062023  0  3.994362  0
C  C58  1  0.44708184  0.57561415  0.04526768  1  -0.024848  0  -0.004316  0.07301  0  3.90346  0
C  C59  1  0.55517320  0.40554538  0.96155985  1  0.056573  0  0.013921  0.059954  0  3.991563  0
C  C60  1  0.54093938  0.68251124  0.94253546  1  -0.004233  0  -0.156224  -0.193569  0  3.867063  0
C  C61  1  0.43462713  0.68178332  0.04778959  1  -0.039609  0  -0.154726  -0.19432  0  3.864178  0
C  C62  1  0.99899246  0.09192012  0.51867883  1  -0.004188  0  -0.014247  -0.129105  0  3.935349  0
C  C63  1  0.99367619  0.90027197  0.51478768  1  0.065193  0  -0.014012  -0.127917  0  3.935164  0
C  C64  1  0.07273786  0.04452352  0.43655745  1  0.028343  0  -0.004986  0.07091  0  3.89354  0
C  C65  1  0.91619181  0.94788957  0.59889783  1  0.088001  0  0.013631  0.060304  0  3.997394  0
C  C66  1  0.07080316  0.95249102  0.43537238  1  -0.014442  0  -0.004305  0.070809  0  3.905601  0
C  C67  1  0.92056107  0.03890532  0.60280411  1  0.09169  0  0.014648  0.059426  0  3.989713  0
C  C68  1  0.16736379  0.05659228  0.32898111  1  -0.037037  0  -0.156041  -0.193136  0  3.866908  0
C  C69  1  0.16649697  0.95114255  0.32891590  1  -0.022633  0  -0.155065  -0.195033  0  3.868866  0
C  C70  1  0.59185828  0.90035429  0.51497724  1  0.055381  0  -0.014158  -0.12892  0  3.935033  0
C  C71  1  0.39093166  0.09197458  0.51943024  1  0.044593  0  -0.014192  -0.129484  0  3.935709  0
C  C72  1  0.54158868  0.95259560  0.43583394  1  -0.007508  0  -0.004111  0.071592  0  3.905682  0
C  C73  1  0.43873345  0.03910615  0.60313469  1  0.111391  0  0.014545  0.061218  0  3.985962  0
C  C74  1  0.44640676  0.04462248  0.43731342  1  -0.029147  0  -0.004782  0.070633  0  3.895529  0
C  C75  1  0.53805968  0.94808186  0.59896472  1  0.084934  0  0.014449  0.060642  0  3.995917  0
C  C76  1  0.55321873  0.95142226  0.32949049  1  -0.030929  0  -0.154897  -0.196012  0  3.869042  0
C  C77  1  0.44672388  0.05683436  0.32996975  1  -0.012639  0  -0.15615  -0.192678  0  3.866914  0
C  C78  1  0.00930033  0.49402139  0.09822777  1  0.090353  0  -0.015055  -0.130355  0  3.935828  0
C  C79  1  0.00231550  0.49244348  0.90656003  1  0.053893  0  -0.014819  -0.127916  0  3.936127  0
C  C80  1  0.93237777  0.57481778  0.04604415  1  -0.045433  0  -0.005189  0.070805  0  3.90479  0
C  C81  1  0.07796457  0.40503479  0.96188781  1  0.099356  0  0.014916  0.062408  0  3.985966  0
C  C82  1  0.92968580  0.57482173  0.95388506  1  -0.067521  0  -0.00371  0.071623  0  3.892132  0
C  C83  1  0.08365038  0.40776992  0.05264821  1  0.092496  0  0.014067  0.061182  0  3.995387  0
C  C84  1  0.83601691  0.68084666  0.04896705  1  -0.01937  0  -0.154803  -0.193587  0  3.864658  0
C  C85  1  0.83433387  0.68221656  0.94337165  1  -0.011958  0  -0.156531  -0.193709  0  3.869576  0
C  C86  1  0.96084910  0.01426306  0.11472820  1  -0.050991  0  -0.155135  -0.164461  0  3.837293  0
C  C87  1  0.95989858  0.12023692  0.00989514  1  0.002056  0  -0.157183  -0.166531  0  3.83283  0
C  C88  1  0.99962678  0.09082370  0.90683172  1  0.03318  0  -0.015492  0.02449  0  3.784206  0
C  C89  1  0.11639897  0.00580820  0.89435012  1  -0.020931  0  -0.162573  -0.174875  0  3.857611  0
C  C90  1  0.11694930  0.90010224  0.99880938  1  -0.057234  0  -0.158321  -0.168487  0  3.851715  0
C  C91  1  0.00049987  0.91160083  0.08441235  1  0.049805  0  -0.015312  0.01828  0  3.788512  0
C  C92  1  0.92335057  0.93251970  0.03153294  1  -0.026188  0  -0.164247  -0.17384  0  3.87392  0
C  C93  1  0.92328005  0.03762671  0.92681012  1  -0.009439  0  -0.169009  -0.181388  0  3.879289  0
C  C94  1  0.59481798  0.51524195  0.49181808  1  0.040543  0  -0.013787  -0.127487  0  3.914577  0
C  C95  1  0.39867258  0.51526114  0.49170813  1  0.02971  0  -0.014088  -0.127536  0  3.913991  0
C  C96  1  0.54302409  0.43679342  0.57082581  1  0.033284  0  -0.002772  0.07374  0  3.882216  0
C  C97  1  0.45076035  0.59542462  0.40891593  1  0.081506  0  0.012587  0.056171  0  3.989037  0
C  C98  1  0.44981753  0.43682721  0.57079400  1  0.010019  0  -0.00259  0.073626  0  3.881468  0
C  C99  1  0.54538663  0.59546506  0.40901206  1  0.039482  0  0.013123  0.057623  0  3.987789  0
C  C100  1  0.54901497  0.33435189  0.67320274  1  -0.04777  0  -0.152958  -0.19302  0  3.857708  0
C  C101  1  0.44379613  0.33439761  0.67318848  1  -0.033476  0  -0.153238  -0.192864  0  3.857104  0
Cl  Cl102  1  0.40757618  0.30301759  0.10380790  1  -0.164188  0  0.021107  -0.037275  0  1.817539  0
Cl  Cl103  1  0.62246207  0.28948509  0.92377362  1  -0.167201  0  0.013587  -0.045187  0  1.689895  0
Cl  Cl104  1  0.80967403  0.90064027  0.69893838  1  -0.16798  0  0.023641  -0.036456  0  1.842334  0
Cl  Cl105  1  0.82684577  0.08126753  0.71473649  1  -0.159917  0  0.023267  -0.031536  0  1.707881  0
Cl  Cl106  1  0.37909712  0.08212167  0.71448757  1  -0.165147  0  0.021356  -0.035064  0  1.70377  0
Cl  Cl107  1  0.59259327  0.90120235  0.69823119  1  -0.157523  0  0.023427  -0.036267  0  1.842426  0
Cl  Cl108  1  0.16419238  0.28890647  0.92414973  1  -0.16256  0  0.01376  -0.045094  0  1.684407  0
Cl  Cl109  1  0.18601082  0.30212988  0.10407458  1  -0.170044  0  0.021584  -0.036975  0  1.819241  0
Cl  Cl110  1  0.40210608  0.69744583  0.30208084  1  -0.171748  0  0.02924  -0.036733  0  1.76884  0
Cl  Cl111  1  0.59869805  0.69768193  0.30242065  1  -0.167828  0  0.029983  -0.036094  0  1.767886  0
O  O112  1  0.73422543  0.43407757  0.75355561  1  -1.180978  0  -0.367479  -0.629509  0  2.400185  0
O  O113  1  0.07248067  0.77067965  0.42538881  1  -1.169608  0  -0.336962  -0.596694  0  2.232079  0
O  O114  1  0.25917555  0.58249666  0.22897734  1  -1.161882  0  -0.339588  -0.601731  0  2.232872  0
O  O115  1  0.92518153  0.24131028  0.58119731  1  -1.178132  0  -0.365756  -0.627113  0  2.40875  0
O  O116  1  0.07369148  0.23723838  0.76685169  1  -1.182836  0  -0.353755  -0.623855  0  2.275145  0
O  O117  1  0.73737976  0.58565393  0.42473251  1  -1.184769  0  -0.365727  -0.635076  0  2.382981  0
O  O118  1  0.92579554  0.76754315  0.23080915  1  -1.184363  0  -0.354936  -0.626528  0  2.286986  0
O  O119  1  0.26406525  0.43086379  0.57552176  1  -1.168237  0  -0.332872  -0.590567  0  2.21542  0
O  O120  1  0.92019601  0.57851178  0.76964067  1  -1.16049  0  -0.337091  -0.594617  0  2.237226  0
O  O121  1  0.25898735  0.23081416  0.43251501  1  -1.168154  0  -0.340815  -0.600296  0  2.238357  0
O  O122  1  0.07899595  0.42655501  0.24092358  1  -1.180892  0  -0.362956  -0.618813  0  2.400947  0
O  O123  1  0.73660710  0.75631398  0.58195322  1  -1.184526  0  -0.367564  -0.624903  0  2.40265  0
O  O124  1  0.25224195  0.24097931  0.58238951  1  -1.169137  0  -0.366819  -0.627337  0  2.40982  0
O  O125  1  0.93004243  0.58161195  0.22935978  1  -1.170389  0  -0.339755  -0.601788  0  2.234172  0
O  O126  1  0.73200669  0.77079658  0.42539143  1  -1.169117  0  -0.337185  -0.597329  0  2.230085  0
O  O127  1  0.07859684  0.43421515  0.75367778  1  -1.1827  0  -0.367665  -0.62948  0  2.401374  0
O  O128  1  0.92359435  0.23838172  0.76414627  1  -1.184216  0  -0.354014  -0.619582  0  2.295542  0
O  O129  1  0.25282708  0.58572632  0.42455401  1  -1.181302  0  -0.365314  -0.634789  0  2.382481  0
O  O130  1  0.07590249  0.77012121  0.22961387  1  -1.184625  0  -0.354401  -0.63091  0  2.263574  0
O  O131  1  0.73017830  0.43064757  0.57548132  1  -1.169826  0  -0.33308  -0.590658  0  2.216601  0
O  O132  1  0.07920397  0.23066025  0.43206025  1  -1.17381  0  -0.34202  -0.601874  0  2.237097  0
O  O133  1  0.73232053  0.57840344  0.76949423  1  -1.164979  0  -0.337271  -0.594144  0  2.238541  0
O  O134  1  0.92560549  0.75649673  0.58183547  1  -1.184314  0  -0.367337  -0.625181  0  2.401838  0
O  O135  1  0.25449257  0.42680114  0.24115050  1  -1.168296  0  -0.363763  -0.619662  0  2.400046  0
O  O136  1  0.93239704  0.43693150  0.43363596  1  -1.233689  0  -0.693067  -1.067953  0  2.363266  0
O  O137  1  0.19779049  0.43694689  0.43380969  1  -1.228339  0  -0.691582  -1.066737  0  2.361025  0
O  O138  1  0.93180710  0.70615579  0.43090987  1  -1.231304  0  -0.690738  -1.065464  0  2.359794  0
O  O139  1  0.93101691  0.43669367  0.70200788  1  -1.234759  0  -0.698204  -1.072784  0  2.38022  0
O  O140  1  0.04702104  0.55389237  0.54772352  1  -1.20004  0  -0.788883  -1.147433  0  2.129468  0
O  O141  1  0.85199647  0.55389141  0.54782953  1  -1.198644  0  -0.790311  -1.148208  0  2.130934  0
O  O142  1  0.04794034  0.55349846  0.35150540  1  -1.19649  0  -0.78571  -1.145121  0  2.120398  0
O  O143  1  0.04693306  0.35460149  0.55237754  1  -1.201176  0  -0.792014  -1.150699  0  2.135082  0
