# generated using pymatgen
data_CuH24C16(N6Cl)2
_symmetry_space_group_name_H-M   'P 1'
_cell_length_a   7.43829772
_cell_length_b   8.68371742
_cell_length_c   17.62127052
_cell_angle_alpha   89.99984797
_cell_angle_beta   90.00001244
_cell_angle_gamma   115.16748195
_symmetry_Int_Tables_number   1
_chemical_formula_structural   CuH24C16(N6Cl)2
_chemical_formula_sum   'Cu2 H48 C32 N24 Cl4'
_cell_volume   1030.14399542
_cell_formula_units_Z   2
loop_
 _symmetry_equiv_pos_site_id
 _symmetry_equiv_pos_as_xyz
  1  'x, y, z'
loop_
 _atom_site_type_symbol
 _atom_site_label
 _atom_site_symmetry_multiplicity
 _atom_site_fract_x
 _atom_site_fract_y
 _atom_site_fract_z
 _atom_site_occupancy
 _atom_site_hle17_ddec_charge
 _atom_site_hle17_ddec_spin_density
 _atom_site_hle17_ddec_sum_bond_order
 _atom_site_hle17_magmom
 _atom_site_hse06_10hf_ddec_charge
 _atom_site_hse06_10hf_ddec_spin_density
 _atom_site_hse06_10hf_ddec_sum_bond_order
 _atom_site_hse06_10hf_magmom
 _atom_site_hse06_ddec_charge
 _atom_site_hse06_ddec_spin_density
 _atom_site_hse06_ddec_sum_bond_order
 _atom_site_hse06_magmom
 _atom_site_pbe_cm5_charge
 _atom_site_pbe_ddec_charge
 _atom_site_pbe_ddec_spin_density
 _atom_site_pbe_ddec_sum_bond_order
 _atom_site_pbe_magmom
Cu  Cu0  1  0.49999927  0.99999919  0.49999964  1  0.789196  0.714187  1.929209  0.548  0.749631  0.786869  2.303424  0.645  0.827186  0.842461  2.250382  0.718  0.743452  0.700705  0.74693  2.340344  0.596
Cu  Cu1  1  0.49999777  0.49999868  0.00000026  1  0.789233  0.714195  1.929165  0.548  0.749624  0.786867  2.303449  0.645  0.827203  0.842468  2.250279  0.718  0.743448  0.700739  0.746932  2.340326  0.596
H  H2  1  0.32321352  0.92232851  0.32968449  1  0.097441  -0.000156  0.937263  0.0  0.106188  1.3e-05  0.99826  0.0  0.107825  -5e-06  0.995915  0.0  0.130091  0.104821  3.7e-05  1.000091  0.0
H  H3  1  0.67678455  0.57767109  0.82968443  1  0.097449  -0.000156  0.937264  0.0  0.106197  1.3e-05  0.998254  0.0  0.107835  -5e-06  0.995909  0.0  0.130096  0.10483  3.7e-05  1.000086  0.0
H  H4  1  0.67678655  0.07767206  0.67031544  1  0.09743  -0.000153  0.937266  0.0  0.10617  1.3e-05  0.998279  0.0  0.107808  -5e-06  0.995933  0.0  0.130067  0.104802  3.7e-05  1.000113  0.0
H  H5  1  0.32321489  0.42232820  0.17031720  1  0.097416  -0.000154  0.937308  0.0  0.106169  1.3e-05  0.998294  0.0  0.107807  -5e-06  0.99595  0.0  0.130098  0.104801  3.7e-05  1.000126  0.0
H  H6  1  0.82794744  0.88439174  0.42074835  1  0.115401  -0.000118  0.974358  0.0  0.118791  3.4e-05  1.046137  0.0  0.121788  1.7e-05  1.041504  0.0  0.123451  0.116255  -7e-06  1.049861  0.0
H  H7  1  0.17205182  0.61560475  0.92074876  1  0.115452  -0.000123  0.974292  0.0  0.118835  3.3e-05  1.046094  0.0  0.121831  1.7e-05  1.041463  0.0  0.123458  0.116298  -7e-06  1.049819  0.0
H  H8  1  0.17205334  0.11560756  0.57925158  1  0.115402  -0.000118  0.974351  0.0  0.118799  3.3e-05  1.046129  0.0  0.121795  1.7e-05  1.041498  0.0  0.123451  0.116263  -7e-06  1.049852  0.0
H  H9  1  0.82794439  0.38439073  0.07925117  1  0.115357  -0.000116  0.974392  0.0  0.118781  3.3e-05  1.046135  0.0  0.121773  1.7e-05  1.04151  0.0  0.123456  0.116244  -7e-06  1.049858  0.0
H  H10  1  0.71687585  0.66425951  0.23550078  1  0.083482  9.1e-05  0.943664  0.0  0.096358  7.8e-05  1.009902  0.0  0.097096  3.7e-05  1.01034  0.0  0.112029  0.095847  9.9e-05  1.009692  0.0
H  H11  1  0.28312435  0.83574450  0.73550205  1  0.083464  9.1e-05  0.94368  0.0  0.096322  7.8e-05  1.009929  0.0  0.097058  3.7e-05  1.010368  0.0  0.112032  0.095814  9.9e-05  1.009719  0.0
H  H12  1  0.28312153  0.33574105  0.76449802  1  0.083502  8.8e-05  0.943674  0.0  0.096354  7.8e-05  1.009928  0.0  0.097092  3.7e-05  1.010367  0.0  0.112029  0.095845  9.9e-05  1.009719  0.0
H  H13  1  0.71688173  0.16425735  0.26449845  1  0.083482  9.5e-05  0.943673  0.0  0.09633  7.8e-05  1.009921  0.0  0.097067  3.7e-05  1.010362  0.0  0.112025  0.095822  9.9e-05  1.009712  0.0
H  H14  1  0.88721259  0.72530812  0.31281753  1  0.086585  -1.2e-05  0.93823  0.0  0.097086  1.4e-05  1.010494  0.0  0.098107  1e-05  1.0096  0.0  0.110693  0.096053  2.4e-05  1.011526  0.0
H  H15  1  0.11278543  0.77469413  0.81281830  1  0.086538  -1.4e-05  0.938263  0.0  0.097045  1.5e-05  1.010514  0.0  0.098064  1e-05  1.009622  0.0  0.110687  0.096011  2.4e-05  1.011547  0.0
H  H16  1  0.11278416  0.27469116  0.68718126  1  0.086573  -1.2e-05  0.938234  0.0  0.097081  1.5e-05  1.010485  0.0  0.098101  1e-05  1.009591  0.0  0.110685  0.096047  2.4e-05  1.011516  0.0
H  H17  1  0.88721589  0.22530898  0.18718106  1  0.086545  -1.1e-05  0.938252  0.0  0.09705  1.5e-05  1.010494  0.0  0.098069  1e-05  1.009601  0.0  0.110678  0.096016  2.4e-05  1.011526  0.0
H  H18  1  0.07851227  0.00866909  0.25518478  1  0.065425  9e-06  0.945473  0.0  0.084783  1.6e-05  1.006204  0.0  0.085295  1e-05  1.00686  0.0  0.090016  0.084299  1.2e-05  1.00595  0.0
H  H19  1  0.92148742  0.49133571  0.75518590  1  0.06543  9e-06  0.945476  0.0  0.084795  1.6e-05  1.006213  0.0  0.085308  1e-05  1.006874  0.0  0.090024  0.084313  1.2e-05  1.005956  0.0
H  H20  1  0.92148780  0.99133147  0.74481515  1  0.065418  1e-05  0.945487  0.0  0.084783  1.6e-05  1.006216  0.0  0.085295  1e-05  1.006875  0.0  0.090013  0.084299  1.2e-05  1.005963  0.0
H  H21  1  0.07851391  0.50866740  0.24481459  1  0.065421  1.2e-05  0.945486  0.0  0.084782  1.6e-05  1.00622  0.0  0.085293  1.1e-05  1.006879  0.0  0.090019  0.084298  1.2e-05  1.005966  0.0
H  H22  1  0.90125664  0.96475930  0.18156804  1  0.081079  -2.3e-05  0.944836  0.0  0.098096  -1.1e-05  1.007753  0.0  0.09885  -1e-05  1.008556  0.0  0.095913  0.097232  -1.2e-05  1.007657  0.0
H  H23  1  0.09874442  0.53524379  0.68156912  1  0.081092  -1.7e-05  0.944837  0.0  0.098132  -1.1e-05  1.007738  0.0  0.098888  -1e-05  1.008542  0.0  0.095934  0.097268  -1.1e-05  1.007642  0.0
H  H24  1  0.09874540  0.03524254  0.81843132  1  0.081091  -1.7e-05  0.944842  0.0  0.098111  -1.1e-05  1.007763  0.0  0.098866  -9e-06  1.008567  0.0  0.095923  0.097248  -1.1e-05  1.007666  0.0
H  H25  1  0.90125628  0.46475805  0.31843080  1  0.081108  -1.6e-05  0.944823  0.0  0.098125  -1.1e-05  1.00774  0.0  0.098879  -9e-06  1.008543  0.0  0.095925  0.097262  -1.1e-05  1.007643  0.0
H  H26  1  0.14511300  0.76025442  0.21132366  1  0.062856  6e-06  0.957274  0.0  0.079745  8e-06  1.022916  0.0  0.080432  6e-06  1.023622  0.0  0.090397  0.079229  4e-06  1.022475  0.0
H  H27  1  0.85488987  0.73975229  0.71132170  1  0.062913  8e-06  0.95722  0.0  0.079752  8e-06  1.022913  0.0  0.080437  6e-06  1.02362  0.0  0.090391  0.079244  4e-06  1.022464  0.0
H  H28  1  0.85488770  0.23974741  0.78867627  1  0.062881  4e-06  0.95726  0.0  0.079758  8e-06  1.022916  0.0  0.080445  5e-06  1.023619  0.0  0.090396  0.079229  4e-06  1.022489  0.0
H  H29  1  0.14511145  0.26025082  0.28867823  1  0.062867  4e-06  0.957277  0.0  0.079727  8e-06  1.022946  0.0  0.080415  5e-06  1.023655  0.0  0.090376  0.079219  4e-06  1.022497  0.0
H  H30  1  0.97968827  0.72988138  0.13402793  1  0.073368  -5.7e-05  0.949752  0.0  0.089231  -2e-05  1.014738  0.0  0.089493  -2.3e-05  1.016105  0.0  0.088116  0.088928  -5e-06  1.013879  0.0
H  H31  1  0.02031300  0.77011947  0.63402642  1  0.073323  -5.2e-05  0.949783  0.0  0.089199  -2e-05  1.014745  0.0  0.089458  -2.3e-05  1.016116  0.0  0.088097  0.088896  -5e-06  1.013887  0.0
H  H32  1  0.02031314  0.27011919  0.86597143  1  0.07336  -5.8e-05  0.949776  0.0  0.089222  -2e-05  1.014764  0.0  0.089482  -2.3e-05  1.016133  0.0  0.088118  0.08892  -5e-06  1.013902  0.0
H  H33  1  0.97968832  0.22988364  0.36597351  1  0.073376  -6.2e-05  0.949729  0.0  0.089222  -2e-05  1.014725  0.0  0.089485  -2.3e-05  1.016096  0.0  0.088105  0.088919  -5e-06  1.013867  0.0
H  H34  1  0.19967519  0.01294410  0.08226422  1  0.08572  -0.00011  0.930899  0.0  0.096924  -6.7e-05  1.001003  0.0  0.097052  -5.7e-05  1.001105  0.0  0.106418  0.096729  -7.8e-05  1.001204  0.0
H  H35  1  0.80032253  0.48705416  0.58226590  1  0.085737  -0.000109  0.930914  0.0  0.096929  -6.7e-05  1.001018  0.0  0.097055  -5.7e-05  1.001123  0.0  0.106423  0.096736  -7.8e-05  1.001219  0.0
H  H36  1  0.80032290  0.98705519  0.91773571  1  0.085727  -0.000107  0.930904  0.0  0.096922  -6.7e-05  1.001015  0.0  0.097049  -5.7e-05  1.001118  0.0  0.106426  0.096729  -7.8e-05  1.001217  0.0
H  H37  1  0.19967952  0.51294768  0.41773459  1  0.085739  -0.000105  0.93092  0.0  0.096931  -6.7e-05  1.001025  0.0  0.097059  -5.7e-05  1.001125  0.0  0.106436  0.096738  -7.8e-05  1.001225  0.0
H  H38  1  0.35152053  0.06020677  0.16458402  1  0.081147  0.000168  0.948903  0.0  0.093959  0.000146  1.015403  0.0  0.094609  9.1e-05  1.016028  0.0  0.113668  0.093446  0.000171  1.01498  0.0
H  H39  1  0.64848021  0.43979479  0.66458576  1  0.081153  0.000166  0.948914  0.0  0.093963  0.000146  1.015406  0.0  0.094612  9.1e-05  1.016033  0.0  0.113648  0.093449  0.000171  1.014984  0.0
H  H40  1  0.64848089  0.93979380  0.83541534  1  0.081158  0.000167  0.948929  0.0  0.093969  0.000146  1.015422  0.0  0.094619  9.1e-05  1.016047  0.0  0.113662  0.093456  0.000171  1.014999  0.0
H  H41  1  0.35152120  0.56020577  0.33541474  1  0.081177  0.00017  0.948904  0.0  0.093979  0.000146  1.015406  0.0  0.094631  9.1e-05  1.016028  0.0  0.113672  0.093466  0.000171  1.014983  0.0
H  H42  1  0.17680693  0.62455287  0.06499321  1  0.10636  -9.6e-05  0.973422  0.0  0.110025  8.4e-05  1.045045  0.0  0.112247  6.7e-05  1.041754  0.0  0.123548  0.108098  9.7e-05  1.04769  0.0
H  H43  1  0.82319192  0.87544587  0.56499221  1  0.106375  -9.7e-05  0.973433  0.0  0.110035  8.4e-05  1.045075  0.0  0.112255  6.7e-05  1.041787  0.0  0.123538  0.108107  9.7e-05  1.04772  0.0
H  H44  1  0.82319251  0.37544643  0.93500729  1  0.10635  -9.9e-05  0.973439  0.0  0.110018  8.4e-05  1.045061  0.0  0.112239  6.7e-05  1.04177  0.0  0.123542  0.10809  9.7e-05  1.047706  0.0
H  H45  1  0.17680681  0.12455470  0.43500772  1  0.106349  -9.8e-05  0.973446  0.0  0.110011  8.4e-05  1.045081  0.0  0.112233  6.7e-05  1.041789  0.0  0.123544  0.108084  9.7e-05  1.047726  0.0
H  H46  1  0.79626262  0.89788000  0.04585426  1  0.100133  -0.000114  0.950911  0.0  0.105925  2.5e-05  1.016593  0.0  0.107911  1e-05  1.013574  0.0  0.123297  0.104104  5.6e-05  1.019321  0.0
H  H47  1  0.20373565  0.60211758  0.54585640  1  0.100173  -0.00011  0.950873  0.0  0.1059  2.5e-05  1.01662  0.0  0.107883  1e-05  1.013605  0.0  0.123307  0.104082  5.6e-05  1.01935  0.0
H  H48  1  0.20373556  0.10211675  0.95414454  1  0.100169  -0.000109  0.950875  0.0  0.105896  2.5e-05  1.016621  0.0  0.107879  1e-05  1.013607  0.0  0.123305  0.104079  5.6e-05  1.019351  0.0
H  H49  1  0.79626388  0.39787917  0.45414410  1  0.100172  -0.000111  0.950864  0.0  0.105908  2.5e-05  1.016603  0.0  0.107893  1e-05  1.013586  0.0  0.123299  0.10409  5.6e-05  1.019333  0.0
C  C50  1  0.45767639  0.90322856  0.33393108  1  0.194594  -0.004753  3.713609  -0.002  0.145464  -0.001098  4.009235  0.0  0.159301  -0.002002  4.020822  -0.001  0.143197  0.136361  -0.000782  4.001289  0.0
C  C51  1  0.54232373  0.59676975  0.83393156  1  0.194591  -0.004739  3.713539  -0.002  0.145495  -0.001099  4.009154  0.0  0.159325  -0.001996  4.020748  -0.001  0.143199  0.13639  -0.000782  4.001214  0.0
C  C52  1  0.54232511  0.09676947  0.66606828  1  0.194605  -0.004789  3.713474  -0.002  0.145494  -0.001099  4.009083  0.0  0.159328  -0.002  4.02067  -0.001  0.143219  0.13639  -0.000782  4.001138  0.0
C  C53  1  0.45767706  0.40322955  0.16607007  1  0.194614  -0.00477  3.713554  -0.002  0.145501  -0.001098  4.009165  0.0  0.159331  -0.002  4.020758  -0.001  0.143188  0.136397  -0.000782  4.001222  0.0
C  C54  1  0.71250417  0.88680228  0.38308080  1  0.177647  -0.00691  3.608796  -0.003  0.101252  -0.002104  3.880205  -0.001  0.11759  -0.003198  3.891464  -0.001  0.165679  0.091085  -0.00112  3.87283  0.0
C  C55  1  0.28749385  0.61319444  0.88308066  1  0.177563  -0.006869  3.608749  -0.003  0.101212  -0.002105  3.88017  -0.001  0.11754  -0.003193  3.891439  -0.001  0.16566  0.091046  -0.00112  3.872798  0.0
C  C56  1  0.28749661  0.11319702  0.61691857  1  0.177587  -0.006924  3.608771  -0.003  0.101189  -0.002105  3.880242  -0.001  0.117523  -0.003194  3.891506  -0.001  0.165661  0.091022  -0.00112  3.872864  0.0
C  C57  1  0.71250102  0.38680103  0.11691984  1  0.177658  -0.006923  3.608758  -0.003  0.101243  -0.002104  3.880263  -0.001  0.11757  -0.003194  3.891535  -0.001  0.16567  0.091075  -0.00112  3.872891  0.0
C  C58  1  0.81730506  0.77252734  0.26933085  1  -0.015233  0.000758  3.624299  0.001  -0.089599  0.000584  3.882709  0.001  -0.085992  0.000438  3.893586  0.001  -0.050548  -0.091523  0.00069  3.874919  0.001
C  C59  1  0.18269308  0.72747518  0.76933168  1  -0.015186  0.000763  3.624372  0.001  -0.089519  0.000583  3.882823  0.001  -0.085911  0.000439  3.893706  0.001  -0.05054  -0.091447  0.00069  3.875037  0.001
C  C60  1  0.18269438  0.22747195  0.73066794  1  -0.015303  0.000768  3.624331  0.001  -0.089619  0.000583  3.882723  0.001  -0.086015  0.000439  3.893607  0.001  -0.050541  -0.091545  0.00069  3.874935  0.001
C  C61  1  0.81730762  0.27252665  0.23066824  1  -0.015252  0.000752  3.624254  0.001  -0.089544  0.000584  3.88265  0.001  -0.085942  0.000438  3.893532  0.001  -0.050527  -0.091472  0.00069  3.874865  0.001
C  C62  1  0.97284488  0.90655512  0.21923166  1  -0.120345  -2.3e-05  3.664941  0.0  -0.161746  8e-06  3.923798  0.0  -0.163499  -4e-06  3.938291  0.0  -0.162725  -0.160225  2e-05  3.913665  0.0
C  C63  1  0.02715608  0.59344772  0.71923209  1  -0.120391  -3.3e-05  3.665094  0.0  -0.161829  9e-06  3.923975  0.0  -0.163595  -6e-06  3.938482  0.0  -0.162771  -0.160307  2e-05  3.913843  0.0
C  C64  1  0.02715519  0.09344544  0.78076770  1  -0.120352  -3.7e-05  3.664994  0.0  -0.161769  8e-06  3.923857  0.0  -0.16353  -5e-06  3.938358  0.0  -0.162735  -0.160248  2e-05  3.913721  0.0
C  C65  1  0.97284596  0.40655412  0.28076841  1  -0.12042  -5e-05  3.664985  0.0  -0.161837  9e-06  3.923824  0.0  -0.163587  -6e-06  3.938321  0.0  -0.162779  -0.160316  2e-05  3.913694  0.0
C  C66  1  0.08363482  0.82576898  0.17291378  1  -0.126093  -3.7e-05  3.688748  0.0  -0.16535  1.9e-05  3.947307  0.0  -0.167453  -9e-06  3.962685  0.0  -0.16376  -0.163489  5.5e-05  3.936292  0.0
C  C67  1  0.91636626  0.67423416  0.67291362  1  -0.126121  -6.4e-05  3.688796  0.0  -0.165343  1.9e-05  3.947346  0.0  -0.16744  -8e-06  3.962722  0.0  -0.163755  -0.163488  5.5e-05  3.936329  0.0
C  C68  1  0.91636525  0.17423159  0.82708615  1  -0.126102  -2.9e-05  3.688766  0.0  -0.165344  1.9e-05  3.947327  0.0  -0.167441  -8e-06  3.962699  0.0  -0.163754  -0.163473  5.5e-05  3.936313  0.0
C  C69  1  0.08363641  0.32576895  0.32708687  1  -0.126076  -1.1e-05  3.688802  0.0  -0.16528  1.9e-05  3.947308  0.0  -0.167396  -8e-06  3.962704  0.0  -0.163712  -0.163426  5.5e-05  3.936293  0.0
C  C70  1  0.25423803  0.95691186  0.12767065  1  -0.008231  0.000644  3.611824  0.001  -0.079807  0.000514  3.862919  0.001  -0.076291  0.000394  3.874503  0.001  -0.050572  -0.081986  0.000702  3.854859  0.001
C  C71  1  0.74576263  0.54308775  0.62767179  1  -0.008259  0.000652  3.611832  0.001  -0.079808  0.000515  3.862892  0.001  -0.076297  0.000394  3.874479  0.001  -0.050542  -0.081985  0.000702  3.854828  0.001
C  C72  1  0.74576141  0.04308744  0.87232871  1  -0.008268  0.000642  3.611854  0.001  -0.079827  0.000515  3.862942  0.001  -0.076312  0.000394  3.874524  0.001  -0.05058  -0.082005  0.000702  3.854879  0.001
C  C73  1  0.25423942  0.45691409  0.37232871  1  -0.008304  0.000633  3.611891  0.001  -0.079849  0.000516  3.862956  0.001  -0.076327  0.000394  3.874538  0.001  -0.050596  -0.082029  0.000702  3.854896  0.001
C  C74  1  0.32673471  0.72421692  0.06906380  1  0.167872  -0.006691  3.625331  -0.003  0.094951  -0.001925  3.88947  0.0  0.109838  -0.00315  3.902444  -0.001  0.157126  0.085493  -0.001107  3.880789  0.0
C  C75  1  0.67326404  0.77578433  0.56906292  1  0.167838  -0.006717  3.625329  -0.003  0.094902  -0.001926  3.889461  0.0  0.109787  -0.003151  3.90244  -0.001  0.157126  0.085447  -0.001107  3.880775  0.0
C  C76  1  0.67326473  0.27578237  0.93093613  1  0.167925  -0.006684  3.625316  -0.003  0.095  -0.001924  3.889459  0.0  0.109887  -0.003151  3.902433  -0.001  0.157157  0.085542  -0.001106  3.880777  0.0
C  C77  1  0.32673405  0.22421496  0.43093701  1  0.167896  -0.006698  3.625298  -0.003  0.094971  -0.001925  3.88944  0.0  0.109862  -0.00315  3.90241  -0.001  0.157136  0.085512  -0.001107  3.880752  0.0
C  C78  1  0.64228926  0.86684807  0.05936862  1  0.19365  -0.005068  3.687691  -0.002  0.144072  -0.001131  3.985108  0.0  0.157272  -0.002019  3.997898  -0.001  0.139508  0.135575  -0.000607  3.976378  0.001
C  C79  1  0.35770827  0.63315069  0.55936903  1  0.193683  -0.005099  3.687555  -0.002  0.144147  -0.001131  3.984971  0.0  0.157348  -0.00202  3.997761  -0.001  0.139533  0.135641  -0.000608  3.976251  0.001
C  C80  1  0.35770821  0.13314995  0.94063131  1  0.193688  -0.005104  3.687608  -0.002  0.144165  -0.001131  3.985032  0.0  0.157366  -0.00202  3.997821  -0.001  0.139537  0.13566  -0.000608  3.97631  0.001
C  C81  1  0.64229118  0.36684860  0.44063147  1  0.193673  -0.005107  3.687558  -0.002  0.144139  -0.00113  3.984977  0.0  0.157341  -0.002021  3.997765  -0.001  0.139544  0.135634  -0.000608  3.976256  0.001
N  N82  1  0.56534888  0.93148313  0.39928844  1  -0.372821  0.071796  3.325732  0.097  -0.331904  0.050654  3.646019  0.071  -0.365597  0.041017  3.666439  0.061  -0.368712  -0.310769  0.056807  3.63304  0.076
N  N83  1  0.43464909  0.56851349  0.89928838  1  -0.37278  0.071785  3.325669  0.096  -0.331922  0.050656  3.646017  0.071  -0.365615  0.041014  3.666416  0.061  -0.368715  -0.310796  0.056808  3.633043  0.076
N  N84  1  0.43464921  0.06851617  0.60071092  1  -0.372778  0.071807  3.325616  0.097  -0.331877  0.050656  3.645927  0.071  -0.365572  0.041016  3.666349  0.061  -0.3687  -0.310741  0.056808  3.632946  0.076
N  N85  1  0.56534909  0.43148326  0.10071212  1  -0.372854  0.071799  3.325682  0.097  -0.331922  0.050655  3.645988  0.071  -0.365614  0.041015  3.666388  0.061  -0.368718  -0.310796  0.056807  3.633012  0.076
N  N86  1  0.69300529  0.83577715  0.31049412  1  0.043862  0.002081  3.557067  0.003  0.167156  0.00141  3.741095  0.002  0.157189  0.001085  3.763003  0.002  -0.136313  0.172447  0.001726  3.728093  0.002
N  N87  1  0.30699211  0.66422384  0.81049448  1  0.044043  0.002068  3.556896  0.003  0.167249  0.00141  3.741013  0.002  0.157309  0.001084  3.76287  0.002  -0.136255  0.172539  0.001726  3.728011  0.002
N  N88  1  0.30699415  0.16422214  0.68950524  1  0.044042  0.002082  3.556916  0.003  0.167266  0.00141  3.741026  0.002  0.157317  0.001083  3.762899  0.002  -0.13628  0.172556  0.001727  3.728024  0.002
N  N89  1  0.69300661  0.33577672  0.18950544  1  0.044104  0.002082  3.556823  0.003  0.167263  0.001409  3.741016  0.002  0.157328  0.001085  3.762866  0.002  -0.136264  0.172554  0.001726  3.728014  0.002
N  N90  1  0.53065518  0.84439963  0.27789827  1  -0.278696  0.007478  2.838078  0.009  -0.285045  0.003579  3.112941  0.004  -0.292567  0.00249  3.124377  0.003  -0.231285  -0.279517  0.004974  3.105298  0.006
N  N91  1  0.46934365  0.65560157  0.77789923  1  -0.278814  0.007474  2.83806  0.009  -0.285133  0.003581  3.112924  0.004  -0.292664  0.002488  3.124365  0.003  -0.231317  -0.279604  0.004975  3.105286  0.006
N  N92  1  0.46934426  0.15559967  0.72210109  1  -0.278788  0.007495  2.838052  0.009  -0.285118  0.003579  3.112924  0.004  -0.292645  0.00249  3.124361  0.003  -0.231309  -0.279589  0.004974  3.105282  0.006
N  N93  1  0.53065642  0.34439899  0.22210183  1  -0.278807  0.00749  2.837992  0.009  -0.285123  0.00358  3.112895  0.004  -0.292651  0.002489  3.124332  0.003  -0.231315  -0.279593  0.004974  3.105252  0.006
N  N94  1  0.37951254  0.88260060  0.09505672  1  0.050081  0.001763  3.558594  0.003  0.171222  0.001311  3.7442  0.002  0.162676  0.000952  3.764854  0.002  -0.131706  0.176253  0.001547  3.730793  0.002
N  N95  1  0.62048623  0.61739794  0.59505717  1  0.050156  0.001777  3.558463  0.003  0.171284  0.00131  3.744104  0.002  0.162772  0.000954  3.764695  0.002  -0.131676  0.176315  0.001547  3.730695  0.002
N  N96  1  0.62048690  0.11739869  0.90494264  1  0.050109  0.001758  3.558595  0.003  0.171244  0.001312  3.744209  0.002  0.1627  0.000952  3.76486  0.002  -0.1317  0.176275  0.001547  3.730802  0.002
N  N97  1  0.37951321  0.38260135  0.40494333  1  0.050107  0.001763  3.558532  0.003  0.171231  0.001309  3.744161  0.002  0.162681  0.000954  3.764819  0.002  -0.131706  0.176262  0.001547  3.730752  0.002
N  N98  1  0.57966464  0.97558926  0.08936525  1  -0.258439  0.009754  2.84707  0.012  -0.268879  0.004441  3.130625  0.006  -0.277769  0.00299  3.144561  0.004  -0.219286  -0.262359  0.006033  3.120981  0.007
N  N99  1  0.42033415  0.52440932  0.58936694  1  -0.258502  0.009758  2.846944  0.012  -0.26895  0.004443  3.130509  0.006  -0.277846  0.002988  3.144438  0.004  -0.219318  -0.262431  0.006033  3.120865  0.007
N  N100  1  0.42033480  0.02441004  0.91063355  1  -0.258506  0.009767  2.847017  0.012  -0.268947  0.004441  3.130564  0.006  -0.277838  0.002991  3.144498  0.004  -0.21932  -0.262427  0.006033  3.120921  0.007
N  N101  1  0.57966529  0.47558997  0.41063356  1  -0.258492  0.009775  2.847008  0.012  -0.268929  0.004442  3.130559  0.006  -0.27782  0.002989  3.144495  0.004  -0.219312  -0.262409  0.006033  3.120915  0.007
N  N102  1  0.49093205  0.71003111  0.04638554  1  -0.374099  0.074295  3.292521  0.1  -0.33158  0.052611  3.607834  0.074  -0.364982  0.042484  3.629098  0.064  -0.364815  -0.310411  0.05921  3.594045  0.08
N  N103  1  0.50906622  0.78996646  0.54638576  1  -0.374113  0.074312  3.292634  0.1  -0.33157  0.052611  3.607906  0.074  -0.364977  0.042484  3.629199  0.064  -0.364836  -0.310394  0.05921  3.594113  0.08
N  N104  1  0.50906676  0.28996691  0.95361439  1  -0.374151  0.074304  3.29255  0.1  -0.331622  0.052611  3.607834  0.074  -0.365024  0.042485  3.629096  0.064  -0.364833  -0.310455  0.059211  3.594053  0.08
N  N105  1  0.49093187  0.21003283  0.45361474  1  -0.374105  0.074305  3.292537  0.1  -0.331584  0.052612  3.607826  0.074  -0.364987  0.042485  3.629111  0.064  -0.364834  -0.310411  0.059212  3.594041  0.08
Cl  Cl106  1  0.08539681  0.80291016  0.46352678  1  -0.707374  -0.001755  0.607621  0.0  -0.662127  -0.00263  0.819787  -0.001  -0.674009  -0.002856  0.800323  -0.001  -0.405147  -0.652325  -0.002014  0.833961  0.0
Cl  Cl107  1  0.91460082  0.69709114  0.96352716  1  -0.707381  -0.001757  0.607609  0.0  -0.662126  -0.002628  0.819773  -0.001  -0.67401  -0.002857  0.800298  -0.001  -0.405149  -0.652327  -0.002014  0.833943  0.0
Cl  Cl108  1  0.91460191  0.19709040  0.53647315  1  -0.707378  -0.001756  0.607622  0.0  -0.662127  -0.002629  0.819787  -0.001  -0.674008  -0.002857  0.800322  -0.001  -0.405144  -0.652324  -0.002014  0.833962  0.0
Cl  Cl109  1  0.08539728  0.30290815  0.03647334  1  -0.70737  -0.001755  0.607619  0.0  -0.662126  -0.002629  0.819788  -0.001  -0.674008  -0.002856  0.800315  -0.001  -0.405153  -0.652327  -0.002014  0.833956  0.0
