# generated using pymatgen
data_Zn4H16C34O13F4
_symmetry_space_group_name_H-M   'P 1'
_cell_length_a   22.23782090
_cell_length_b   22.32496291
_cell_length_c   22.23797310
_cell_angle_alpha   109.58588210
_cell_angle_beta   109.08660151
_cell_angle_gamma   109.58563437
_symmetry_Int_Tables_number   1
_chemical_formula_structural   Zn4H16C34O13F4
_chemical_formula_sum   'Zn8 H32 C68 O26 F8'
_cell_volume   8514.88796376
_cell_formula_units_Z   2
loop_
 _symmetry_equiv_pos_site_id
 _symmetry_equiv_pos_as_xyz
  1  'x, y, z'
loop_
 _atom_site_type_symbol
 _atom_site_label
 _atom_site_symmetry_multiplicity
 _atom_site_fract_x
 _atom_site_fract_y
 _atom_site_fract_z
 _atom_site_occupancy
 _atom_site_pbe_bader_charge
 _atom_site_pbe_bader_spin_density
 _atom_site_pbe_cm5_charge
 _atom_site_pbe_ddec_charge
 _atom_site_pbe_ddec_spin_density
 _atom_site_pbe_ddec_sum_bond_order
 _atom_site_pbe_magmom
Zn  Zn0  1  0.54349710  0.93627413  0.98209316  1  1.315787  0  0.673929  0.967384  0  2.359313  0
Zn  Zn1  1  0.98209113  0.93627345  0.54349517  1  1.315806  0  0.673928  0.967409  0  2.359293  0
Zn  Zn2  1  0.95416813  0.93627455  0.39276814  1  1.315007  0  0.673831  0.96718  0  2.359353  0
Zn  Zn3  1  0.39277055  0.93627712  0.95416880  1  1.314935  0  0.673854  0.967167  0  2.359409  0
Zn  Zn4  1  0.51952953  0.06331729  0.95755385  1  1.320556  0  0.677685  0.969055  0  2.364804  0
Zn  Zn5  1  0.95755425  0.06331551  0.51952983  1  1.320593  0  0.677652  0.968945  0  2.364796  0
Zn  Zn6  1  0.10576367  0.06331156  0.54378341  1  1.31963  0  0.677589  0.968884  0  2.364737  0
Zn  Zn7  1  0.54378285  0.06331249  0.10576345  1  1.31962  0  0.677588  0.968893  0  2.364719  0
H  H8  1  0.18208155  0.56877252  0.75800285  1  0.065981  0  0.115688  0.11988  0  0.97558  0
H  H9  1  0.75799535  0.56877329  0.18208477  1  0.065989  0  0.115679  0.119844  0  0.97569  0
H  H10  1  0.81077745  0.56878926  0.38669237  1  0.116365  0  0.115699  0.119997  0  0.975443  0
H  H11  1  0.38669031  0.56878837  0.81076733  1  0.11609  0  0.115739  0.120014  0  0.975611  0
H  H12  1  0.31795287  0.07236132  0.38675176  1  0.075605  0  0.117729  0.122543  0  0.972665  0
H  H13  1  0.38675105  0.07235994  0.31795083  1  0.075694  0  0.117715  0.122499  0  0.972726  0
H  H14  1  0.68807059  0.07471286  0.75687870  1  0.079029  0  0.117574  0.122122  0  0.972593  0
H  H15  1  0.75687580  0.07470917  0.68807028  1  0.07905  0  0.117598  0.122169  0  0.972713  0
H  H16  1  0.11344055  0.43151942  0.68944026  1  0.116258  0  0.115042  0.119334  0  0.976915  0
H  H17  1  0.68943365  0.43152035  0.11344106  1  0.116206  0  0.115019  0.119271  0  0.976952  0
H  H18  1  0.74208867  0.43153463  0.31808266  1  0.065755  0  0.115009  0.119259  0  0.976892  0
H  H19  1  0.31808199  0.43153561  0.74208375  1  0.065898  0  0.115013  0.119305  0  0.976897  0
H  H20  1  0.66350060  0.88634203  0.13294984  1  0.101782  0  0.106368  0.065814  0  0.9585  0
H  H21  1  0.13295577  0.88634337  0.66349797  1  0.101972  0  0.106337  0.065791  0  0.958443  0
H  H22  1  0.75337719  0.88634137  0.22283388  1  0.086515  0  0.106398  0.065423  0  0.958345  0
H  H23  1  0.22284143  0.88634408  0.75337823  1  0.08671  0  0.106261  0.065238  0  0.958398  0
H  H24  1  0.75678394  0.98957560  0.14195695  1  0.080653  0  0.103754  0.109718  0  0.969229  0
H  H25  1  0.14195483  0.98956569  0.75677984  1  0.080561  0  0.103793  0.109722  0  0.96932  0
H  H26  1  0.84761171  0.98957563  0.23278987  1  0.054508  0  0.103729  0.109666  0  0.969175  0
H  H27  1  0.23278586  0.98956624  0.84760456  1  0.054584  0  0.10383  0.109809  0  0.969336  0
H  H28  1  0.73370721  0.10801287  0.28437201  1  0.091424  0  0.104205  0.062229  0  0.955597  0
H  H29  1  0.28437433  0.10802056  0.73372200  1  0.091206  0  0.104195  0.06232  0  0.955564  0
H  H30  1  0.82363766  0.10801430  0.37430308  1  0.059268  0  0.104158  0.064874  0  0.952391  0
H  H31  1  0.37429843  0.10802170  0.82364641  1  0.058881  0  0.104176  0.062269  0  0.95561  0
H  H32  1  0.78680478  0.08113706  0.20380493  1  0.034124  0  0.102184  0.104782  0  0.964686  0
H  H33  1  0.20379748  0.08113220  0.78680547  1  0.034315  0  0.102184  0.104815  0  0.964755  0
H  H34  1  0.87733282  0.08113913  0.29433577  1  0.036461  0  0.10217  0.104757  0  0.9648  0
H  H35  1  0.29433166  0.08113381  0.87733501  1  0.036519  0  0.102195  0.104853  0  0.964734  0
H  H36  1  0.18206180  0.92684584  0.11324857  1  0.114898  0  0.114196  0.117555  0  0.978453  0
H  H37  1  0.11324890  0.92684679  0.18206390  1  0.114904  0  0.114193  0.117549  0  0.978454  0
H  H38  1  0.81126950  0.92468627  0.74245654  1  0.07401  0  0.114016  0.117823  0  0.978091  0
H  H39  1  0.74246137  0.92468814  0.81127284  1  0.073982  0  0.114043  0.117882  0  0.977985  0
C  C40  1  0.36048414  0.99955668  0.85987957  1  1.599226  0  0.235789  0.617882  0  4.110287  0
C  C41  1  0.85987912  0.99955568  0.36048163  1  1.599105  0  0.235717  0.617671  0  4.110538  0
C  C42  1  0.13966938  0.99955346  0.63906715  1  1.596123  0  0.235687  0.617816  0  4.110304  0
C  C43  1  0.63906756  0.99955400  0.13966987  1  1.596027  0  0.235682  0.617833  0  4.110407  0
C  C44  1  0.32737691  0.65477795  0.82737668  1  -0.203245  0  -0.018527  -0.030483  0  4.082419  0
C  C45  1  0.82737998  0.65477616  0.32737629  1  -0.203509  0  -0.018609  -0.03064  0  4.082416  0
C  C46  1  0.36079708  0.72162137  0.86080062  1  -0.048945  0  -0.03887  -0.184275  0  3.962938  0
C  C47  1  0.86079994  0.72161884  0.36079362  1  -0.048845  0  -0.038905  -0.184317  0  3.963026  0
C  C48  1  0.13929599  0.27857645  0.63928115  1  -0.043601  0  -0.044791  -0.192313  0  3.966507  0
C  C49  1  0.63927908  0.27857668  0.13929561  1  -0.043948  0  -0.044877  -0.192397  0  3.966534  0
C  C50  1  0.67276302  0.92088358  0.18746854  1  0.528557  0  0.026269  0.131362  0  3.801875  0
C  C51  1  0.18747301  0.92088387  0.67276132  1  0.527936  0  0.026279  0.131368  0  3.801876  0
C  C52  1  0.73339778  0.92088189  0.24810664  1  0.495801  0  0.026061  0.131666  0  3.80085  0
C  C53  1  0.24811124  0.92088345  0.73339828  1  0.495735  0  0.026214  0.131946  0  3.801036  0
C  C54  1  0.76877915  0.02591934  0.19706912  1  -0.035118  0  -0.149887  -0.172974  0  3.856765  0
C  C55  1  0.19706680  0.02591620  0.76877972  1  -0.03525  0  -0.149957  -0.17306  0  3.857019  0
C  C56  1  0.82884539  0.02592019  0.25713734  1  -0.05093  0  -0.149888  -0.1731  0  3.856981  0
C  C57  1  0.25713509  0.02591690  0.82884496  1  -0.051239  0  -0.149966  -0.173215  0  3.857155  0
C  C58  1  0.71457014  0.05252819  0.27727290  1  0.540377  0  0.023355  0.128056  0  3.816275  0
C  C59  1  0.27727470  0.05253386  0.71457637  1  0.540794  0  0.023328  0.128152  0  3.815481  0
C  C60  1  0.77524756  0.05252841  0.33795119  1  0.518669  0  0.023326  0.126538  0  3.816947  0
C  C61  1  0.33795444  0.05253365  0.77525527  1  0.518871  0  0.023342  0.128191  0  3.815422  0
C  C62  1  0.69662667  0.99933483  0.20058006  1  0.018599  0  -0.024293  -0.1074  0  3.829357  0
C  C63  1  0.20057990  0.99933251  0.69662790  1  0.018562  0  -0.02433  -0.107325  0  3.829228  0
C  C64  1  0.79874503  0.99933564  0.30270116  1  0.014277  0  -0.024371  -0.107494  0  3.829804  0
C  C65  1  0.30270220  0.99933507  0.79874684  1  0.014379  0  -0.024391  -0.107329  0  3.829167  0
C  C66  1  0.17303784  0.95863134  0.21127638  1  -0.10032  0  -0.072738  -0.113932  0  3.950233  0
C  C67  1  0.21127635  0.95863138  0.17303776  1  0.040437  0  -0.072741  -0.113948  0  3.950249  0
C  C68  1  0.74608205  0.95746366  0.78432098  1  -0.069102  0  -0.072314  -0.114569  0  3.950327  0
C  C69  1  0.78431885  0.95746255  0.74607916  1  0.072054  0  -0.072278  -0.114434  0  3.950432  0
C  C70  1  0.21119337  0.99982721  0.28877704  1  0.083365  0  0.007937  0.131465  0  4.102917  0
C  C71  1  0.28877692  0.99982654  0.21119391  1  0.083352  0  0.007913  0.131406  0  4.102975  0
C  C72  1  0.71113982  0.99993293  0.78871971  1  0.042751  0  0.007584  0.132332  0  4.101201  0
C  C73  1  0.78871758  0.99993143  0.71113846  1  0.042737  0  0.00763  0.132357  0  4.101187  0
C  C74  1  0.28869995  0.04083865  0.32695276  1  -0.112135  0  -0.069181  -0.110203  0  3.939053  0
C  C75  1  0.32695201  0.04083741  0.28869835  1  0.032559  0  -0.069168  -0.110083  0  3.939178  0
C  C76  1  0.71535923  0.04225290  0.75361543  1  0.076277  0  -0.069014  -0.109984  0  3.937944  0
C  C77  1  0.75361123  0.04224886  0.71535825  1  -0.064513  0  -0.069162  -0.11036  0  3.938348  0
C  C78  1  0.59997457  0.00010202  0.90212326  1  1.617076  0  0.232569  0.679482  0  4.234966  0
C  C79  1  0.90212448  0.00010401  0.59997387  1  1.61676  0  0.232539  0.679403  0  4.234969  0
C  C80  1  0.09798041  0.00011070  0.40013412  1  1.646415  0  0.232671  0.679611  0  4.234697  0
C  C81  1  0.40013108  0.00010906  0.09797836  1  1.646344  0  0.232661  0.67968  0  4.234675  0
C  C82  1  0.17197766  0.99991357  0.32758507  1  -0.434128  0  -0.016317  -0.028222  0  4.081414  0
C  C83  1  0.32758405  0.99991190  0.17197598  1  -0.433807  0  -0.01632  -0.028179  0  4.081272  0
C  C84  1  0.67236086  0.99995187  0.82796713  1  -0.431909  0  -0.016129  -0.02842  0  4.080938  0
C  C85  1  0.82796927  0.99995387  0.67235904  1  -0.431474  0  -0.016008  -0.028151  0  4.080792  0
C  C86  1  0.36065717  0.99986057  0.13779773  1  0.219388  0  -0.041794  -0.186906  0  3.963994  0
C  C87  1  0.13779856  0.99986049  0.36065704  1  0.219707  0  -0.041836  -0.186901  0  3.963989  0
C  C88  1  0.86206754  0.99987267  0.63920962  1  0.220456  0  -0.041924  -0.187058  0  3.964265  0
C  C89  1  0.63920826  0.99986754  0.86206386  1  0.220782  0  -0.041909  -0.186921  0  3.964042  0
C  C90  1  0.59984166  0.19970506  0.09986042  1  1.580244  0  0.229197  0.674545  0  4.242031  0
C  C91  1  0.09986545  0.19970458  0.59984721  1  1.580244  0  0.229224  0.67466  0  4.24198  0
C  C92  1  0.40023385  0.80048411  0.90023891  1  1.578697  0  0.2325  0.679822  0  4.234771  0
C  C93  1  0.90023705  0.80048027  0.40022978  1  1.578813  0  0.232662  0.680066  0  4.234725  0
C  C94  1  0.17317311  0.46210900  0.71615368  1  0.016501  0  -0.071777  -0.11327  0  3.947538  0
C  C95  1  0.71615036  0.46210990  0.17317300  1  0.016926  0  -0.071717  -0.113071  0  3.947436  0
C  C96  1  0.74596212  0.46212373  0.28894027  1  -0.091044  0  -0.071695  -0.113059  0  3.947573  0
C  C97  1  0.28894000  0.46212234  0.74595385  1  -0.091314  0  -0.071679  -0.112973  0  3.947698  0
C  C98  1  0.21153146  0.42306083  0.71152678  1  0.183988  0  0.00726  0.129505  0  4.105336  0
C  C99  1  0.71152886  0.42305998  0.21153026  1  0.183888  0  0.007177  0.12938  0  4.105333  0
C  C100  1  0.32695529  0.53818212  0.78399938  1  0.01508  0  -0.070885  -0.11262  0  3.944464  0
C  C101  1  0.78401093  0.53818406  0.32695600  1  0.013934  0  -0.070768  -0.112395  0  3.944256  0
C  C102  1  0.75416408  0.53817031  0.21121599  1  -0.093276  0  -0.070751  -0.112194  0  3.944387  0
C  C103  1  0.21121394  0.53817069  0.75416681  1  -0.093212  0  -0.070655  -0.112089  0  3.943866  0
C  C104  1  0.28860867  0.57722609  0.78860621  1  0.189092  0  0.008698  0.134002  0  4.100707  0
C  C105  1  0.78860703  0.57722236  0.28860543  1  0.189712  0  0.008877  0.134165  0  4.101085  0
C  C106  1  0.17273141  0.34545701  0.67272123  1  -0.213961  0  -0.01785  -0.027031  0  4.081448  0
C  C107  1  0.67272036  0.34545705  0.17272945  1  -0.213642  0  -0.017774  -0.026921  0  4.081404  0
O  O108  1  0.49948716  0.99897186  0.99948145  1  -1.231042  0  -0.5702  -1.034766  0  2.527311  0
O  O109  1  0.99947939  0.99896859  0.49948378  1  -1.231131  0  -0.570167  -1.034735  0  2.527246  0
O  O110  1  0.33640175  0.94982906  0.87551992  1  -1.17059  0  -0.30895  -0.542603  0  2.331117  0
O  O111  1  0.87552103  0.94983127  0.33640374  1  -1.170639  0  -0.308944  -0.542595  0  2.331281  0
O  O112  1  0.07429528  0.94983728  0.61342441  1  -1.174201  0  -0.308995  -0.542762  0  2.331402  0
O  O113  1  0.61342675  0.94983959  0.07429469  1  -1.174163  0  -0.308991  -0.542758  0  2.331356  0
O  O114  1  0.57346833  0.04310102  0.90671686  1  -1.13995  0  -0.307088  -0.532429  0  2.276222  0
O  O115  1  0.90671576  0.04310584  0.57346919  1  -1.139767  0  -0.307141  -0.532404  0  2.27613  0
O  O116  1  0.13641505  0.04307646  0.46965193  1  -1.144349  0  -0.30708  -0.532324  0  2.276066  0
O  O117  1  0.46964996  0.04307482  0.13641239  1  -1.144299  0  -0.307085  -0.5324  0  2.275989  0
O  O118  1  0.57678419  0.16860041  0.03084527  1  -1.145674  0  -0.310569  -0.538436  0  2.275008  0
O  O119  1  0.03084875  0.16860159  0.57678520  1  -1.145494  0  -0.310587  -0.538488  0  2.274941  0
O  O120  1  0.13777515  0.16860241  0.59179714  1  -1.144151  0  -0.31077  -0.538603  0  2.274831  0
O  O121  1  0.59179650  0.16860398  0.13777236  1  -1.143972  0  -0.310778  -0.53856  0  2.274767  0
O  O122  1  0.36206845  0.83149258  0.90724949  1  -1.142961  0  -0.309482  -0.537284  0  2.275195  0
O  O123  1  0.90724613  0.83149143  0.36206711  1  -1.143044  0  -0.309539  -0.537369  0  2.275354  0
O  O124  1  0.92423621  0.83148264  0.46940642  1  -1.144465  0  -0.309541  -0.537302  0  2.27469  0
O  O125  1  0.46941092  0.83148381  0.92423755  1  -1.144447  0  -0.309466  -0.537167  0  2.274818  0
O  O126  1  0.59586408  0.95755362  0.92920603  1  -1.138365  0  -0.313711  -0.545407  0  2.275809  0
O  O127  1  0.92920683  0.95755485  0.59586547  1  -1.138385  0  -0.313694  -0.545356  0  2.275755  0
O  O128  1  0.02833589  0.95760758  0.36168156  1  -1.160903  0  -0.313751  -0.54548  0  2.2757  0
O  O129  1  0.36168109  0.95760633  0.02833377  1  -1.160921  0  -0.313775  -0.545509  0  2.275722  0
O  O130  1  0.42638854  0.05046698  0.89122031  1  -1.177126  0  -0.305349  -0.536328  0  2.364262  0
O  O131  1  0.89121640  0.05046104  0.42638358  1  -1.176982  0  -0.305288  -0.536352  0  2.364763  0
O  O132  1  0.15924277  0.05046983  0.62408762  1  -1.172844  0  -0.305246  -0.536198  0  2.364175  0
O  O133  1  0.62408773  0.05047052  0.15924431  1  -1.172838  0  -0.305278  -0.53621  0  2.364171  0
F  F134  1  0.60577904  0.89016760  0.18583061  1  -0.607533  0  -0.139726  -0.173701  0  1.272991  0
F  F135  1  0.18584166  0.89017358  0.60578148  1  -0.607569  0  -0.139713  -0.173675  0  1.273003  0
F  F136  1  0.70431526  0.89016306  0.28437128  1  -0.612183  0  -0.139688  -0.173572  0  1.27255  0
F  F137  1  0.28438148  0.89017210  0.70432165  1  -0.611872  0  -0.139658  -0.1736  0  1.272688  0
F  F138  1  0.65215461  0.03417322  0.28502243  1  -0.605508  0  -0.138473  -0.169921  0  1.294417  0
F  F139  1  0.28502916  0.03418977  0.65216324  1  -0.605728  0  -0.138427  -0.169893  0  1.294348  0
F  F140  1  0.74913775  0.03417076  0.38200654  1  -0.608254  0  -0.13841  -0.170046  0  1.295384  0
F  F141  1  0.38202246  0.03419140  0.74915517  1  -0.607925  0  -0.138486  -0.169958  0  1.294208  0
