# generated using pymatgen
data_CaH17C8NCl2O3
_symmetry_space_group_name_H-M   'P 1'
_cell_length_a   9.10617307
_cell_length_b   9.83335375
_cell_length_c   15.61137034
_cell_angle_alpha   73.11202531
_cell_angle_beta   89.31258530
_cell_angle_gamma   75.08305510
_symmetry_Int_Tables_number   1
_chemical_formula_structural   CaH17C8NCl2O3
_chemical_formula_sum   'Ca4 H68 C32 N4 Cl8 O12'
_cell_volume   1289.56162446
_cell_formula_units_Z   4
loop_
 _symmetry_equiv_pos_site_id
 _symmetry_equiv_pos_as_xyz
  1  'x, y, z'
loop_
 _atom_site_type_symbol
 _atom_site_label
 _atom_site_symmetry_multiplicity
 _atom_site_fract_x
 _atom_site_fract_y
 _atom_site_fract_z
 _atom_site_occupancy
 _atom_site_hle17_bader_spin_density
 _atom_site_hle17_ddec_charge
 _atom_site_hle17_ddec_spin_density
 _atom_site_hle17_ddec_sum_bond_order
 _atom_site_hle17_magmom
 _atom_site_hse06_10hf_bader_spin_density
 _atom_site_hse06_10hf_ddec_charge
 _atom_site_hse06_10hf_ddec_spin_density
 _atom_site_hse06_10hf_ddec_sum_bond_order
 _atom_site_hse06_10hf_magmom
 _atom_site_hse06_bader_spin_density
 _atom_site_hse06_ddec_charge
 _atom_site_hse06_ddec_spin_density
 _atom_site_hse06_ddec_sum_bond_order
 _atom_site_hse06_magmom
 _atom_site_pbe_bader_spin_density
 _atom_site_pbe_cm5_charge
 _atom_site_pbe_ddec_charge
 _atom_site_pbe_ddec_spin_density
 _atom_site_pbe_ddec_sum_bond_order
 _atom_site_pbe_magmom
Ca  Ca0  1  0.78317872  0.03536084  0.04768997  1  0  1.417247  0  1.252596  0  0  1.303927  0  1.591338  0  0  1.341376  0  1.55659  0  0  0.621987  1.274997  0  1.616763  0
Ca  Ca1  1  0.21682063  0.96463852  0.95230995  1  0  1.417254  0  1.252583  0  0  1.30392  0  1.591358  0  0  1.341363  0  1.556613  0  0  0.621985  1.274979  0  1.616786  0
Ca  Ca2  1  0.98724173  0.90243872  0.34936924  1  0  1.47148  0  1.191533  0  0  1.340978  0  1.549994  0  0  1.380941  0  1.509772  0  0  0.748059  1.311767  0  1.577202  0
Ca  Ca3  1  0.01275981  0.09756064  0.65063066  1  0  1.471503  0  1.191496  0  0  1.341013  0  1.549922  0  0  1.380971  0  1.509705  0  0  0.748051  1.3118  0  1.577132  0
H  H4  1  0.10690601  0.77286974  0.20050748  1  0  0.371302  0  0.909493  0  0  0.346775  0  0.984654  0  0  0.356885  0  0.973269  0  0  0.287924  0.339683  0  0.992522  0
H  H5  1  0.89309553  0.22712963  0.79949241  1  0  0.371303  0  0.909481  0  0  0.346765  0  0.98467  0  0  0.356877  0  0.973283  0  0  0.287921  0.339673  0  0.992541  0
H  H6  1  0.73225138  0.81748874  0.27959184  1  0  0.357756  0  0.946941  0  0  0.331644  0  1.02595  0  0  0.341628  0  1.013966  0  0  0.270062  0.324505  0  1.033742  0
H  H7  1  0.26775016  0.18251062  0.72040870  1  0  0.357731  0  0.946997  0  0  0.331612  0  1.026018  0  0  0.341598  0  1.014017  0  0  0.270029  0.324472  0  1.03381  0
H  H8  1  0.39711957  0.40990747  0.87031824  1  0  0.103591  0  0.973548  0  0  0.115628  0  1.040486  0  0  0.117712  0  1.040136  0  0  0.09406  0.114182  0  1.040719  0
H  H9  1  0.60288166  0.59009299  0.12968146  1  0  0.103538  0  0.973526  0  0  0.115578  0  1.040472  0  0  0.117662  0  1.040122  0  0  0.094045  0.114131  0  1.040705  0
H  H10  1  0.43945300  0.52782176  0.92749196  1  0  0.10476  0  0.947574  0  0  0.122126  0  1.003117  0  0  0.12388  0  1.003049  0  0  0.103226  0.120814  0  1.003236  0
H  H11  1  0.56054824  0.47217870  0.07250774  1  0  0.104795  0  0.947583  0  0  0.122115  0  1.003172  0  0  0.12387  0  1.003104  0  0  0.10322  0.120804  0  1.003288  0
H  H12  1  0.16296921  0.47595642  0.08805630  1  0  0.064824  0  0.936399  0  0  0.07821  0  1.004268  0  0  0.078416  0  1.004758  0  0  0.098159  0.07784  0  1.004148  0
H  H13  1  0.83703092  0.52404404  0.91194276  1  0  0.06483  0  0.936346  0  0  0.078212  0  1.004231  0  0  0.078418  0  1.00472  0  0  0.098158  0.077841  0  1.004114  0
H  H14  1  0.09565931  0.35308660  0.04391596  1  0  0.070624  0  0.943236  0  0  0.086407  0  1.00744  0  0  0.086711  0  1.007909  0  0  0.104763  0.086096  0  1.007134  0
H  H15  1  0.90434162  0.64691497  0.95608353  1  0  0.070638  0  0.943142  0  0  0.086446  0  1.007334  0  0  0.086733  0  1.00782  0  0  0.10478  0.086134  0  1.007032  0
H  H16  1  0.30856769  0.21998326  0.20796955  1  0  0.077703  0  0.925432  0  0  0.094595  0  0.987171  0  0  0.094944  0  0.987015  0  0  0.10656  0.094258  0  0.987488  0
H  H17  1  0.69143214  0.78001830  0.79203059  1  0  0.077692  0  0.925468  0  0  0.094581  0  0.987202  0  0  0.094929  0  0.987046  0  0  0.106558  0.094248  0  0.987518  0
H  H18  1  0.47530707  0.12432783  0.16758405  1  0  0.080565  0  0.946113  0  0  0.089844  0  1.018394  0  0  0.091653  0  1.016575  0  0  0.115117  0.089997  0  1.01694  0
H  H19  1  0.52469307  0.87567263  0.83241502  1  0  0.080548  0  0.946142  0  0  0.089812  0  1.018427  0  0  0.09162  0  1.016608  0  0  0.115122  0.089962  0  1.016973  0
H  H20  1  0.28090603  0.98130471  0.21235802  1  0  0.046844  0  0.973121  0  0  0.058218  0  1.045905  0  0  0.058528  0  1.045469  0  0  0.095345  0.057728  0  1.046464  0
H  H21  1  0.71909301  0.01869574  0.78764298  1  0  0.046822  0  0.973154  0  0  0.058195  0  1.045921  0  0  0.058507  0  1.045486  0  0  0.095362  0.057706  0  1.046481  0
H  H22  1  0.14769532  0.11372001  0.12798945  1  0  0.056582  0  0.96203  0  0  0.066519  0  1.037304  0  0  0.067079  0  1.036694  0  0  0.103149  0.066526  0  1.036521  0
H  H23  1  0.85230170  0.88628375  0.87201095  1  0  0.056596  0  0.962048  0  0  0.066491  0  1.037345  0  0  0.067053  0  1.036739  0  0  0.103134  0.066501  0  1.036565  0
H  H24  1  0.32613388  0.82794075  0.67972496  1  0  0.060042  0  0.938359  0  0  0.074531  0  1.00234  0  0  0.075332  0  1.001451  0  0  0.105247  0.074055  0  1.002493  0
H  H25  1  0.67386656  0.17205861  0.32027559  1  0  0.060017  0  0.938384  0  0  0.074532  0  1.002352  0  0  0.075333  0  1.001463  0  0  0.105258  0.074059  0  1.002505  0
H  H26  1  0.42122718  0.87980290  0.57956087  1  0  0.051264  0  0.915709  0  0  0.066318  0  0.979436  0  0  0.066685  0  0.979011  0  0  0.101518  0.066302  0  0.979245  0
H  H27  1  0.57877436  0.12019647  0.42044031  1  0  0.051255  0  0.915713  0  0  0.066312  0  0.979453  0  0  0.066679  0  0.979029  0  0  0.101516  0.066296  0  0.979263  0
H  H28  1  0.30476597  0.72970047  0.51096107  1  0  0.077491  0  0.956199  0  0  0.08855  0  1.027997  0  0  0.090271  0  1.026248  0  0  0.11393  0.087072  0  1.029697  0
H  H29  1  0.69523557  0.27029889  0.48904011  1  0  0.077457  0  0.956246  0  0  0.088487  0  1.028043  0  0  0.090207  0  1.026292  0  0  0.113912  0.087013  0  1.029741  0
H  H30  1  0.41913937  0.61929637  0.61139340  1  0  0.062881  0  0.944861  0  0  0.082876  0  1.005781  0  0  0.082697  0  1.006229  0  0  0.107303  0.083168  0  1.004923  0
H  H31  1  0.58086217  0.38070300  0.38860778  1  0  0.062845  0  0.944839  0  0  0.082828  0  1.005738  0  0  0.082633  0  1.006202  0  0  0.107275  0.083112  0  1.004888  0
H  H32  1  0.20435019  0.64580399  0.75479591  1  0  0.077958  0  0.95065  0  0  0.093837  0  1.012641  0  0  0.094542  0  1.012869  0  0  0.100734  0.092945  0  1.012939  0
H  H33  1  0.79564806  0.35419536  0.24520529  1  0  0.077984  0  0.950606  0  0  0.09387  0  1.012605  0  0  0.094578  0  1.012835  0  0  0.100743  0.092978  0  1.012903  0
H  H34  1  0.25628805  0.47077863  0.73324820  1  0  0.060634  0  0.950502  0  0  0.072165  0  1.022254  0  0  0.072785  0  1.021928  0  0  0.093283  0.071701  0  1.022339  0
H  H35  1  0.74371130  0.52922073  0.26675299  1  0  0.060653  0  0.950496  0  0  0.072211  0  1.022221  0  0  0.072835  0  1.021894  0  0  0.09328  0.071748  0  1.022305  0
H  H36  1  0.95775864  0.48818451  0.61140265  1  0  0.11689  0  0.926866  0  0  0.131335  0  0.987698  0  0  0.13431  0  0.986041  0  0  0.111469  0.129099  0  0.989061  0
H  H37  1  0.04224368  0.51181596  0.38859576  1  0  0.116902  0  0.926845  0  0  0.131344  0  0.987671  0  0  0.134318  0  0.986015  0  0  0.111484  0.129113  0  0.989033  0
H  H38  1  0.83655523  0.66502027  0.60550380  1  0  0.105223  0  0.936512  0  0  0.121055  0  0.995602  0  0  0.123163  0  0.99507  0  0  0.100437  0.119261  0  0.996626  0
H  H39  1  0.16344570  0.33498130  0.39449569  1  0  0.1052  0  0.93651  0  0  0.121031  0  0.995604  0  0  0.123137  0  0.995069  0  0  0.100437  0.119242  0  0.996628  0
H  H40  1  0.00068242  0.46898993  0.76785670  1  0  0.083029  0  0.948822  0  0  0.095906  0  1.01696  0  0  0.09786  0  1.015875  0  0  0.093631  0.094507  0  1.017687  0
H  H41  1  0.99931706  0.53100501  0.23214403  1  0  0.083022  0  0.948847  0  0  0.095891  0  1.016995  0  0  0.097842  0  1.015909  0  0  0.093637  0.094491  0  1.01772  0
H  H42  1  0.94318353  0.66486200  0.74396603  1  0  0.07561  0  0.946156  0  0  0.089473  0  1.013817  0  0  0.090695  0  1.013949  0  0  0.090334  0.088409  0  1.013906  0
H  H43  1  0.05681533  0.33513514  0.25603494  1  0  0.0756  0  0.946166  0  0  0.089457  0  1.013836  0  0  0.09068  0  1.013964  0  0  0.090335  0.088394  0  1.013923  0
H  H44  1  0.30370545  0.62372290  0.36011548  1  0  0.038076  0  0.921996  0  0  0.056254  0  0.983951  0  0  0.055887  0  0.984294  0  0  0.103933  0.05641  0  0.983895  0
H  H45  1  0.69629561  0.37627425  0.63988547  1  0  0.038071  0  0.922022  0  0  0.056261  0  0.983981  0  0  0.055892  0  0.984326  0  0  0.103939  0.056414  0  0.983926  0
H  H46  1  0.36160409  0.74985494  0.26818864  1  0  0.034395  0  0.94359  0  0  0.045972  0  1.014284  0  0  0.046597  0  1.013605  0  0  0.092993  0.045163  0  1.015354  0
H  H47  1  0.63839697  0.25014222  0.73181231  1  0  0.034401  0  0.94353  0  0  0.045988  0  1.014234  0  0  0.046615  0  1.013551  0  0  0.09298  0.045177  0  1.015306  0
H  H48  1  0.60273851  0.61412639  0.37772483  1  0  0.094781  0  0.97288  0  0  0.11333  0  1.042107  0  0  0.114337  0  1.042772  0  0  0.085469  0.112763  0  1.041212  0
H  H49  1  0.39726114  0.38587186  0.62227529  1  0  0.094771  0  0.972918  0  0  0.113344  0  1.042116  0  0  0.11435  0  1.042782  0  0  0.085465  0.112777  0  1.041221  0
H  H50  1  0.54612220  0.64250199  0.48171854  1  0  0.093394  0  0.979938  0  0  0.116005  0  1.044386  0  0  0.116563  0  1.045569  0  0  0.085769  0.115455  0  1.043692  0
H  H51  1  0.45387715  0.35749737  0.51828202  1  0  0.093407  0  0.979949  0  0  0.116033  0  1.044382  0  0  0.116592  0  1.045563  0  0  0.085788  0.115489  0  1.043689  0
H  H52  1  0.74183615  0.56749629  0.46836351  1  0  0.106547  0  0.960664  0  0  0.127048  0  1.022422  0  0  0.128146  0  1.023063  0  0  0.090388  0.126235  0  1.021969  0
H  H53  1  0.25816259  0.43250527  0.53163664  1  0  0.106556  0  0.960652  0  0  0.127046  0  1.022429  0  0  0.128143  0  1.023072  0  0  0.090385  0.126233  0  1.021977  0
H  H54  1  0.32163084  0.60111633  0.16693375  1  0  0.118337  0  0.953115  0  0  0.138226  0  1.013939  0  0  0.140134  0  1.013483  0  0  0.093258  0.136638  0  1.014761  0
H  H55  1  0.67836881  0.39888192  0.83306637  1  0  0.118341  0  0.9531  0  0  0.138226  0  1.013934  0  0  0.140133  0  1.013479  0  0  0.093257  0.136639  0  1.014757  0
H  H56  1  0.27912867  0.46751918  0.26167309  1  0  0.105807  0  0.966602  0  0  0.129334  0  1.025351  0  0  0.130144  0  1.026301  0  0  0.088972  0.128864  0  1.024524  0
H  H57  1  0.72086989  0.53247906  0.73832704  1  0  0.105793  0  0.96664  0  0  0.12934  0  1.025367  0  0  0.130149  0  1.026319  0  0  0.08896  0.128868  0  1.024542  0
H  H58  1  0.46313484  0.49962840  0.25516430  1  0  0.099227  0  0.968637  0  0  0.120532  0  1.0328  0  0  0.121453  0  1.033317  0  0  0.087811  0.119946  0  1.032276  0
H  H59  1  0.53686670  0.50037096  0.74483496  1  0  0.099204  0  0.968707  0  0  0.120521  0  1.032855  0  0  0.12144  0  1.033375  0  0  0.087797  0.119933  0  1.032333  0
H  H60  1  0.17147133  0.61632290  0.93678279  1  0  0.081635  0  0.967033  0  0  0.092661  0  1.038289  0  0  0.094439  0  1.037573  0  0  0.088172  0.091373  0  1.038557  0
H  H61  1  0.82852881  0.38367756  0.06321628  1  0  0.081626  0  0.967013  0  0  0.092665  0  1.038262  0  0  0.094443  0  1.037545  0  0  0.088172  0.091378  0  1.038531  0
H  H62  1  0.13779574  0.47363095  0.89806841  1  0  0.075948  0  0.950166  0  0  0.094087  0  1.012032  0  0  0.094533  0  1.013259  0  0  0.092808  0.093671  0  1.011421  0
H  H63  1  0.86220549  0.52636952  0.10193129  1  0  0.075943  0  0.950164  0  0  0.094092  0  1.012028  0  0  0.094536  0  1.013259  0  0  0.092807  0.093675  0  1.011418  0
H  H64  1  0.69341884  0.83373295  0.45830084  1  0  0.039981  0  0.944194  0  0  0.054462  0  1.010438  0  0  0.054786  0  1.009819  0  0  0.101703  0.054106  0  1.011085  0
H  H65  1  0.30657770  0.16626860  0.54169869  1  0  0.039975  0  0.944166  0  0  0.054475  0  1.010434  0  0  0.054801  0  1.009813  0  0  0.101714  0.054122  0  1.011074  0
H  H66  1  0.54984677  0.88232721  0.37052640  1  0  0.03783  0  0.934264  0  0  0.050763  0  1.002351  0  0  0.051366  0  1.001557  0  0  0.090338  0.050732  0  1.002015  0
H  H67  1  0.45015148  0.11767213  0.62947288  1  0  0.037913  0  0.934368  0  0  0.050889  0  1.002424  0  0  0.051492  0  1.001629  0  0  0.090398  0.050842  0  1.002099  0
H  H68  1  0.18409981  0.98946320  0.50377077  1  0  0.361405  0  0.938054  0  0  0.334638  0  1.018183  0  0  0.345275  0  1.006445  0  0  0.269878  0.32705  0  1.026537  0
H  H69  1  0.81590204  0.01053507  0.49622997  1  0  0.361464  0  0.938002  0  0  0.334701  0  1.018116  0  0  0.345338  0  1.006379  0  0  0.269904  0.327112  0  1.02647  0
H  H70  1  0.43457070  0.93363009  0.09943575  1  0  0.365776  0  0.921743  0  0  0.340806  0  0.997674  0  0  0.350651  0  0.986798  0  0  0.279939  0.333656  0  1.00569  0
H  H71  1  0.56542755  0.06636926  0.90056481  1  0  0.365756  0  0.921756  0  0  0.340784  0  0.997687  0  0  0.350629  0  0.986811  0  0  0.279937  0.333635  0  1.005701  0
C  C72  1  0.37699238  0.44484728  0.93093043  1  0  -0.257518  0  3.675238  0  0  -0.297042  0  3.924016  0  0  -0.301966  0  3.93204  0  0  -0.161556  -0.293543  0  3.918487  0
C  C73  1  0.62300885  0.55515318  0.06906862  1  0  -0.257453  0  3.675204  0  0  -0.296933  0  3.923996  0  0  -0.301858  0  3.932025  0  0  -0.161496  -0.293431  0  3.918465  0
C  C74  1  0.18711007  0.40802410  0.04190950  1  0  0.007838  0  3.595998  0  0  -0.050778  0  3.85141  0  0  -0.046543  0  3.864109  0  0  -0.056313  -0.053473  0  3.842909  0
C  C75  1  0.81289006  0.59197636  0.95808956  1  0  0.007796  0  3.595823  0  0  -0.050835  0  3.851269  0  0  -0.046588  0  3.863971  0  0  -0.056337  -0.053531  0  3.842771  0
C  C76  1  0.43996050  0.31174865  0.01059454  1  0  0.568272  0  3.780888  0  0  0.519789  0  4.074612  0  0  0.5499  0  4.072487  0  0  0.25469  0.49937  0  4.075575  0
C  C77  1  0.56003823  0.68825291  0.98940369  1  0  0.568314  0  3.780887  0  0  0.519806  0  4.074633  0  0  0.549917  0  4.072509  0  0  0.254717  0.499388  0  4.075597  0
C  C78  1  0.35270772  0.17653772  0.15247102  1  0  -0.0362  0  3.666919  0  0  -0.099263  0  3.926929  0  0  -0.094856  0  3.937038  0  0  -0.058896  -0.10247  0  3.919548  0
C  C79  1  0.64729163  0.82346164  0.84752889  1  0  -0.036163  0  3.66703  0  0  -0.099208  0  3.927014  0  0  -0.094795  0  3.937123  0  0  -0.058865  -0.102415  0  3.919634  0
C  C80  1  0.06338027  0.66340261  0.56658532  1  0  0.572554  0  3.766761  0  0  0.524991  0  4.057475  0  0  0.555095  0  4.055768  0  0  0.260532  0.504601  0  4.057879  0
C  C81  1  0.93661955  0.33659896  0.43341482  1  0  0.572659  0  3.76662  0  0  0.525095  0  4.057332  0  0  0.555195  0  4.055623  0  0  0.260575  0.504704  0  4.057738  0
C  C82  1  0.26978886  0.06308183  0.14593410  1  0  0.119195  0  3.639383  0  0  0.056647  0  3.917134  0  0  0.063757  0  3.922793  0  0  -0.070411  0.051637  0  3.913137  0
C  C83  1  0.73020877  0.93691973  0.85406607  1  0  0.1192  0  3.639447  0  0  0.056703  0  3.917136  0  0  0.063803  0  3.922808  0  0  -0.070435  0.051699  0  3.913121  0
C  C84  1  0.31926723  0.84621524  0.60682175  1  0  0.128734  0  3.637257  0  0  0.068818  0  3.911912  0  0  0.07572  0  3.918237  0  0  -0.064711  0.064495  0  3.907166  0
C  C85  1  0.68073353  0.15378302  0.39317836  1  0  0.128837  0  3.637222  0  0  0.06884  0  3.911921  0  0  0.075744  0  3.918236  0  0  -0.064686  0.06451  0  3.907174  0
C  C86  1  0.31371271  0.70675141  0.58418199  1  0  -0.042753  0  3.692652  0  0  -0.110032  0  3.956731  0  0  -0.105614  0  3.967181  0  0  -0.060532  -0.112854  0  3.949026  0
C  C87  1  0.68628725  0.29324575  0.41582025  1  0  -0.042717  0  3.692744  0  0  -0.109867  0  3.956645  0  0  -0.105437  0  3.967095  0  0  -0.060514  -0.112692  0  3.948952  0
C  C88  1  0.17547549  0.58122083  0.71390419  1  0  0.003033  0  3.603695  0  0  -0.056455  0  3.860989  0  0  -0.0525  0  3.873492  0  0  -0.058551  -0.059138  0  3.852499  0
C  C89  1  0.82452306  0.41877742  0.28609721  1  0  0.002953  0  3.603668  0  0  -0.056592  0  3.861018  0  0  -0.052646  0  3.873528  0  0  -0.058582  -0.059279  0  3.852529  0
C  C90  1  0.95263538  0.59350769  0.62443069  1  0  -0.253509  0  3.664067  0  0  -0.295085  0  3.917679  0  0  -0.300211  0  3.925569  0  0  -0.154017  -0.29146  0  3.912321  0
C  C91  1  0.04736585  0.40649278  0.37556836  1  0  -0.253515  0  3.664013  0  0  -0.295083  0  3.917627  0  0  -0.300201  0  3.925505  0  0  -0.154027  -0.291468  0  3.912284  0
C  C92  1  0.00898128  0.57337778  0.72079665  1  0  -0.118686  0  3.650801  0  0  -0.16219  0  3.915419  0  0  -0.162994  0  3.927008  0  0  -0.159967  -0.16153  0  3.907293  0
C  C93  1  0.99101838  0.42662047  0.27920346  1  0  -0.118664  0  3.650846  0  0  -0.162145  0  3.915434  0  0  -0.16295  0  3.92704  0  0  -0.159997  -0.161478  0  3.907299  0
C  C94  1  0.29100260  0.67119409  0.28664602  1  0  0.199109  0  3.644569  0  0  0.147053  0  3.916987  0  0  0.155203  0  3.923857  0  0  -0.068724  0.141418  0  3.912658  0
C  C95  1  0.70899973  0.32880638  0.71335302  1  0  0.199087  0  3.644464  0  0  0.146974  0  3.916949  0  0  0.155124  0  3.923817  0  0  -0.06874  0.141337  0  3.912624  0
C  C96  1  0.63611780  0.64710215  0.43442722  1  0  -0.330976  0  3.704623  0  0  -0.407739  0  3.94794  0  0  -0.410846  0  3.958262  0  0  -0.252654  -0.405428  0  3.94075  0
C  C97  1  0.36388155  0.35289720  0.56557334  1  0  -0.331017  0  3.704674  0  0  -0.407769  0  3.948002  0  0  -0.410877  0  3.958324  0  0  -0.252664  -0.405462  0  3.940813  0
C  C98  1  0.34069267  0.55271259  0.24005763  1  0  -0.342721  0  3.696248  0  0  -0.419146  0  3.935619  0  0  -0.422285  0  3.945037  0  0  -0.249261  -0.417211  0  3.929466  0
C  C99  1  0.65930698  0.44728566  0.75994249  1  0  -0.34268  0  3.696308  0  0  -0.419118  0  3.935658  0  0  -0.422255  0  3.945079  0  0  -0.249239  -0.417183  0  3.929507  0
C  C100  1  0.20739171  0.49765676  0.94565312  1  0  -0.114368  0  3.632554  0  0  -0.155523  0  3.887554  0  0  -0.15644  0  3.899607  0  0  -0.161069  -0.154967  0  3.879272  0
C  C101  1  0.79260843  0.50234370  0.05434659  1  0  -0.11434  0  3.632515  0  0  -0.155525  0  3.887554  0  0  -0.156442  0  3.899603  0  0  -0.161062  -0.154971  0  3.879275  0
C  C102  1  0.65725970  0.80132435  0.40202536  1  0  0.196451  0  3.65023  0  0  0.145359  0  3.919325  0  0  0.153524  0  3.925649  0  0  -0.075642  0.139507  0  3.914838  0
C  C103  1  0.34274154  0.19867611  0.59797434  1  0  0.196438  0  3.650299  0  0  0.145215  0  3.919554  0  0  0.153377  0  3.925879  0  0  -0.075699  0.139379  0  3.915069  0
N  N104  1  0.33295901  0.29697554  0.07001295  1  0  -0.194555  0  3.407013  0  0  -0.102351  0  3.636654  0  0  -0.123202  0  3.657868  0  0  -0.269306  -0.088508  0  3.622273  0
N  N105  1  0.66704112  0.70302492  0.92998611  1  0  -0.194601  0  3.407115  0  0  -0.102397  0  3.63678  0  0  -0.123246  0  3.657987  0  0  -0.26937  -0.088557  0  3.622402  0
N  N106  1  0.18363840  0.65481265  0.61871968  1  0  -0.202053  0  3.433996  0  0  -0.108795  0  3.663015  0  0  -0.130105  0  3.685347  0  0  -0.272109  -0.094098  0  3.646758  0
N  N107  1  0.81636126  0.34518561  0.38128172  1  0  -0.202061  0  3.43406  0  0  -0.108822  0  3.663042  0  0  -0.130128  0  3.685374  0  0  -0.272061  -0.094121  0  3.646781  0
Cl  Cl108  1  0.04018314  0.80325987  0.06345765  1  0  -0.695956  0  0.77787  0  0  -0.640993  0  1.015707  0  0  -0.657723  0  0.997134  0  0  -0.277238  -0.628228  0  1.028783  0
Cl  Cl109  1  0.95981620  0.19673948  0.93654162  1  0  -0.695965  0  0.777877  0  0  -0.640991  0  1.015712  0  0  -0.657721  0  0.997141  0  0  -0.277241  -0.628233  0  1.028797  0
Cl  Cl110  1  0.65112712  0.83118204  0.15718265  1  0  -0.645155  0  0.827384  0  0  -0.58756  0  1.054168  0  0  -0.603131  0  1.035404  0  0  -0.264823  -0.575959  0  1.066897  0
Cl  Cl111  1  0.34887192  0.16881842  0.84281770  1  0  -0.645152  0  0.827391  0  0  -0.58756  0  1.054193  0  0  -0.60313  0  1.035426  0  0  -0.264829  -0.575951  0  1.066911  0
Cl  Cl112  1  0.86882694  0.10946901  0.19117136  1  0  -0.717452  0  0.75192  0  0  -0.664691  0  0.997088  0  0  -0.681648  0  0.978219  0  0  -0.309719  -0.651788  0  1.007217  0
Cl  Cl113  1  0.13117070  0.89053255  0.80882881  1  0  -0.717467  0  0.751928  0  0  -0.664687  0  0.997068  0  0  -0.68164  0  0.978202  0  0  -0.309728  -0.651784  0  1.007198  0
Cl  Cl114  1  0.21726547  0.02189950  0.37486300  1  0  -0.690435  0  0.70317  0  0  -0.633633  0  0.920911  0  0  -0.649339  0  0.902168  0  0  -0.324148  -0.622849  0  0.932664  0
Cl  Cl115  1  0.78273607  0.97809987  0.62513690  1  0  -0.690441  0  0.70316  0  0  -0.633652  0  0.920912  0  0  -0.649355  0  0.902166  0  0  -0.324141  -0.622868  0  0.93266  0
O  O116  1  0.57272408  0.22851450  0.02094631  1  0  -0.656581  0  2.026254  0  0  -0.607157  0  2.288163  0  0  -0.631983  0  2.278564  0  0  -0.382729  -0.589275  0  2.293369  0
O  O117  1  0.42727465  0.77148706  0.97905320  1  0  -0.656616  0  2.026262  0  0  -0.607181  0  2.288185  0  0  -0.632007  0  2.278587  0  0  -0.382759  -0.589296  0  2.29339  0
O  O118  1  0.18363414  0.96133788  0.57117428  1  0  -0.615762  0  2.163506  0  0  -0.552223  0  2.410074  0  0  -0.572681  0  2.400141  0  0  -0.447914  -0.538006  0  2.415741  0
O  O119  1  0.81636740  0.03866149  0.42882690  1  0  -0.615839  0  2.163402  0  0  -0.552295  0  2.410016  0  0  -0.57275  0  2.40008  0  0  -0.447941  -0.53807  0  2.415677  0
O  O120  1  0.32781434  0.99294698  0.07911164  1  0  -0.615264  0  2.153144  0  0  -0.551838  0  2.395667  0  0  -0.571706  0  2.38564  0  0  -0.455623  -0.537903  0  2.40313  0
O  O121  1  0.67218360  0.00705347  0.92088873  1  0  -0.615241  0  2.153178  0  0  -0.55181  0  2.395666  0  0  -0.571674  0  2.385643  0  0  -0.455608  -0.537877  0  2.403133  0
O  O122  1  0.05005343  0.71642318  0.48262681  1  0  -0.657917  0  1.991826  0  0  -0.604393  0  2.247849  0  0  -0.629277  0  2.23801  0  0  -0.374443  -0.587096  0  2.254102  0
O  O123  1  0.94994955  0.28358282  0.51737250  1  0  -0.658026  0  1.991756  0  0  -0.604494  0  2.24776  0  0  -0.629375  0  2.237922  0  0  -0.374495  -0.587196  0  2.254015  0
O  O124  1  0.13198578  0.74984430  0.26585533  1  0  -0.623055  0  2.088674  0  0  -0.556377  0  2.323027  0  0  -0.576323  0  2.311905  0  0  -0.443686  -0.541802  0  2.330104  0
O  O125  1  0.86801576  0.25015507  0.73414457  1  0  -0.623042  0  2.088618  0  0  -0.556344  0  2.322992  0  0  -0.576294  0  2.311867  0  0  -0.443664  -0.541764  0  2.330047  0
O  O126  1  0.77524130  0.80947446  0.33985627  1  0  -0.631692  0  2.133199  0  0  -0.564417  0  2.370735  0  0  -0.584212  0  2.358322  0  0  -0.458893  -0.550404  0  2.378143  0
O  O127  1  0.22475962  0.19052711  0.66014322  1  0  -0.63171  0  2.133217  0  0  -0.564407  0  2.370792  0  0  -0.584202  0  2.358365  0  0  -0.458871  -0.550395  0  2.378195  0
