# generated using pymatgen
data_Pr2P2H16C14N2O19
_symmetry_space_group_name_H-M   'P 1'
_cell_length_a   10.68651680
_cell_length_b   11.73860253
_cell_length_c   11.47777628
_cell_angle_alpha   105.14562954
_cell_angle_beta   98.88613674
_cell_angle_gamma   110.84866336
_symmetry_Int_Tables_number   1
_chemical_formula_structural   Pr2P2H16C14N2O19
_chemical_formula_sum   'Pr4 P4 H32 C28 N4 O38'
_cell_volume   1248.98809030
_cell_formula_units_Z   2
loop_
 _symmetry_equiv_pos_site_id
 _symmetry_equiv_pos_as_xyz
  1  'x, y, z'
loop_
 _atom_site_type_symbol
 _atom_site_label
 _atom_site_symmetry_multiplicity
 _atom_site_fract_x
 _atom_site_fract_y
 _atom_site_fract_z
 _atom_site_occupancy
 _atom_site_hle17_bader_spin_density
 _atom_site_hle17_ddec_charge
 _atom_site_hle17_ddec_spin_density
 _atom_site_hle17_ddec_sum_bond_order
 _atom_site_hle17_magmom
 _atom_site_hse06_10hf_bader_spin_density
 _atom_site_hse06_10hf_ddec_charge
 _atom_site_hse06_10hf_ddec_spin_density
 _atom_site_hse06_10hf_ddec_sum_bond_order
 _atom_site_hse06_10hf_magmom
 _atom_site_hse06_bader_spin_density
 _atom_site_hse06_ddec_charge
 _atom_site_hse06_ddec_spin_density
 _atom_site_hse06_ddec_sum_bond_order
 _atom_site_hse06_magmom
 _atom_site_pbe_bader_spin_density
 _atom_site_pbe_cm5_charge
 _atom_site_pbe_ddec_charge
 _atom_site_pbe_ddec_spin_density
 _atom_site_pbe_ddec_sum_bond_order
 _atom_site_pbe_magmom
Pr  Pr0  1  0.60525277  0.45064004  0.14696145  1  0  2.347449  0  1.576077  0  0  2.23783  0  1.93828  0  0  2.273288  0  1.899173  0  0  1.469214  2.160959  0  2.060911  0
Pr  Pr1  1  0.39475089  0.54936040  0.85304222  1  0  2.347405  0  1.576175  0  0  2.237796  0  1.938401  0  0  2.273249  0  1.899294  0  0  1.469206  2.161029  0  2.060868  0
Pr  Pr2  1  0.75288761  0.05031656  0.37211816  1  0  2.248941  0  1.677414  0  0  2.076009  0  2.152871  0  0  2.11508  0  2.111446  0  0  1.482219  2.045289  0  2.186245  0
Pr  Pr3  1  0.24709254  0.94967767  0.62788116  1  0  2.248967  0  1.677226  0  0  2.076017  0  2.152705  0  0  2.115162  0  2.111155  0  0  1.482147  2.04531  0  2.186064  0
P  P4  1  0.25772512  0.46011025  0.11383147  1  0  1.515801  0  4.784818  0  0  1.361618  0  5.308968  0  0  1.412617  0  5.266387  0  0  0.37329  1.326011  0  5.332881  0
P  P5  1  0.74227707  0.53989113  0.88617049  1  0  1.515811  0  4.78474  0  0  1.361557  0  5.308901  0  0  1.412577  0  5.266323  0  0  0.37325  1.325946  0  5.332818  0
P  P6  1  0.96650386  0.64601349  0.38074542  1  0  1.52599  0  4.799334  0  0  1.373537  0  5.310128  0  0  1.423703  0  5.26899  0  0  0.368537  1.338259  0  5.336193  0
P  P7  1  0.03349561  0.35398791  0.61924219  1  0  1.526077  0  4.799136  0  0  1.37365  0  5.309921  0  0  1.423817  0  5.268773  0  0  0.368716  1.338371  0  5.335988  0
H  H8  1  0.08645611  0.31354886  0.15237156  1  0  0.42976  0  0.793345  0  0  0.415675  0  0.840372  0  0  0.424744  0  0.830364  0  0  0.348739  0.409092  0  0.847942  0
H  H9  1  0.91354388  0.68645157  0.84761761  1  0  0.429743  0  0.793292  0  0  0.4156  0  0.840394  0  0  0.424666  0  0.830391  0  0  0.34871  0.409019  0  0.847959  0
H  H10  1  0.99684187  0.64188265  0.56913284  1  0  0.419827  0  0.871062  0  0  0.391145  0  0.943676  0  0  0.401629  0  0.928384  0  0  0.314944  0.383782  0  0.954398  0
H  H11  1  0.00313861  0.35811449  0.43086470  1  0  0.419729  0  0.871172  0  0  0.391048  0  0.943799  0  0  0.401534  0  0.928504  0  0  0.314875  0.383688  0  0.954517  0
H  H12  1  0.65367870  0.69852411  0.34150503  1  0  0.437624  0  0.856071  0  0  0.407114  0  0.919177  0  0  0.418089  0  0.902974  0  0  0.305095  0.399424  0  0.930337  0
H  H13  1  0.34632164  0.30148596  0.65848678  1  0  0.437635  0  0.856001  0  0  0.407123  0  0.919113  0  0  0.418096  0  0.90291  0  0  0.305098  0.399435  0  0.930271  0
H  H14  1  0.64970988  0.60743425  0.42118496  1  0  0.436388  0  0.809965  0  0  0.421134  0  0.861681  0  0  0.429442  0  0.850279  0  0  0.330549  0.414987  0  0.868288  0
H  H15  1  0.35029482  0.39256150  0.57879409  1  0  0.436335  0  0.810047  0  0  0.421118  0  0.861711  0  0  0.429431  0  0.850295  0  0  0.330525  0.41497  0  0.868327  0
H  H16  1  0.22687388  0.74203174  0.32962008  1  0  0.277773  0  0.9044  0  0  0.257481  0  0.969279  0  0  0.266655  0  0.962968  0  0  0.312528  0.251071  0  0.973667  0
H  H17  1  0.77312825  0.25797160  0.67037629  1  0  0.277796  0  0.904366  0  0  0.257461  0  0.969308  0  0  0.26664  0  0.962989  0  0  0.312521  0.251052  0  0.973697  0
H  H18  1  0.09735178  0.04951812  0.26872817  1  0  0.313048  0  0.890383  0  0  0.291841  0  0.950514  0  0  0.302047  0  0.941782  0  0  0.324019  0.284631  0  0.956641  0
H  H19  1  0.90268060  0.95049155  0.73126750  1  0  0.312987  0  0.890585  0  0  0.291797  0  0.950664  0  0  0.301981  0  0.941972  0  0  0.323934  0.284589  0  0.956788  0
H  H20  1  0.32893505  0.58947822  0.33656850  1  0  0.156208  0  0.903734  0  0  0.169435  0  0.952718  0  0  0.172416  0  0.951087  0  0  0.132365  0.167091  0  0.954402  0
H  H21  1  0.67107247  0.41052229  0.66343229  1  0  0.156182  0  0.903725  0  0  0.169364  0  0.952747  0  0  0.172355  0  0.951122  0  0  0.132344  0.167022  0  0.954425  0
H  H22  1  0.37776404  0.68602688  0.24345555  1  0  0.156752  0  0.92835  0  0  0.165348  0  0.988188  0  0  0.168645  0  0.986848  0  0  0.131224  0.1628  0  0.989761  0
H  H23  1  0.62223303  0.31397347  0.75653838  1  0  0.156768  0  0.928368  0  0  0.165344  0  0.988205  0  0  0.168652  0  0.986871  0  0  0.13122  0.162793  0  0.989782  0
H  H24  1  0.13843983  0.55714419  0.39937999  1  0  0.143786  0  0.93539  0  0  0.154947  0  0.992939  0  0  0.157309  0  0.992252  0  0  0.125163  0.153261  0  0.99348  0
H  H25  1  0.86156610  0.44286592  0.60062400  1  0  0.143798  0  0.935361  0  0  0.154967  0  0.992916  0  0  0.157328  0  0.992228  0  0  0.125165  0.153277  0  0.993464  0
H  H26  1  0.00961261  0.47007481  0.24983940  1  0  0.147694  0  0.966869  0  0  0.153674  0  1.033291  0  0  0.15759  0  1.030831  0  0  0.120687  0.150706  0  1.035437  0
H  H27  1  0.99039055  0.52992660  0.75016097  1  0  0.147704  0  0.966913  0  0  0.153706  0  1.033323  0  0  0.15762  0  1.030862  0  0  0.120694  0.150739  0  1.035467  0
H  H28  1  0.11818752  0.59468773  0.06331582  1  0  0.118699  0  0.945556  0  0  0.132392  0  1.003343  0  0  0.134224  0  1.00262  0  0  0.127241  0.130832  0  1.00414  0
H  H29  1  0.88181563  0.40532039  0.93669157  1  0  0.118692  0  0.945532  0  0  0.132306  0  1.003432  0  0  0.134138  0  1.002709  0  0  0.127212  0.130749  0  1.004223  0
H  H30  1  0.98835729  0.61641145  0.13667878  1  0  0.125616  0  0.934775  0  0  0.135896  0  0.996605  0  0  0.138051  0  0.995402  0  0  0.129165  0.134162  0  0.997613  0
H  H31  1  0.01164843  0.38359382  0.86332824  1  0  0.125615  0  0.934769  0  0  0.135929  0  0.996549  0  0  0.13808  0  0.995352  0  0  0.129182  0.1342  0  0.997546  0
H  H32  1  0.31419488  0.78938002  0.05574426  1  0  0.118845  0  0.946978  0  0  0.127451  0  1.009708  0  0  0.130092  0  1.00773  0  0  0.124573  0.125757  0  1.010504  0
H  H33  1  0.68581131  0.21060412  0.94425019  1  0  0.118844  0  0.946954  0  0  0.127485  0  1.00969  0  0  0.130129  0  1.007708  0  0  0.124594  0.12579  0  1.010487  0
H  H34  1  0.41044360  0.02703629  0.08946021  1  0  0.145133  0  0.939289  0  0  0.149316  0  0.999573  0  0  0.153564  0  0.997397  0  0  0.125921  0.146077  0  1.001688  0
H  H35  1  0.58957524  0.97294422  0.91053606  1  0  0.144975  0  0.939432  0  0  0.149282  0  0.999626  0  0  0.153529  0  0.997454  0  0  0.125902  0.146038  0  1.001747  0
H  H36  1  0.29820610  0.16099605  0.20221318  1  0  0.117346  0  0.908191  0  0  0.125784  0  0.966848  0  0  0.129314  0  0.963377  0  0  0.143563  0.123158  0  0.969406  0
H  H37  1  0.70183424  0.83900125  0.79778038  1  0  0.117299  0  0.907922  0  0  0.125571  0  0.966798  0  0  0.129089  0  0.963341  0  0  0.143517  0.122949  0  0.969351  0
H  H38  1  0.00220026  0.83692884  0.23784359  1  0  0.123914  0  0.917563  0  0  0.131825  0  0.977892  0  0  0.134485  0  0.975813  0  0  0.146002  0.129707  0  0.979712  0
H  H39  1  0.99781287  0.16309781  0.76215546  1  0  0.123856  0  0.917483  0  0  0.131718  0  0.977913  0  0  0.134381  0  0.975824  0  0  0.145988  0.129605  0  0.979733  0
C  C40  1  0.29168507  0.60335409  0.24904858  1  0  -0.347462  0  3.457829  0  0  -0.38286  0  3.703112  0  0  -0.387806  0  3.707443  0  0  -0.065273  -0.379857  0  3.701137  0
C  C41  1  0.70831740  0.39665018  0.75095507  1  0  -0.347409  0  3.457808  0  0  -0.382697  0  3.703017  0  0  -0.387713  0  3.707434  0  0  -0.065212  -0.379698  0  3.70105  0
C  C42  1  0.07549473  0.56609016  0.32005211  1  0  -0.364177  0  3.494349  0  0  -0.404202  0  3.741468  0  0  -0.409547  0  3.746769  0  0  -0.076529  -0.400374  0  3.738148  0
C  C43  1  0.92450842  0.43391124  0.67994913  1  0  -0.3642  0  3.494268  0  0  -0.404303  0  3.74147  0  0  -0.409637  0  3.746758  0  0  -0.076567  -0.400473  0  3.738146  0
C  C44  1  0.09994284  0.65494811  0.14331114  1  0  -0.06539  0  3.48408  0  0  -0.124063  0  3.712847  0  0  -0.121029  0  3.723389  0  0  -0.051868  -0.125969  0  3.706476  0
C  C45  1  0.90005944  0.34505134  0.85669206  1  0  -0.065417  0  3.484126  0  0  -0.124007  0  3.712752  0  0  -0.120975  0  3.723294  0  0  -0.051878  -0.125911  0  3.706376  0
C  C46  1  0.15373658  0.79334096  0.14806535  1  0  0.043445  0  3.713083  0  0  0.062912  0  3.966106  0  0  0.056839  0  3.98881  0  0  0.010128  0.066397  0  3.951236  0
C  C47  1  0.84628064  0.20665782  0.85193296  1  0  0.043138  0  3.713432  0  0  0.062644  0  3.966447  0  0  0.056572  0  3.98915  0  0  0.009982  0.066129  0  3.951584  0
C  C48  1  0.26754701  0.84932336  0.10427311  1  0  0.005703  0  3.577444  0  0  -0.029005  0  3.831161  0  0  -0.02276  0  3.846505  0  0  -0.033188  -0.03283  0  3.820908  0
C  C49  1  0.73247279  0.15067258  0.89572396  1  0  0.005973  0  3.577371  0  0  -0.028776  0  3.831197  0  0  -0.022521  0  3.846521  0  0  -0.03311  -0.032593  0  3.820922  0
C  C50  1  0.32092933  0.98155955  0.12141342  1  0  -0.075486  0  3.642988  0  0  -0.08849  0  3.901801  0  0  -0.096582  0  3.9222  0  0  -0.053327  -0.083642  0  3.888736  0
C  C51  1  0.67909036  0.01843635  0.87859320  1  0  -0.075403  0  3.64305  0  0  -0.088618  0  3.901941  0  0  -0.096713  0  3.922342  0  0  -0.053232  -0.083761  0  3.888869  0
C  C52  1  0.25918649  0.05647347  0.18148138  1  0  0.154531  0  3.567138  0  0  0.110437  0  3.819931  0  0  0.119002  0  3.83526  0  0  0.084546  0.104947  0  3.809852  0
C  C53  1  0.74083995  0.94352929  0.81852636  1  0  0.154866  0  3.567163  0  0  0.11098  0  3.819933  0  0  0.119554  0  3.835261  0  0  0.084617  0.10549  0  3.809849  0
C  C54  1  0.09221574  0.87156697  0.20252036  1  0  0.125147  0  3.551353  0  0  0.073333  0  3.80521  0  0  0.082334  0  3.819767  0  0  0.082698  0.067523  0  3.795514  0
C  C55  1  0.90780682  0.12843767  0.79748207  1  0  0.12552  0  3.551204  0  0  0.073659  0  3.805071  0  0  0.082667  0  3.819619  0  0  0.082787  0.067845  0  3.795381  0
C  C56  1  0.64828787  0.27266405  0.31625941  1  0  0.567341  0  3.94696  0  0  0.525434  0  4.250924  0  0  0.555465  0  4.240609  0  0  0.210895  0.505189  0  4.254669  0
C  C57  1  0.35168815  0.72731180  0.68373872  1  0  0.567595  0  3.947316  0  0  0.525675  0  4.251215  0  0  0.555707  0  4.240903  0  0  0.210947  0.50543  0  4.254967  0
C  C58  1  0.77327297  0.28905897  0.25809931  1  0  0.555787  0  3.908694  0  0  0.511576  0  4.210099  0  0  0.541236  0  4.199723  0  0  0.213606  0.491718  0  4.213891  0
C  C59  1  0.22669862  0.71091299  0.74188839  1  0  0.555039  0  3.908972  0  0  0.510874  0  4.210322  0  0  0.540533  0  4.19996  0  0  0.213337  0.491022  0  4.214101  0
C  C60  1  0.61917193  0.75495295  0.14623402  1  0  0.57298  0  3.895564  0  0  0.529175  0  4.193834  0  0  0.559581  0  4.18225  0  0  0.229444  0.508678  0  4.196843  0
C  C61  1  0.38082334  0.24505216  0.85376702  1  0  0.573186  0  3.895306  0  0  0.52947  0  4.193404  0  0  0.559857  0  4.181864  0  0  0.229587  0.508972  0  4.196419  0
C  C62  1  0.58847244  0.84430090  0.07841578  1  0  0.563401  0  3.939603  0  0  0.52191  0  4.24008  0  0  0.551762  0  4.229758  0  0  0.220015  0.501722  0  4.244488  0
C  C63  1  0.41151223  0.15570399  0.92159230  1  0  0.563318  0  3.940036  0  0  0.521854  0  4.2404  0  0  0.551709  0  4.23009  0  0  0.220093  0.501664  0  4.244807  0
C  C64  1  0.54589426  0.05786621  0.56103264  1  0  0.583103  0  3.884898  0  0  0.538243  0  4.17886  0  0  0.569467  0  4.166723  0  0  0.232059  0.517092  0  4.186363  0
C  C65  1  0.45408996  0.94212899  0.43898237  1  0  0.582812  0  3.885164  0  0  0.53825  0  4.178791  0  0  0.569473  0  4.166651  0  0  0.232177  0.517097  0  4.186294  0
C  C66  1  0.04537073  0.03067508  0.45962461  1  0  0.572225  0  3.888782  0  0  0.527386  0  4.187987  0  0  0.557543  0  4.178182  0  0  0.218988  0.50701  0  4.19402  0
C  C67  1  0.95461899  0.96931736  0.54038439  1  0  0.572482  0  3.888935  0  0  0.527718  0  4.188036  0  0  0.55786  0  4.17825  0  0  0.21909  0.507343  0  4.194072  0
N  N68  1  0.17478092  0.64524486  0.26292950  1  0  -0.0094  0  3.32604  0  0  0.074579  0  3.531171  0  0  0.063033  0  3.550195  0  0  -0.32551  0.082424  0  3.518211  0
N  N69  1  0.82522043  0.35475457  0.73707181  1  0  -0.009464  0  3.325989  0  0  0.074512  0  3.531111  0  0  0.062981  0  3.550136  0  0  -0.32553  0.082358  0  3.518153  0
N  N70  1  0.14554111  0.99845965  0.21746015  1  0  -0.203221  0  3.48054  0  0  -0.129762  0  3.707398  0  0  -0.14542  0  3.722797  0  0  -0.333245  -0.119431  0  3.696814  0
N  N71  1  0.85448220  0.00154018  0.78254458  1  0  -0.203684  0  3.480805  0  0  -0.130157  0  3.707475  0  0  -0.145805  0  3.722884  0  0  -0.333286  -0.119824  0  3.696896  0
O  O72  1  0.35748966  0.40289548  0.14887470  1  0  -0.914552  0  1.940289  0  0  -0.856155  0  2.205834  0  0  -0.879827  0  2.184733  0  0  -0.42924  -0.832755  0  2.221207  0
O  O73  1  0.64250770  0.59709907  0.85112557  1  0  -0.914547  0  1.940262  0  0  -0.856135  0  2.205815  0  0  -0.879803  0  2.1847  0  0  -0.429267  -0.832745  0  2.221186  0
O  O74  1  0.25280712  0.49985827  0.99862905  1  0  -0.911933  0  1.957607  0  0  -0.851249  0  2.2343  0  0  -0.874791  0  2.213334  0  0  -0.437841  -0.827469  0  2.248806  0
O  O75  1  0.74719831  0.50013740  0.00137013  1  0  -0.912016  0  1.957613  0  0  -0.851258  0  2.23426  0  0  -0.874799  0  2.213282  0  0  -0.437847  -0.827461  0  2.248769  0
O  O76  1  0.09864640  0.35944511  0.09249798  1  0  -0.715372  0  1.985527  0  0  -0.650654  0  2.207665  0  0  -0.670166  0  2.186327  0  0  -0.377035  -0.637401  0  2.222805  0
O  O77  1  0.90135496  0.64056302  0.90749869  1  0  -0.715318  0  1.985475  0  0  -0.650503  0  2.207637  0  0  -0.67001  0  2.186293  0  0  -0.376935  -0.637257  0  2.222799  0
O  O78  1  0.06238111  0.78819067  0.43968046  1  0  -0.935449  0  2.062144  0  0  -0.859769  0  2.335246  0  0  -0.884944  0  2.317371  0  0  -0.445338  -0.841459  0  2.347125  0
O  O79  1  0.93761536  0.21180587  0.56030278  1  0  -0.93537  0  2.062135  0  0  -0.859662  0  2.335149  0  0  -0.884878  0  2.317384  0  0  -0.445361  -0.841348  0  2.347029  0
O  O80  1  0.83810991  0.60914979  0.27891340  1  0  -0.922107  0  2.002694  0  0  -0.860982  0  2.281631  0  0  -0.884968  0  2.2611  0  0  -0.444408  -0.837244  0  2.296986  0
O  O81  1  0.16189386  0.39084398  0.72107369  1  0  -0.922179  0  2.002379  0  0  -0.861096  0  2.281385  0  0  -0.885069  0  2.260834  0  0  -0.444489  -0.837375  0  2.29674  0
O  O82  1  0.92230369  0.58850860  0.48793546  1  0  -0.737861  0  1.982338  0  0  -0.673482  0  2.204904  0  0  -0.693698  0  2.180218  0  0  -0.383292  -0.659037  0  2.221679  0
O  O83  1  0.07768882  0.41149651  0.51205558  1  0  -0.737778  0  1.982434  0  0  -0.673406  0  2.205048  0  0  -0.693621  0  2.180363  0  0  -0.383223  -0.658949  0  2.221796  0
O  O84  1  0.58576865  0.34478426  0.30607855  1  0  -0.672608  0  1.995519  0  0  -0.633507  0  2.232337  0  0  -0.654554  0  2.220061  0  0  -0.391284  -0.612759  0  2.24208  0
O  O85  1  0.41422802  0.65521315  0.69392413  1  0  -0.672502  0  1.995739  0  0  -0.633392  0  2.232555  0  0  -0.654438  0  2.220278  0  0  -0.391208  -0.612657  0  2.242291  0
O  O86  1  0.61911664  0.18861753  0.36930031  1  0  -0.664213  0  2.030517  0  0  -0.618957  0  2.271113  0  0  -0.64129  0  2.262807  0  0  -0.374467  -0.603424  0  2.276691  0
O  O87  1  0.38087019  0.81137959  0.63072781  1  0  -0.664428  0  2.03059  0  0  -0.619177  0  2.271178  0  0  -0.641523  0  2.262868  0  0  -0.374516  -0.603643  0  2.276758  0
O  O88  1  0.78008379  0.34223643  0.17620152  1  0  -0.618945  0  2.043027  0  0  -0.57666  0  2.283534  0  0  -0.59818  0  2.275407  0  0  -0.328485  -0.556623  0  2.289012  0
O  O89  1  0.21989220  0.65775483  0.82380073  1  0  -0.618637  0  2.043197  0  0  -0.576318  0  2.283593  0  0  -0.59783  0  2.275468  0  0  -0.328369  -0.556292  0  2.289064  0
O  O90  1  0.86157118  0.24795831  0.30025447  1  0  -0.716016  0  2.000948  0  0  -0.661508  0  2.23705  0  0  -0.682859  0  2.222748  0  0  -0.37438  -0.646564  0  2.246419  0
O  O91  1  0.13840573  0.75203492  0.69974148  1  0  -0.715712  0  2.000634  0  0  -0.661209  0  2.23669  0  0  -0.682575  0  2.222395  0  0  -0.374215  -0.646256  0  2.246045  0
O  O92  1  0.55938827  0.63290542  0.08680979  1  0  -0.758921  0  2.157195  0  0  -0.710297  0  2.409635  0  0  -0.733213  0  2.399926  0  0  -0.381324  -0.683516  0  2.416108  0
O  O93  1  0.44062830  0.36712035  0.91318607  1  0  -0.759152  0  2.156902  0  0  -0.710523  0  2.409236  0  0  -0.733412  0  2.399487  0  0  -0.38147  -0.683742  0  2.415719  0
O  O94  1  0.69851156  0.80943759  0.25645415  1  0  -0.634509  0  2.098366  0  0  -0.582522  0  2.334745  0  0  -0.604705  0  2.325902  0  0  -0.326495  -0.566611  0  2.339685  0
O  O95  1  0.30149074  0.19056857  0.74355433  1  0  -0.634533  0  2.098615  0  0  -0.582582  0  2.334974  0  0  -0.604766  0  2.326136  0  0  -0.326487  -0.566679  0  2.339922  0
O  O96  1  0.50743933  0.78927249  0.96836849  1  0  -0.663473  0  2.055828  0  0  -0.622525  0  2.300674  0  0  -0.645007  0  2.292266  0  0  -0.364309  -0.600985  0  2.307052  0
O  O97  1  0.49256259  0.21073273  0.03163619  1  0  -0.663387  0  2.055846  0  0  -0.622439  0  2.300647  0  0  -0.644923  0  2.292236  0  0  -0.364251  -0.600884  0  2.307027  0
O  O98  1  0.64464649  0.96487162  0.13944855  1  0  -0.663886  0  1.998072  0  0  -0.618859  0  2.23666  0  0  -0.640878  0  2.228196  0  0  -0.371214  -0.60353  0  2.24214  0
O  O99  1  0.35531792  0.03514348  0.86056095  1  0  -0.663901  0  1.998457  0  0  -0.618909  0  2.237058  0  0  -0.640936  0  2.228594  0  0  -0.371352  -0.60359  0  2.242543  0
O  O100  1  0.67468212  0.10994560  0.56898532  1  0  -0.637838  0  2.15426  0  0  -0.580388  0  2.390808  0  0  -0.605286  0  2.385275  0  0  -0.347982  -0.563084  0  2.394098  0
O  O101  1  0.32530259  0.89004586  0.43100698  1  0  -0.637719  0  2.154233  0  0  -0.580424  0  2.390714  0  0  -0.605333  0  2.385175  0  0  -0.348071  -0.563121  0  2.394005  0
O  O102  1  0.48862681  0.09255798  0.64334820  1  0  -0.655051  0  2.051208  0  0  -0.607907  0  2.296782  0  0  -0.631682  0  2.289948  0  0  -0.370821  -0.591573  0  2.301317  0
O  O103  1  0.51137626  0.90745682  0.35667230  1  0  -0.654964  0  2.051531  0  0  -0.607864  0  2.296933  0  0  -0.631628  0  2.290101  0  0  -0.370864  -0.591535  0  2.301481  0
O  O104  1  0.98193046  0.04374267  0.36302505  1  0  -0.684266  0  2.046396  0  0  -0.634856  0  2.286156  0  0  -0.65749  0  2.274465  0  0  -0.379003  -0.618655  0  2.293404  0
O  O105  1  0.01804350  0.95624375  0.63697125  1  0  -0.684327  0  2.046859  0  0  -0.634961  0  2.286602  0  0  -0.657595  0  2.274911  0  0  -0.379039  -0.618765  0  2.293857  0
O  O106  1  0.17387385  0.06146790  0.49132997  1  0  -0.61888  0  2.038766  0  0  -0.575802  0  2.278694  0  0  -0.596166  0  2.269565  0  0  -0.363722  -0.561701  0  2.284848  0
O  O107  1  0.82611683  0.93852654  0.50866838  1  0  -0.61908  0  2.038728  0  0  -0.57603  0  2.278692  0  0  -0.596374  0  2.269564  0  0  -0.36382  -0.561928  0  2.284851  0
O  O108  1  0.59686775  0.61354533  0.34780359  1  0  -0.859163  0  1.819983  0  0  -0.820016  0  1.991505  0  0  -0.83645  0  1.962463  0  0  -0.607843  -0.803355  0  2.013306  0
O  O109  1  0.40313467  0.38646287  0.65218367  1  0  -0.8591  0  1.819961  0  0  -0.819993  0  1.991361  0  0  -0.83643  0  1.962312  0  0  -0.607809  -0.803345  0  2.01315  0
