# generated using pymatgen
data_CoH17C21Br(NO2)2
_symmetry_space_group_name_H-M   'P 1'
_cell_length_a   9.06761798
_cell_length_b   10.08828144
_cell_length_c   11.58202613
_cell_angle_alpha   68.14891721
_cell_angle_beta   87.39682935
_cell_angle_gamma   77.41172294
_symmetry_Int_Tables_number   1
_chemical_formula_structural   CoH17C21Br(NO2)2
_chemical_formula_sum   'Co2 H34 C42 Br2 N4 O8'
_cell_volume   958.98156503
_cell_formula_units_Z   2
loop_
 _symmetry_equiv_pos_site_id
 _symmetry_equiv_pos_as_xyz
  1  'x, y, z'
loop_
 _atom_site_type_symbol
 _atom_site_label
 _atom_site_symmetry_multiplicity
 _atom_site_fract_x
 _atom_site_fract_y
 _atom_site_fract_z
 _atom_site_occupancy
 _atom_site_pbe_cm5_charge
 _atom_site_pbe_ddec_charge
 _atom_site_pbe_ddec_spin_density
 _atom_site_pbe_ddec_sum_bond_order
 _atom_site_pbe_magmom
Co  Co0  1  0.33990680  0.84575057  0.06302504  1  0.655472  0.704602  -1.108085  2.876672  -0.975
Co  Co1  1  0.66006322  0.15421436  0.93698589  1  0.655583  0.70486  1.108107  2.876784  0.975
H  H2  1  0.37112965  0.40261454  0.02575788  1  0.110623  0.128622  -3.6e-05  1.018486  0.0
H  H3  1  0.62884560  0.59741163  0.97421409  1  0.110658  0.12877  3.6e-05  1.018323  0.0
H  H4  1  0.96887873  0.56794102  0.18573106  1  0.107827  0.123628  -0.000306  1.004728  0.0
H  H5  1  0.03110907  0.43204100  0.81428898  1  0.10782  0.123448  0.000306  1.005004  0.0
H  H6  1  0.03673035  0.14066174  0.16182382  1  0.105939  0.119752  -3e-06  1.024112  0.0
H  H7  1  0.96331096  0.85932673  0.83814123  1  0.106075  0.119929  3e-06  1.023661  0.0
H  H8  1  0.46481573  0.83104221  0.83352335  1  0.119462  0.092572  8.6e-05  1.019338  0.0
H  H9  1  0.53515856  0.16895167  0.16641673  1  0.119545  0.092792  -8.6e-05  1.019415  0.0
H  H10  1  0.41071074  0.97337379  0.60887865  1  0.095949  0.095481  -1.1e-05  1.05345  0.0
H  H11  1  0.58924018  0.02673764  0.39108101  1  0.096059  0.095736  1.1e-05  1.053143  0.0
H  H12  1  0.00419168  0.21722015  0.70709907  1  0.105409  0.118379  -2.7e-05  1.018215  0.0
H  H13  1  0.99583419  0.78286664  0.29294919  1  0.105367  0.118444  2.7e-05  1.018211  0.0
H  H14  1  0.07721319  0.07090709  0.92566618  1  0.124227  0.105065  -4.4e-05  1.018107  0.0
H  H15  1  0.92277269  0.92906500  0.07437098  1  0.124157  0.10517  4.4e-05  1.018103  0.0
H  H16  1  0.07618368  0.29839714  0.48900476  1  0.091064  0.089492  3e-05  0.986533  0.0
H  H17  1  0.92385543  0.70173919  0.51096901  1  0.091032  0.089445  -3e-05  0.986835  0.0
H  H18  1  0.10065138  0.13361533  0.46526928  1  0.094157  0.097344  0.000356  0.979599  0.0
H  H19  1  0.89926302  0.86651753  0.53476487  1  0.094092  0.097196  -0.000356  0.97928  0.0
H  H20  1  0.24954747  0.26264031  0.31599596  1  0.084979  0.078707  -2e-06  1.067756  0.0
H  H21  1  0.75045262  0.73733951  0.68401292  1  0.084884  0.078608  2e-06  1.067824  0.0
H  H22  1  0.38323061  0.13904360  0.43120078  1  0.083666  0.072893  -3e-06  1.022949  0.0
H  H23  1  0.61671948  0.86088451  0.56881786  1  0.08369  0.072915  3e-06  1.022886  0.0
H  H24  1  0.42827193  0.39500941  0.33416838  1  0.094402  0.102664  -6.2e-05  0.985184  0.0
H  H25  1  0.57187228  0.60485686  0.66582017  1  0.094427  0.10267  6.2e-05  0.984845  0.0
H  H26  1  0.25918216  0.46130003  0.39550453  1  0.094069  0.099887  1.7e-05  0.975001  0.0
H  H27  1  0.74093492  0.53868232  0.60443777  1  0.093926  0.099749  -1.7e-05  0.975091  0.0
H  H28  1  0.64433942  0.20544714  0.49038156  1  0.093798  0.101727  3.3e-05  1.039359  0.0
H  H29  1  0.35580102  0.79456237  0.50964405  1  0.093855  0.101745  -3.3e-05  1.039416  0.0
H  H30  1  0.76388086  0.12941598  0.70089206  1  0.119993  0.095373  -6.4e-05  1.007585  0.0
H  H31  1  0.23612380  0.87057185  0.29917963  1  0.120089  0.095426  6.4e-05  1.007333  0.0
H  H32  1  0.39860282  0.37289074  0.81243018  1  0.115007  0.087125  -0.000183  1.049235  0.0
H  H33  1  0.60135512  0.62706038  0.18756250  1  0.114935  0.087126  0.000183  1.049068  0.0
H  H34  1  0.26174535  0.45650984  0.60806360  1  0.09538  0.096649  1e-05  1.036453  0.0
H  H35  1  0.73830568  0.54351362  0.39187156  1  0.095428  0.096797  -1e-05  1.036284  0.0
C  C36  1  0.21270527  0.26002143  0.08931657  1  -0.014832  -0.017355  0.00111  3.956223  0.001
C  C37  1  0.78726086  0.73997636  0.91067623  1  -0.014681  -0.017242  -0.00111  3.955861  -0.001
C  C38  1  0.26332100  0.38847239  0.06897812  1  -0.078619  -0.127977  0.001538  3.91118  0.002
C  C39  1  0.73666065  0.61151776  0.93099991  1  -0.078836  -0.128373  -0.001542  3.911481  -0.002
C  C40  1  0.17527381  0.49821272  0.10482305  1  -0.013876  -0.009286  -0.000195  3.972821  0.0
C  C41  1  0.82468695  0.50176674  0.89516038  1  -0.013743  -0.009176  0.000197  3.972934  0.0
C  C42  1  0.03646323  0.48041481  0.16020087  1  -0.087052  -0.151295  0.002056  3.956277  0.002
C  C43  1  0.96350636  0.51953598  0.83981030  1  -0.087049  -0.150886  -0.002061  3.956739  -0.002
C  C44  1  0.98972348  0.35135884  0.18097105  1  -0.015768  0.103896  -0.000351  3.997659  -0.001
C  C45  1  0.01025655  0.64857775  0.81903377  1  -0.015769  0.10391  0.000352  3.997985  0.001
C  C46  1  0.07493211  0.24072777  0.14638405  1  -0.087272  -0.145639  0.002426  3.946056  0.003
C  C47  1  0.92506246  0.75924363  0.85360364  1  -0.08736  -0.145748  -0.002433  3.945301  -0.003
C  C48  1  0.30640616  0.14121120  0.05128308  1  0.212155  0.557376  0.007632  4.195966  0.011
C  C49  1  0.69357221  0.85878403  0.94873321  1  0.212303  0.557567  -0.007646  4.195332  -0.011
C  C50  1  0.22340418  0.63643199  0.08881632  1  0.194096  0.529105  0.001517  4.200533  0.003
C  C51  1  0.77654622  0.36358238  0.91116939  1  0.194002  0.528509  -0.001517  4.201816  -0.003
C  C52  1  0.36527818  0.91940349  0.80112117  1  0.041771  0.090989  0.004228  3.938956  0.005
C  C53  1  0.63469394  0.08062468  0.19887191  1  0.041709  0.0909  -0.004228  3.938954  -0.005
C  C54  1  0.33254520  0.99951977  0.67534382  1  -0.098524  -0.200064  -0.000913  3.999994  -0.002
C  C55  1  0.66742312  0.00055957  0.32464856  1  -0.098505  -0.199982  0.000913  4.000186  0.002
C  C56  1  0.20234577  0.11121908  0.63501043  1  0.002489  0.153705  0.005254  3.953797  0.006
C  C57  1  0.79761676  0.88888318  0.36498092  1  0.002458  0.15311  -0.005254  3.954092  -0.006
C  C58  1  0.10864580  0.13347757  0.72861542  1  -0.090521  -0.191397  -0.000942  3.942889  -0.002
C  C59  1  0.89135417  0.86657602  0.27141206  1  -0.090633  -0.191511  0.000941  3.943503  0.002
C  C60  1  0.14838550  0.05068090  0.85334246  1  0.047702  0.099939  0.004254  3.893281  0.005
C  C61  1  0.85161133  0.94931829  0.14669059  1  0.047801  0.099947  -0.004252  3.893512  -0.005
C  C62  1  0.16055789  0.19763562  0.49875514  1  -0.157304  -0.193702  7.2e-05  3.938661  0.0
C  C63  1  0.83941948  0.80244116  0.50126522  1  -0.157194  -0.193304  -7.1e-05  3.937535  0.0
C  C64  1  0.29022512  0.23586528  0.41129969  1  -0.16434  -0.130754  -0.000242  3.900356  0.0
C  C65  1  0.70976210  0.76409824  0.58872287  1  -0.164282  -0.130674  0.000241  3.900014  0.0
C  C66  1  0.35303483  0.36539267  0.41273170  1  -0.158732  -0.19787  2e-05  3.92599  0.0
C  C67  1  0.64705024  0.63454957  0.58723641  1  -0.15855  -0.197733  -2e-05  3.926263  0.0
C  C68  1  0.43758824  0.33252012  0.53215385  1  0.004153  0.163994  -0.005593  3.951286  -0.007
C  C69  1  0.56250438  0.66745435  0.46784409  1  0.004168  0.164275  0.005588  3.951385  0.007
C  C70  1  0.58384265  0.24413879  0.55931416  1  -0.096373  -0.202219  0.001098  3.984211  0.002
C  C71  1  0.41625134  0.75584645  0.44069234  1  -0.09653  -0.202377  -0.001099  3.983137  -0.002
C  C72  1  0.65281366  0.20218428  0.67568010  1  0.041051  0.085586  -0.004398  3.932444  -0.005
C  C73  1  0.34720780  0.79779518  0.32433900  1  0.041012  0.085575  0.004397  3.931318  0.005
C  C74  1  0.44812214  0.33826798  0.73834489  1  0.043547  0.094017  -0.004465  3.921197  -0.005
C  C75  1  0.55183972  0.66172779  0.26163842  1  0.043576  0.094057  0.004461  3.920727  0.005
C  C76  1  0.37283329  0.38302172  0.62401010  1  -0.093295  -0.192764  0.000905  3.980262  0.002
C  C77  1  0.62719720  0.61698652  0.37594917  1  -0.093269  -0.193185  -0.000903  3.980267  -0.002
Br  Br78  1  0.80394463  0.32476024  0.26115817  1  0.062904  -0.048823  2.2e-05  1.568795  0.0
Br  Br79  1  0.19605113  0.67515296  0.73888272  1  0.062827  -0.048951  -2.2e-05  1.568709  0.0
N  N80  1  0.27670025  0.94572664  0.89060672  1  -0.341257  -0.19842  0.004474  3.64858  0.007
N  N81  1  0.72328085  0.05427180  0.10941185  1  -0.341306  -0.198556  -0.004472  3.64837  -0.007
N  N82  1  0.58399306  0.24384554  0.76663039  1  -0.341065  -0.184715  -0.00413  3.615548  -0.006
N  N83  1  0.41596198  0.75613368  0.23338364  1  -0.34113  -0.184647  0.004131  3.615587  0.006
O  O84  1  0.26176063  0.01922345  0.09402841  1  -0.303468  -0.519006  0.002627  2.521152  0.006
O  O85  1  0.73825013  0.98078016  0.90598175  1  -0.303413  -0.519013  -0.002624  2.52111  -0.006
O  O86  1  0.41602414  0.16738037  0.98339836  1  -0.294456  -0.544348  0.017573  2.412314  0.022
O  O87  1  0.58395391  0.83260170  0.01662909  1  -0.294668  -0.544545  -0.017568  2.412028  -0.022
O  O88  1  0.35729949  0.65197913  0.05160526  1  -0.30122  -0.497649  0.002358  2.310732  0.004
O  O89  1  0.64267630  0.34798704  0.94838424  1  -0.30136  -0.497567  -0.002358  2.311424  -0.004
O  O90  1  0.13332539  0.73583665  0.11447318  1  -0.303295  -0.535393  -0.033815  2.206745  -0.052
O  O91  1  0.86661783  0.26418545  0.88550955  1  -0.303222  -0.535099  0.033817  2.20712  0.052
