# generated using pymatgen
data_Cd3H58C58N8O15
_symmetry_space_group_name_H-M   'P 1'
_cell_length_a   11.57806298
_cell_length_b   16.80071892
_cell_length_c   17.21139175
_cell_angle_alpha   110.70483610
_cell_angle_beta   109.67346543
_cell_angle_gamma   90.00753688
_symmetry_Int_Tables_number   1
_chemical_formula_structural   Cd3H58C58N8O15
_chemical_formula_sum   'Cd6 H116 C116 N16 O30'
_cell_volume   2921.80673723
_cell_formula_units_Z   2
loop_
 _symmetry_equiv_pos_site_id
 _symmetry_equiv_pos_as_xyz
  1  'x, y, z'
loop_
 _atom_site_type_symbol
 _atom_site_label
 _atom_site_symmetry_multiplicity
 _atom_site_fract_x
 _atom_site_fract_y
 _atom_site_fract_z
 _atom_site_occupancy
 _atom_site_pbe_bader_charge
 _atom_site_pbe_bader_spin_density
 _atom_site_pbe_cm5_charge
 _atom_site_pbe_ddec_charge
 _atom_site_pbe_ddec_spin_density
 _atom_site_pbe_ddec_sum_bond_order
 _atom_site_pbe_magmom
Cd  Cd0  1  0.54633752  0.65464276  0.76735601  1  1.308344  0  0.768051  0.927057  0  2.19323  0
Cd  Cd1  1  0.77877142  0.84516148  0.23253855  1  1.308455  0  0.76818  0.927547  0  2.191485  0
Cd  Cd2  1  0.45366281  0.34535632  0.23264554  1  1.308328  0  0.76804  0.927016  0  2.193256  0
Cd  Cd3  1  0.22123199  0.15483889  0.76746267  1  1.308508  0  0.768199  0.927528  0  2.191611  0
Cd  Cd4  1  0.76063912  0.75000941  0.00000848  1  1.405587  0  0.817314  1.158361  0  2.052882  0
Cd  Cd5  1  0.23936192  0.24998968  0.99999286  1  1.405711  0  0.817327  1.158362  0  2.052911  0
H  H6  1  0.96479287  0.21336931  0.04965962  1  0.086332  0  0.10797  0.124134  0  1.018788  0
H  H7  1  0.91489212  0.28640437  0.95009791  1  0.093166  0  0.108475  0.124978  0  1.017851  0
H  H8  1  0.03519843  0.78663042  0.95034038  1  0.086262  0  0.107952  0.124127  0  1.018874  0
H  H9  1  0.08510064  0.71359794  0.04990131  1  0.093234  0  0.108463  0.124948  0  1.017884  0
H  H10  1  0.12115812  0.28659673  0.19871088  1  0.060796  0  0.103502  0.107021  0  1.04122  0
H  H11  1  0.92217508  0.21338917  0.80106082  1  0.068885  0  0.103273  0.106905  0  1.041022  0
H  H12  1  0.87883467  0.71340108  0.80128932  1  0.06077  0  0.103483  0.107048  0  1.041176  0
H  H13  1  0.07782422  0.78661121  0.19894087  1  0.06888  0  0.103266  0.106883  0  1.041029  0
H  H14  1  0.86194632  0.45143613  0.27734326  1  0.109319  0  0.113055  0.125281  0  0.981365  0
H  H15  1  0.58449296  0.04815175  0.72224623  1  0.096774  0  0.113104  0.125095  0  0.981505  0
H  H16  1  0.13805315  0.54856746  0.72265832  1  0.109381  0  0.113059  0.125258  0  0.981427  0
H  H17  1  0.41550712  0.95184670  0.27775586  1  0.096787  0  0.113102  0.125074  0  0.981513  0
H  H18  1  0.70256338  0.37670273  0.12628542  1  0.11795  0  0.105077  0.119973  0  1.03917  0
H  H19  1  0.57643933  0.12251876  0.87339924  1  0.099073  0  0.105227  0.119801  0  1.040179  0
H  H20  1  0.29743538  0.62330086  0.87371637  1  0.117933  0  0.105107  0.120063  0  1.039202  0
H  H21  1  0.42355314  0.87748741  0.12659956  1  0.099313  0  0.105196  0.119754  0  1.040249  0
H  H22  1  0.22106352  0.33515519  0.33594379  1  0.102882  0  0.106584  0.071873  0  1.035805  0
H  H23  1  0.88490674  0.16465705  0.66367945  1  0.109563  0  0.106693  0.071574  0  1.036253  0
H  H24  1  0.77893902  0.66484904  0.66405642  1  0.10279  0  0.106587  0.071866  0  1.035791  0
H  H25  1  0.11509335  0.83534267  0.33632472  1  0.109466  0  0.106669  0.071557  0  1.036193  0
H  H26  1  0.18118630  0.56310280  0.45709207  1  0.123033  0  0.110244  0.1133  0  1.042666  0
H  H27  1  0.72370765  0.93666177  0.54278035  1  0.098511  0  0.110193  0.113402  0  1.043504  0
H  H28  1  0.81882191  0.43690336  0.54290959  1  0.122938  0  0.110224  0.113247  0  1.042646  0
H  H29  1  0.27630518  0.06333408  0.45722658  1  0.098585  0  0.110193  0.113494  0  1.043477  0
H  H30  1  0.33002756  0.65691371  0.60884602  1  0.110447  0  0.116101  0.090113  0  1.030171  0
H  H31  1  0.72097491  0.84265125  0.39117372  1  0.136445  0  0.115941  0.089531  0  1.03016  0
H  H32  1  0.66998285  0.34309052  0.39115562  1  0.110497  0  0.116099  0.090103  0  1.030188  0
H  H33  1  0.27904354  0.15734395  0.60883502  1  0.136505  0  0.115945  0.089483  0  1.030121  0
H  H34  1  0.54265991  0.46170596  0.62526423  1  0.094677  0  0.114765  0.079149  0  1.013033  0
H  H35  1  0.91699855  0.03774630  0.37447949  1  0.085317  0  0.11486  0.079457  0  1.012834  0
H  H36  1  0.45733960  0.53829248  0.37473728  1  0.094714  0  0.114769  0.079143  0  1.013084  0
H  H37  1  0.08300883  0.96225469  0.62552762  1  0.085394  0  0.114834  0.079366  0  1.012921  0
H  H38  1  0.40310138  0.35956975  0.47429788  1  0.09496  0  0.111808  0.122924  0  0.993345  0
H  H39  1  0.92827412  0.14010458  0.52529327  1  0.129343  0  0.111839  0.123194  0  0.993522  0
H  H40  1  0.59689488  0.64043191  0.52570378  1  0.095283  0  0.111812  0.122961  0  0.993306  0
H  H41  1  0.07172863  0.85989320  0.47471225  1  0.12934  0  0.111847  0.123137  0  0.993591  0
H  H42  1  0.77711799  0.82513649  0.67584229  1  0.087029  0  0.100894  0.101081  0  1.025486  0
H  H43  1  0.10187740  0.67506256  0.32392147  1  0.085029  0  0.101184  0.101436  0  1.0249  0
H  H44  1  0.22287747  0.17486390  0.32415377  1  0.087084  0  0.100838  0.101022  0  1.025432  0
H  H45  1  0.89813481  0.32493716  0.67608287  1  0.085052  0  0.101186  0.101456  0  1.024911  0
H  H46  1  0.92974043  0.94621222  0.70121151  1  0.078626  0  0.099728  0.097801  0  1.027667  0
H  H47  1  0.22880456  0.55380170  0.29854460  1  0.070351  0  0.099587  0.097193  0  1.028742  0
H  H48  1  0.07025510  0.05378560  0.29878412  1  0.078556  0  0.099714  0.0978  0  1.027672  0
H  H49  1  0.77120252  0.44619352  0.70145923  1  0.070449  0  0.099606  0.097221  0  1.028688  0
H  H50  1  0.95110463  0.06267533  0.97177610  1  0.065977  0  0.100713  0.101654  0  1.033909  0
H  H51  1  0.97881347  0.43713107  0.02817934  1  0.098354  0  0.100364  0.101645  0  1.033499  0
H  H52  1  0.04890136  0.93732249  0.02822169  1  0.066155  0  0.100712  0.101641  0  1.033888  0
H  H53  1  0.02119657  0.56287251  0.97182362  1  0.098108  0  0.10039  0.101663  0  1.033481  0
H  H54  1  0.80528044  0.93941149  0.94878886  1  0.100969  0  0.102512  0.109607  0  1.023369  0
H  H55  1  0.85619148  0.56051178  0.05114331  1  0.080532  0  0.102789  0.109749  0  1.021749  0
H  H56  1  0.19472422  0.06058503  0.05121100  1  0.100812  0  0.102531  0.109646  0  1.023328  0
H  H57  1  0.14381736  0.43949115  0.94886197  1  0.080371  0  0.102785  0.1098  0  1.021688  0
H  H58  1  0.66771013  0.62099749  0.05626725  1  0.122678  0  0.099856  0.106088  0  1.07393  0
H  H59  1  0.61168619  0.87918063  0.94400535  1  0.14548  0  0.100093  0.106405  0  1.072716  0
H  H60  1  0.33228220  0.37899840  0.94372845  1  0.122607  0  0.099904  0.106089  0  1.073912  0
H  H61  1  0.38831044  0.12082168  0.05599499  1  0.145352  0  0.100149  0.106445  0  1.072668  0
H  H62  1  0.34082614  0.45928596  0.84810881  1  0.107622  0  0.10893  0.118381  0  0.985208  0
H  H63  1  0.49215317  0.04056280  0.15170183  1  0.076439  0  0.109021  0.118302  0  0.985848  0
H  H64  1  0.65916361  0.54071057  0.15188720  1  0.107688  0  0.108998  0.118451  0  0.985249  0
H  H65  1  0.50784159  0.95944015  0.84829860  1  0.076441  0  0.109004  0.118292  0  0.985883  0
H  H66  1  0.39036014  0.78994366  0.88623690  1  0.105177  0  0.12398  0.057175  0  0.99782  0
H  H67  1  0.50353033  0.71022472  0.11354271  1  0.093412  0  0.124233  0.057929  0  0.997267  0
H  H68  1  0.60961965  0.21004773  0.11375824  1  0.105243  0  0.123998  0.057218  0  0.997873  0
H  H69  1  0.49646928  0.28977117  0.88645385  1  0.093102  0  0.124262  0.057974  0  0.99733  0
H  H70  1  0.24411478  0.82007276  0.67529807  1  0.064644  0  0.110165  0.129073  0  1.000153  0
H  H71  1  0.56830888  0.67960146  0.32418094  1  0.075897  0  0.11036  0.129483  0  0.998237  0
H  H72  1  0.75587689  0.17992571  0.32469749  1  0.064801  0  0.110178  0.129052  0  1.000172  0
H  H73  1  0.43168538  0.32040020  0.67582056  1  0.075847  0  0.11036  0.12946  0  0.998243  0
H  H74  1  0.13286224  0.87837058  0.71457387  1  0.061663  0  0.107433  0.120142  0  1.014322  0
H  H75  1  0.41774143  0.62120167  0.28479030  1  0.061309  0  0.107157  0.119912  0  1.014705  0
H  H76  1  0.86713213  0.12162853  0.28542268  1  0.061723  0  0.107388  0.120049  0  1.014292  0
H  H77  1  0.58225249  0.37879936  0.71520801  1  0.061407  0  0.107162  0.11994  0  1.014691  0
H  H78  1  0.11196789  0.76339645  0.67398129  1  0.068277  0  0.103333  0.117533  0  0.991814  0
H  H79  1  0.43746771  0.73618170  0.32564430  1  0.060437  0  0.103586  0.117588  0  0.991774  0
H  H80  1  0.88801981  0.23660331  0.32601151  1  0.06717  0  0.103341  0.11749  0  0.991937  0
H  H81  1  0.56252495  0.26382063  0.67435119  1  0.060525  0  0.103596  0.117638  0  0.991685  0
H  H82  1  0.11780189  0.86259661  0.86216729  1  0.062864  0  0.098412  0.115365  0  1.019098  0
H  H83  1  0.25490981  0.63733121  0.13743329  1  0.05349  0  0.098515  0.116193  0  1.018206  0
H  H84  1  0.88218815  0.13740315  0.13782782  1  0.06302  0  0.098437  0.115384  0  1.019059  0
H  H85  1  0.74509018  0.36266596  0.86256298  1  0.053437  0  0.098507  0.116172  0  1.018192  0
H  H86  1  0.21876075  0.94953983  0.87338436  1  0.062034  0  0.101855  0.119673  0  1.010813  0
H  H87  1  0.34460408  0.55039804  0.12608022  1  0.061882  0  0.101925  0.119686  0  1.01112  0
H  H88  1  0.78123361  0.05045800  0.12661010  1  0.061981  0  0.101873  0.119691  0  1.010862  0
H  H89  1  0.65539566  0.44959977  0.87391867  1  0.062042  0  0.101932  0.119683  0  1.011074  0
H  H90  1  0.27556177  0.88395406  0.93638234  1  0.061609  0  0.107795  0.123456  0  1.008973  0
H  H91  1  0.33833486  0.61609030  0.06317723  1  0.085279  0  0.107807  0.123961  0  1.008596  0
H  H92  1  0.72443014  0.11604441  0.06361164  1  0.061559  0  0.107773  0.123477  0  1.008946  0
H  H93  1  0.66166617  0.38390687  0.93682099  1  0.085313  0  0.107836  0.123987  0  1.008587  0
H  H94  1  0.46876678  0.81420446  0.62170443  1  0.401539  0  0.281387  0.230446  0  0.97542  0
H  H95  1  0.84725113  0.68611429  0.37877317  1  0.408217  0  0.281105  0.229897  0  0.97555  0
H  H96  1  0.53122550  0.18579594  0.37829030  1  0.401402  0  0.281337  0.230419  0  0.9755  0
H  H97  1  0.15276336  0.31388221  0.62123281  1  0.408072  0  0.281021  0.229716  0  0.975534  0
H  H98  1  0.26651145  0.74041898  0.51880339  1  0.021599  0  0.089553  0.086358  0  1.03452  0
H  H99  1  0.74793185  0.75961048  0.48168727  1  0.029582  0  0.089733  0.086756  0  1.033626  0
H  H100  1  0.73348296  0.25957950  0.48118759  1  0.021358  0  0.089542  0.08635  0  1.034439  0
H  H101  1  0.25207280  0.24038604  0.51831260  1  0.029731  0  0.089755  0.086811  0  1.033575  0
H  H102  1  0.28733424  0.78233772  0.44247425  1  0.041685  0  0.089138  0.088  0  1.031454  0
H  H103  1  0.84529568  0.71773114  0.55798744  1  0.046719  0  0.089197  0.088468  0  1.031812  0
H  H104  1  0.71266358  0.21766205  0.55751856  1  0.041476  0  0.089157  0.087952  0  1.031477  0
H  H105  1  0.15471000  0.28227243  0.44201757  1  0.046714  0  0.08915  0.088457  0  1.031841  0
H  H106  1  0.37951766  0.70417030  0.46915496  1  -0.011195  0  0.073632  0.062247  0  1.021856  0
H  H107  1  0.91056505  0.79606120  0.53139641  1  0.009848  0  0.073552  0.062144  0  1.021221  0
H  H108  1  0.62048075  0.29583010  0.53083947  1  -0.011211  0  0.073631  0.062229  0  1.021841  0
H  H109  1  0.08943720  0.20394046  0.46860573  1  0.009859  0  0.073552  0.062188  0  1.021221  0
H  H110  1  0.57917288  0.91791469  0.59920606  1  0.058773  0  0.093911  0.097725  0  1.031897  0
H  H111  1  0.98039750  0.58250123  0.40114872  1  0.050555  0  0.094095  0.097824  0  1.032471  0
H  H112  1  0.42081955  0.08208891  0.40079310  1  0.058781  0  0.093896  0.097712  0  1.03191  0
H  H113  1  0.01962243  0.41750102  0.59886653  1  0.05054  0  0.0941  0.097921  0  1.032415  0
H  H114  1  0.56680801  0.81557917  0.51372103  1  -0.039694  0  0.071861  0.05537  0  1.031405  0
H  H115  1  0.05356360  0.68489445  0.48658664  1  -0.004331  0  0.071702  0.055512  0  1.032022  0
H  H116  1  0.43318891  0.18442635  0.48627842  1  -0.039731  0  0.071848  0.05537  0  1.031398  0
H  H117  1  0.94645017  0.31511039  0.51342482  1  -0.004094  0  0.071688  0.055524  0  1.031905  0
H  H118  1  0.46513299  0.89112526  0.49134928  1  0.054942  0  0.092482  0.101693  0  0.995548  0
H  H119  1  0.97456777  0.60925546  0.50906517  1  0.027381  0  0.092517  0.10193  0  0.99538  0
H  H120  1  0.53486310  0.10887898  0.50864907  1  0.05509  0  0.092534  0.101692  0  0.99559  0
H  H121  1  0.02544788  0.39075001  0.49094829  1  0.02755  0  0.092496  0.101886  0  0.995417  0
C  C122  1  0.82346353  0.29080116  0.07936531  1  0.344544  0  0.084446  0.249126  0  4.038442  0
C  C123  1  0.74399332  0.20874093  0.92033799  1  0.334098  0  0.084656  0.249658  0  4.03707  0
C  C124  1  0.17653111  0.70920115  0.92063487  1  0.344369  0  0.084505  0.249005  0  4.038675  0
C  C125  1  0.25599956  0.79126203  0.07966149  1  0.33413  0  0.084566  0.24968  0  4.036904  0
C  C126  1  0.94118936  0.26458819  0.09949022  1  -0.012173  0  -0.099659  -0.1927  0  4.005453  0
C  C127  1  0.84146234  0.23514915  0.90024058  1  0.058531  0  -0.100587  -0.194603  0  4.00558  0
C  C128  1  0.05880398  0.73541348  0.90050855  1  -0.012238  0  -0.099671  -0.192675  0  4.005582  0
C  C129  1  0.15853251  0.76485187  0.09976046  1  0.058551  0  -0.100578  -0.194575  0  4.005615  0
C  C130  1  0.02893269  0.30557921  0.18426227  1  -0.008011  0  -0.088512  -0.133116  0  3.957784  0
C  C131  1  0.84442617  0.19427020  0.81546869  1  -0.089635  0  -0.087445  -0.13179  0  3.954971  0
C  C132  1  0.97106273  0.69442052  0.81573727  1  -0.008107  0  -0.088485  -0.13312  0  3.957628  0
C  C133  1  0.15557325  0.80573081  0.18453325  1  -0.091108  0  -0.087396  -0.131766  0  3.954974  0
C  C134  1  0.00211043  0.37326591  0.24962037  1  0.396269  0  0.081276  0.180022  0  4.093287  0
C  C135  1  0.75218189  0.12658169  0.75004855  1  0.393455  0  0.080948  0.180061  0  4.093893  0
C  C136  1  0.99788828  0.62673383  0.75037970  1  0.396615  0  0.081273  0.180043  0  4.093308  0
C  C137  1  0.24782115  0.87341868  0.24995504  1  0.395008  0  0.080932  0.180097  0  4.093941  0
C  C138  1  0.88330737  0.39873040  0.22739084  1  0.001818  0  -0.076328  -0.115627  0  3.938286  0
C  C139  1  0.65572396  0.10092161  0.77223353  1  -0.020799  0  -0.076316  -0.115114  0  3.938078  0
C  C140  1  0.11669055  0.60127190  0.77260987  1  0.001497  0  -0.076337  -0.115556  0  3.93832  0
C  C141  1  0.34427171  0.89907941  0.22776652  1  -0.021152  0  -0.076272  -0.114986  0  3.938173  0
C  C142  1  0.79462730  0.35765447  0.14317640  1  -0.036412  0  -0.10145  -0.19099  0  4.006675  0
C  C143  1  0.65141749  0.14180566  0.85650050  1  0.033835  0  -0.10171  -0.191381  0  4.00631  0
C  C144  1  0.20537133  0.64234848  0.85682514  1  -0.036036  0  -0.101531  -0.191211  0  4.006895  0
C  C145  1  0.34857519  0.85819858  0.14349811  1  0.033757  0  -0.101665  -0.191449  0  4.006376  0
C  C146  1  0.19157073  0.39671941  0.36798831  1  0.631422  0  0.071297  0.066809  0  3.932487  0
C  C147  1  0.82317159  0.10313861  0.63165377  1  0.608708  0  0.07089  0.067653  0  3.932884  0
C  C148  1  0.80842873  0.60328290  0.63201119  1  0.631418  0  0.071251  0.06677  0  3.932272  0
C  C149  1  0.17683375  0.89685854  0.36835145  1  0.609062  0  0.070997  0.067646  0  3.932956  0
C  C150  1  0.27895511  0.45338484  0.45471836  1  -0.001947  0  0.012634  0.113405  0  3.996481  0
C  C151  1  0.82368803  0.04636318  0.54495586  1  -0.028748  0  0.013609  0.113885  0  3.996509  0
C  C152  1  0.72104893  0.54661683  0.54528100  1  -0.001913  0  0.012635  0.113451  0  3.996403  0
C  C153  1  0.17632259  0.95363396  0.45505005  1  -0.028218  0  0.013682  0.114143  0  3.996179  0
C  C154  1  0.26028791  0.53886868  0.49296922  1  -0.068057  0  -0.076159  -0.158718  0  3.929022  0
C  C155  1  0.76688224  0.96084765  0.50685988  1  -0.038335  0  -0.075978  -0.159215  0  3.931194  0
C  C156  1  0.73971426  0.46113363  0.50703023  1  -0.068036  0  -0.076055  -0.158544  0  3.929073  0
C  C157  1  0.23313401  0.03915012  0.49314991  1  -0.038545  0  -0.076023  -0.159532  0  3.931065  0
C  C158  1  0.34247368  0.59074826  0.57597183  1  0.527856  0  0.043188  0.08607  0  3.957075  0
C  C159  1  0.76615910  0.90886103  0.42394731  1  0.483313  0  0.04406  0.088573  0  3.956727  0
C  C160  1  0.65753307  0.40925469  0.42402956  1  0.527846  0  0.043063  0.085834  0  3.957336  0
C  C161  1  0.23385372  0.09113482  0.57605962  1  0.483457  0  0.044083  0.088746  0  3.956776  0
C  C162  1  0.46108869  0.48122865  0.58562057  1  0.529907  0  0.050551  0.099419  0  3.965811  0
C  C163  1  0.87503882  0.01833420  0.41414595  1  0.459795  0  0.050432  0.099236  0  3.965234  0
C  C164  1  0.53891368  0.51877237  0.41437974  1  0.530135  0  0.050538  0.099383  0  3.965925  0
C  C165  1  0.12496993  0.98166358  0.58586006  1  0.460354  0  0.050566  0.099446  0  3.965241  0
C  C166  1  0.38330163  0.42489548  0.50225455  1  -0.076852  0  -0.075152  -0.164335  0  3.926222  0
C  C167  1  0.88053418  0.07477283  0.49740997  1  -0.007642  0  -0.075086  -0.164785  0  3.927249  0
C  C168  1  0.61669758  0.57510682  0.49774653  1  -0.077243  0  -0.075141  -0.164389  0  3.926192  0
C  C169  1  0.11947469  0.92522560  0.50259629  1  -0.008488  0  -0.075153  -0.164786  0  3.927287  0
C  C170  1  0.69687302  0.79987842  0.79593406  1  1.537231  0  0.198371  0.569163  0  4.201632  0
C  C171  1  0.90115636  0.70017409  0.20397005  1  1.539435  0  0.198889  0.569083  0  4.201272  0
C  C172  1  0.30312052  0.20012004  0.20406244  1  1.537175  0  0.198372  0.569027  0  4.201842  0
C  C173  1  0.09885114  0.29982627  0.79603522  1  1.539458  0  0.198706  0.568745  0  4.201468  0
C  C174  1  0.78233108  0.87485648  0.81081415  1  -0.030729  0  -0.017566  -0.030679  0  3.973074  0
C  C175  1  0.97178921  0.62525246  0.18900484  1  -0.08689  0  -0.018005  -0.03129  0  3.972033  0
C  C176  1  0.21766542  0.12514263  0.18918177  1  -0.030747  0  -0.017571  -0.030723  0  3.973085  0
C  C177  1  0.02822074  0.37474661  0.81099988  1  -0.086797  0  -0.017992  -0.031193  0  3.971914  0
C  C178  1  0.81678442  0.87717828  0.74071815  1  -0.079029  0  -0.08636  -0.099348  0  3.973141  0
C  C179  1  0.07649298  0.62296565  0.25904710  1  -0.053506  0  -0.08679  -0.100708  0  3.973429  0
C  C180  1  0.18321137  0.12282082  0.25927798  1  -0.078961  0  -0.086297  -0.099201  0  3.973129  0
C  C181  1  0.92351580  0.37703215  0.74095438  1  -0.053541  0  -0.086857  -0.100805  0  3.973159  0
C  C182  1  0.90133606  0.94417414  0.75477025  1  0.007837  0  -0.085948  -0.094967  0  3.985111  0
C  C183  1  0.14679997  0.55588741  0.24500596  1  -0.014193  0  -0.085697  -0.093726  0  3.985993  0
C  C184  1  0.09866302  0.05582560  0.24522745  1  0.007931  0  -0.08597  -0.095096  0  3.985073  0
C  C185  1  0.85320444  0.44411102  0.75499861  1  -0.014356  0  -0.085629  -0.093663  0  3.985876  0
C  C186  1  0.95099279  0.01100231  0.83860220  1  -0.068581  0  -0.015069  -0.028952  0  3.946495  0
C  C187  1  0.11232529  0.48899452  0.16120284  1  -0.035291  0  -0.015375  -0.029815  0  3.949298  0
C  C188  1  0.04900837  0.98899486  0.16139523  1  -0.068525  0  -0.01504  -0.028819  0  3.946423  0
C  C189  1  0.88767666  0.51100263  0.83879812  1  -0.035627  0  -0.015431  -0.029935  0  3.949349  0
C  C190  1  0.04633661  0.08192583  0.85489713  1  1.575716  0  0.207697  0.586406  0  4.209568  0
C  C191  1  0.19118686  0.41798715  0.14492321  1  1.574931  0  0.208837  0.587753  0  4.210579  0
C  C192  1  0.95366467  0.91807071  0.14509847  1  1.575674  0  0.207773  0.5865  0  4.209386  0
C  C193  1  0.80881205  0.58201002  0.85507564  1  1.575015  0  0.208848  0.587779  0  4.210622  0
C  C194  1  0.91287834  0.01011856  0.90736014  1  -0.006889  0  -0.084155  -0.091924  0  3.969739  0
C  C195  1  0.00526778  0.48981275  0.09251480  1  -0.058182  0  -0.083919  -0.091989  0  3.970066  0
C  C196  1  0.08711895  0.98988053  0.09263931  1  -0.007176  0  -0.08407  -0.091811  0  3.969943  0
C  C197  1  0.99473639  0.51019211  0.90748897  1  -0.057638  0  -0.083902  -0.091882  0  3.969751  0
C  C198  1  0.83076421  0.94202689  0.89426199  1  -0.034822  0  -0.084357  -0.091986  0  3.954248  0
C  C199  1  0.93643051  0.55798930  0.10560697  1  0.040826  0  -0.084098  -0.09065  0  3.950945  0
C  C200  1  0.16923528  0.05796836  0.10573431  1  -0.034744  0  -0.084418  -0.092093  0  3.954246  0
C  C201  1  0.06357786  0.44201172  0.89439382  1  0.040914  0  -0.084072  -0.090744  0  3.950896  0
C  C202  1  0.51002829  0.59000242  0.88697126  1  1.531011  0  0.195313  0.564198  0  4.226426  0
C  C203  1  0.62280623  0.90993068  0.11302466  1  1.536325  0  0.194716  0.564338  0  4.223791  0
C  C204  1  0.48997321  0.40999666  0.11303145  1  1.531072  0  0.195347  0.564329  0  4.226357  0
C  C205  1  0.37719298  0.09006970  0.88697329  1  1.536209  0  0.19471  0.564262  0  4.22378  0
C  C206  1  0.50400906  0.54512094  0.94655827  1  -0.019616  0  -0.018674  -0.037496  0  3.99548  0
C  C207  1  0.55723529  0.95482465  0.05344109  1  -0.073103  0  -0.01838  -0.036476  0  3.998113  0
C  C208  1  0.49598288  0.45487238  0.05343564  1  -0.019443  0  -0.018694  -0.037576  0  3.995618  0
C  C209  1  0.44276016  0.04517638  0.94655600  1  -0.073731  0  -0.018396  -0.036625  0  3.998252  0
C  C210  1  0.59424041  0.56811602  0.03179942  1  -0.054357  0  -0.091553  -0.115871  0  3.991989  0
C  C211  1  0.56249579  0.93195603  0.96833099  1  -0.03758  0  -0.091274  -0.116068  0  3.993892  0
C  C212  1  0.40575520  0.43187923  0.96819577  1  -0.0545  0  -0.091549  -0.115799  0  3.99186  0
C  C213  1  0.43749741  0.06804372  0.03166544  1  -0.0374  0  -0.091276  -0.116032  0  3.993868  0
C  C214  1  0.40962614  0.47680654  0.91492752  1  -0.086851  0  -0.082763  -0.095361  0  3.969879  0
C  C215  1  0.49438743  0.02308593  0.08496541  1  -0.056016  0  -0.083579  -0.096484  0  3.972833  0
C  C216  1  0.59036968  0.52318743  0.08506854  1  -0.086879  0  -0.082784  -0.095359  0  3.969939  0
C  C217  1  0.50560661  0.97691510  0.91503211  1  -0.055377  0  -0.083551  -0.096347  0  3.9727  0
C  C218  1  0.34384187  0.78220831  0.81611891  1  1.362662  0  0.174863  0.305263  0  4.102973  0
C  C219  1  0.52708291  0.71782344  0.18361331  1  1.394226  0  0.17414  0.302594  0  4.101859  0
C  C220  1  0.65614300  0.21778437  0.18387605  1  1.362784  0  0.174772  0.305123  0  4.103104  0
C  C221  1  0.47291494  0.28218208  0.81638887  1  1.393728  0  0.174176  0.302673  0  4.101611  0
C  C222  1  0.18052307  0.82160138  0.71060064  1  0.275268  0  -0.130054  -0.266053  0  3.881673  0
C  C223  1  0.46935938  0.67804559  0.28889966  1  0.275428  0  -0.13038  -0.267021  0  3.879922  0
C  C224  1  0.81947026  0.17839837  0.28939501  1  0.276312  0  -0.130006  -0.265813  0  3.881573  0
C  C225  1  0.53063434  0.32195673  0.71109778  1  0.275238  0  -0.130366  -0.267052  0  3.879833  0
C  C226  1  0.21318692  0.88397036  0.87233972  1  0.283882  0  -0.134928  -0.276745  0  3.902941  0
C  C227  1  0.34008453  0.61600219  0.12719512  1  0.259936  0  -0.134879  -0.278907  0  3.903377  0
C  C228  1  0.78680404  0.11602810  0.12765605  1  0.283805  0  -0.134999  -0.276928  0  3.903124  0
C  C229  1  0.65991392  0.38399498  0.87280236  1  0.25978  0  -0.134911  -0.278893  0  3.903369  0
C  C230  1  0.33629051  0.76126267  0.49722155  1  0.273366  0  -0.153355  -0.215603  0  4.037601  0
C  C231  1  0.83938898  0.73887419  0.50327666  1  0.240761  0  -0.153832  -0.216898  0  4.037818  0
C  C232  1  0.66370544  0.23873773  0.50277135  1  0.273961  0  -0.153312  -0.215472  0  4.037541  0
C  C233  1  0.16061723  0.26112554  0.49672720  1  0.240257  0  -0.153795  -0.217022  0  4.037902  0
C  C234  1  0.51316628  0.86527013  0.54248868  1  0.264615  0  -0.153223  -0.215701  0  4.014058  0
C  C235  1  0.97122579  0.63512627  0.45790027  1  0.262501  0  -0.153376  -0.216147  0  4.015067  0
C  C236  1  0.48682781  0.13473348  0.45750847  1  0.264257  0  -0.15324  -0.215654  0  4.013999  0
C  C237  1  0.02879206  0.36487663  0.54211212  1  0.262363  0  -0.153359  -0.216319  0  4.01501  0
N  N238  1  0.08719860  0.42112950  0.33425225  1  -1.204667  0  -0.302734  -0.281652  0  3.392046  0
N  N239  1  0.75255020  0.07876626  0.66540427  1  -1.182179  0  -0.3029  -0.282529  0  3.394143  0
N  N240  1  0.91280261  0.57887217  0.66574795  1  -1.204621  0  -0.302675  -0.281583  0  3.391881  0
N  N241  1  0.24745080  0.92123090  0.33459847  1  -1.182401  0  -0.302972  -0.282627  0  3.3944  0
N  N242  1  0.44126919  0.56261277  0.62221785  1  -1.230951  0  -0.328318  -0.233916  0  3.498801  0
N  N243  1  0.81872654  0.93692736  0.37769600  1  -1.226594  0  -0.329504  -0.235377  0  3.499421  0
N  N244  1  0.55873627  0.43738954  0.37778213  1  -1.231073  0  -0.328284  -0.23375  0  3.498696  0
N  N245  1  0.18128608  0.06307106  0.62231215  1  -1.227057  0  -0.329646  -0.235569  0  3.49982  0
N  N246  1  0.24968597  0.82749272  0.80101081  1  -1.193984  0  -0.278896  0.031897  0  3.713344  0
N  N247  1  0.44801150  0.67241362  0.19856573  1  -1.203388  0  -0.278867  0.034298  0  3.710289  0
N  N248  1  0.75030164  0.17250190  0.19898270  1  -1.194488  0  -0.278829  0.031998  0  3.713264  0
N  N249  1  0.55198720  0.32758420  0.80143122  1  -1.203237  0  -0.27891  0.034254  0  3.710452  0
N  N250  1  0.42337257  0.83261726  0.56993764  1  -1.065915  0  -0.507841  -0.292987  0  3.45032  0
N  N251  1  0.85380834  0.66764477  0.43052586  1  -1.071494  0  -0.50683  -0.291393  0  3.449123  0
N  N252  1  0.57662088  0.16738250  0.43005722  1  -1.065649  0  -0.507853  -0.293064  0  3.45036  0
N  N253  1  0.14620550  0.33235558  0.56948205  1  -1.071267  0  -0.506747  -0.291084  0  3.448895  0
O  O254  1  0.72631296  0.24972893  0.99983098  1  -1.108073  0  -0.148989  -0.214965  0  2.602137  0
O  O255  1  0.27368384  0.75027660  0.00016925  1  -1.107978  0  -0.14894  -0.214829  0  2.602074  0
O  O256  1  0.63325209  0.75051659  0.71656220  1  -1.174863  0  -0.326726  -0.558402  0  2.171599  0
O  O257  1  0.91695890  0.74941632  0.28338025  1  -1.17615  0  -0.326731  -0.558128  0  2.170235  0
O  O258  1  0.36674336  0.24948317  0.28343281  1  -1.174721  0  -0.326701  -0.558292  0  2.171646  0
O  O259  1  0.08304673  0.25058404  0.71662407  1  -1.176082  0  -0.326696  -0.558031  0  2.170273  0
O  O260  1  0.69095178  0.78597377  0.86355386  1  -1.181848  0  -0.334266  -0.59998  0  2.32413  0
O  O261  1  0.82738082  0.71406130  0.13639107  1  -1.186366  0  -0.334379  -0.599884  0  2.325092  0
O  O262  1  0.30904433  0.21402341  0.13644131  1  -1.181916  0  -0.334285  -0.599909  0  2.324119  0
O  O263  1  0.17262323  0.28593776  0.86361690  1  -1.186555  0  -0.334251  -0.599643  0  2.325084  0
O  O264  1  0.07213564  0.08050778  0.78848546  1  -1.177334  0  -0.326533  -0.564011  0  2.290402  0
O  O265  1  0.28350736  0.41945546  0.21132169  1  -1.181684  0  -0.326907  -0.564023  0  2.290983  0
O  O266  1  0.92786165  0.91949067  0.21151294  1  -1.177223  0  -0.326618  -0.564142  0  2.290197  0
O  O267  1  0.71649246  0.58053914  0.78867573  1  -1.181725  0  -0.326964  -0.564104  0  2.291106  0
O  O268  1  0.09324044  0.13658070  0.93510039  1  -1.171839  0  -0.331268  -0.591283  0  2.312029  0
O  O269  1  0.15769908  0.36324610  0.06474378  1  -1.171715  0  -0.331852  -0.592444  0  2.311841  0
O  O270  1  0.90676504  0.86341519  0.06489743  1  -1.171883  0  -0.331301  -0.591321  0  2.312196  0
O  O271  1  0.84230175  0.63675427  0.93525670  1  -1.171627  0  -0.331835  -0.592436  0  2.311814  0
O  O272  1  0.45459333  0.55152259  0.80390694  1  -1.139126  0  -0.321311  -0.528873  0  2.159219  0
O  O273  1  0.65038561  0.94837742  0.19608074  1  -1.128341  0  -0.320701  -0.528539  0  2.156494  0
O  O274  1  0.54540858  0.44847779  0.19609097  1  -1.139138  0  -0.321365  -0.528976  0  2.159243  0
O  O275  1  0.34961321  0.05162104  0.80391645  1  -1.12843  0  -0.320708  -0.528491  0  2.156446  0
O  O276  1  0.56979160  0.66627049  0.92081196  1  -1.185993  0  -0.345514  -0.607364  0  2.346782  0
O  O277  1  0.64891113  0.83372474  0.07922744  1  -1.186835  0  -0.345843  -0.608211  0  2.346375  0
O  O278  1  0.43021103  0.33372729  0.07919435  1  -1.186085  0  -0.345526  -0.607425  0  2.346713  0
O  O279  1  0.35109308  0.16627951  0.92077076  1  -1.186632  0  -0.345823  -0.608115  0  2.34621  0
O  O280  1  0.37786978  0.73451471  0.75537017  1  -1.167585  0  -0.310249  -0.468921  0  2.350221  0
O  O281  1  0.62191289  0.76546508  0.24445604  1  -1.171063  0  -0.310123  -0.468434  0  2.34939  0
O  O282  1  0.62211963  0.26547731  0.24462917  1  -1.167342  0  -0.310177  -0.468862  0  2.350213  0
O  O283  1  0.37807786  0.23453467  0.75553887  1  -1.170287  0  -0.31014  -0.468532  0  2.349001  0
