# generated using pymatgen
data_Mn2H12C7O6
_symmetry_space_group_name_H-M   'P 1'
_cell_length_a   8.03114799
_cell_length_b   9.35127574
_cell_length_c   13.46200000
_cell_angle_alpha   90.00000000
_cell_angle_beta   94.92943010
_cell_angle_gamma   90.00000000
_symmetry_Int_Tables_number   1
_chemical_formula_structural   Mn2H12C7O6
_chemical_formula_sum   'Mn8 H48 C28 O24'
_cell_volume   1007.27665969
_cell_formula_units_Z   4
loop_
 _symmetry_equiv_pos_site_id
 _symmetry_equiv_pos_as_xyz
  1  'x, y, z'
loop_
 _atom_site_type_symbol
 _atom_site_label
 _atom_site_symmetry_multiplicity
 _atom_site_fract_x
 _atom_site_fract_y
 _atom_site_fract_z
 _atom_site_occupancy
 _atom_site_hle17_ddec_charge
 _atom_site_hle17_ddec_spin_density
 _atom_site_hle17_ddec_sum_bond_order
 _atom_site_hle17_magmom
 _atom_site_hse06_10hf_ddec_charge
 _atom_site_hse06_10hf_ddec_spin_density
 _atom_site_hse06_10hf_ddec_sum_bond_order
 _atom_site_hse06_10hf_magmom
 _atom_site_hse06_ddec_charge
 _atom_site_hse06_ddec_spin_density
 _atom_site_hse06_ddec_sum_bond_order
 _atom_site_hse06_magmom
 _atom_site_pbe_bader_charge
 _atom_site_pbe_bader_spin_density
 _atom_site_pbe_cm5_charge
 _atom_site_pbe_ddec_charge
 _atom_site_pbe_ddec_spin_density
 _atom_site_pbe_ddec_sum_bond_order
 _atom_site_pbe_magmom
Mn  Mn0  1  0.05114452  0.66202839  0.97614880  1  1.25959  4.770597  1.742499  4.656  1.109763  4.705882  2.244982  4.522  1.172301  4.743632  2.166208  4.582  1.470415  4.568569  0.594783  1.059219  4.669215  2.303451  4.465
Mn  Mn1  1  0.44885903  0.16202923  0.02385383  1  1.259656  4.770591  1.742595  4.656  1.109875  4.705857  2.245045  4.521  1.172427  4.743612  2.166233  4.582  1.470342  4.568537  0.594769  1.059334  4.669184  2.303519  4.465
Mn  Mn2  1  0.94885634  0.33797314  0.02385169  1  1.259622  4.770573  1.74257  4.656  1.109801  4.705846  2.245082  4.522  1.172363  4.743598  2.166257  4.582  1.47049  4.568517  0.59478  1.05926  4.669177  2.303551  4.465
Mn  Mn3  1  0.55114308  0.83797230  0.97614672  1  1.259634  4.770575  1.742631  4.656  1.109825  4.705844  2.245128  4.521  1.172396  4.7436  2.166282  4.582  1.470424  4.568507  0.594767  1.059281  4.669169  2.303603  4.465
Mn  Mn4  1  0.11748631  0.01586628  0.90308780  1  1.255851  4.795591  1.72833  4.688  1.112586  4.733108  2.210495  4.563  1.169968  4.765356  2.139057  4.615  1.505631  4.586633  0.575545  1.067758  4.701302  2.262475  4.513
Mn  Mn5  1  0.38250850  0.51586972  0.09691290  1  1.255878  4.795578  1.728229  4.688  1.112648  4.733109  2.210334  4.563  1.170033  4.765352  2.138899  4.615  1.505684  4.586644  0.575602  1.067817  4.701307  2.262314  4.513
Mn  Mn6  1  0.88251206  0.98413096  0.09691182  1  1.255876  4.79557  1.72833  4.688  1.112614  4.733095  2.210471  4.563  1.169997  4.765343  2.139031  4.615  1.505638  4.586633  0.575567  1.067785  4.701289  2.262453  4.513
Mn  Mn7  1  0.61749611  0.48412967  0.90309001  1  1.255931  4.795583  1.728165  4.688  1.112702  4.733128  2.210268  4.563  1.170083  4.765372  2.138833  4.615  1.505595  4.586669  0.575596  1.067874  4.701326  2.262247  4.513
H  H8  1  0.09243583  0.59561820  0.29851883  1  0.106265  0.000288  0.916654  0.001  0.124083  0.000752  0.973501  0.001  0.126287  0.000429  0.972593  0.001  0.023161  0.002718  0.105484  0.122086  0.001274  0.974845  0.001
H  H9  1  0.40756523  0.09561155  0.70148293  1  0.106315  0.000289  0.916644  0.001  0.12408  0.000752  0.973496  0.001  0.126284  0.000429  0.972589  0.001  0.02309  0.002718  0.1055  0.122088  0.001274  0.97484  0.001
H  H10  1  0.90756379  0.40438119  0.70148159  1  0.106283  0.000289  0.916665  0.001  0.124079  0.000752  0.973517  0.001  0.126283  0.000428  0.97261  0.001  0.023168  0.002718  0.10549  0.122083  0.001274  0.97486  0.001
H  H11  1  0.59243313  0.90438462  0.29851892  1  0.106363  0.00028  0.916643  0.001  0.124095  0.000752  0.973492  0.001  0.126299  0.000428  0.972584  0.001  0.023101  0.002718  0.105511  0.122103  0.001274  0.974837  0.001
H  H12  1  0.30520245  0.62938364  0.29526386  1  0.111521  0.000137  0.95601  0.0  0.122682  0.000586  1.023471  0.001  0.125598  0.000376  1.021765  0.0  0.08718  0.001668  0.104485  0.120489  0.000796  1.024875  0.001
H  H13  1  0.19479736  0.12937914  0.70473636  1  0.111551  0.000136  0.956001  0.0  0.122666  0.000585  1.023461  0.001  0.125582  0.000376  1.021755  0.0  0.08713  0.001668  0.104474  0.120476  0.000796  1.024867  0.001
H  H14  1  0.69479592  0.37061681  0.70473576  1  0.11154  0.000139  0.955991  0.0  0.122684  0.000585  1.02346  0.001  0.125601  0.000376  1.021751  0.0  0.087171  0.001668  0.104496  0.120491  0.000796  1.024863  0.001
H  H15  1  0.80520100  0.87061918  0.29526549  1  0.111582  0.000121  0.956053  0.0  0.122676  0.000585  1.023498  0.001  0.125592  0.000375  1.021793  0.0  0.087158  0.001668  0.104471  0.120485  0.000796  1.024906  0.001
H  H16  1  0.08301503  0.61492893  0.47844296  1  0.046899  2.8e-05  0.945228  0.0  0.063952  8.5e-05  1.013971  0.0  0.064493  6.6e-05  1.014205  0.0  0.001122  0.000181  0.081572  0.063255  0.000135  1.01471  0.0
H  H17  1  0.41698728  0.11492443  0.52155664  1  0.046896  3.9e-05  0.945217  0.0  0.063953  8.4e-05  1.013946  0.0  0.064495  6.6e-05  1.01418  0.0  0.001028  0.000181  0.081562  0.063256  0.000135  1.014688  0.0
H  H18  1  0.91698084  0.38507580  0.52155727  1  0.046879  2.8e-05  0.945274  0.0  0.063954  8.4e-05  1.013991  0.0  0.064494  6.6e-05  1.014228  0.0  0.001103  0.000181  0.081588  0.063258  0.000135  1.01473  0.0
H  H19  1  0.58301233  0.88507496  0.47844156  1  0.046894  2.9e-05  0.945208  0.0  0.063956  8.4e-05  1.013943  0.0  0.064499  6.6e-05  1.014175  0.0  0.001076  0.000181  0.081561  0.063261  0.000135  1.014683  0.0
H  H20  1  0.30239670  0.62442282  0.48690134  1  0.056079  -5e-06  0.937357  0.0  0.077062  2.8e-05  0.997014  0.0  0.077426  2.6e-05  0.997991  0.0  0.020531  6.9e-05  0.086482  0.076579  2.5e-05  0.996631  0.0
H  H21  1  0.19760310  0.12441939  0.51309813  1  0.05607  9e-06  0.937321  0.0  0.077049  2.8e-05  0.996979  0.0  0.077414  2.5e-05  0.997955  0.0  0.020528  6.9e-05  0.08646  0.076566  2.5e-05  0.996597  0.0
H  H22  1  0.69759666  0.37557870  0.51309803  1  0.056065  -3e-06  0.937295  0.0  0.077132  2.8e-05  0.996872  0.0  0.077499  2.5e-05  0.997849  0.0  0.02047  6.9e-05  0.086496  0.076646  2.5e-05  0.996495  0.0
H  H23  1  0.80239526  0.87557893  0.48690074  1  0.056102  -2e-06  0.937333  0.0  0.077085  2.9e-05  0.996989  0.0  0.07745  2.5e-05  0.997967  0.0  0.020555  6.9e-05  0.086476  0.076602  2.5e-05  0.996607  0.0
H  H24  1  0.09152599  0.59708752  0.65690333  1  0.089763  4.8e-05  0.939384  0.0  0.103775  0.000344  1.006136  0.001  0.105767  0.000196  1.005015  0.0  0.017756  0.00147  0.096473  0.102077  0.000638  1.007692  0.001
H  H25  1  0.40847507  0.09708622  0.34309843  1  0.089733  3.7e-05  0.939413  0.0  0.103757  0.000343  1.006155  0.001  0.105752  0.000195  1.005031  0.0  0.017719  0.00147  0.096471  0.102056  0.000638  1.007712  0.001
H  H26  1  0.90847487  0.40291401  0.34309567  1  0.089729  4.8e-05  0.939401  0.0  0.103739  0.000344  1.006173  0.001  0.105732  0.000195  1.005049  0.0  0.01789  0.00147  0.096455  0.102041  0.000638  1.007728  0.001
H  H27  1  0.59152455  0.90290996  0.65690645  1  0.089742  5e-05  0.939398  0.0  0.103782  0.000343  1.006134  0.001  0.105777  0.000195  1.005012  0.0  0.017285  0.00147  0.096474  0.102081  0.000638  1.007692  0.001
H  H28  1  0.30773074  0.61839905  0.67757293  1  0.112417  -0.000161  0.919081  0.0  0.128879  0.000151  0.977974  0.001  0.130877  -1.5e-05  0.977809  0.0  0.087817  0.001381  0.106367  0.127293  0.000373  0.978329  0.001
H  H29  1  0.19227282  0.11839882  0.32242747  1  0.112427  -0.000186  0.919051  0.0  0.12886  0.000151  0.977976  0.001  0.130858  -1.6e-05  0.977814  0.0  0.087843  0.00138  0.106355  0.127276  0.000373  0.978327  0.001
H  H30  1  0.69227012  0.38160248  0.32242607  1  0.112392  -0.000169  0.919107  0.0  0.128879  0.00015  0.977985  0.001  0.13086  -1.5e-05  0.97784  0.0  0.087793  0.00138  0.106352  0.12729  0.000373  0.97834  0.001
H  H31  1  0.80772930  0.88159843  0.67757383  1  0.112419  -0.000162  0.919096  0.0  0.128872  0.00015  0.978002  0.001  0.130872  -1.5e-05  0.977841  0.0  0.087838  0.00138  0.106374  0.127288  0.000373  0.978356  0.001
H  H32  1  0.29248849  0.85250721  0.58621810  1  0.061413  -8.6e-05  0.937501  0.0  0.082058  -4.2e-05  0.997886  0.0  0.08216  -5.1e-05  0.999271  0.0  0.001525  0.000178  0.088524  0.081633  -1.1e-05  0.99752  0.0
H  H33  1  0.20751382  0.35250484  0.41378298  1  0.061372  -8.5e-05  0.937517  0.0  0.082017  -4.2e-05  0.997907  0.0  0.082109  -5.1e-05  0.999304  0.0  0.001413  0.000178  0.088541  0.081596  -1.1e-05  0.997536  0.0
H  H34  1  0.70751112  0.14749218  0.41377935  1  0.061398  -8.1e-05  0.937443  0.0  0.082048  -4.2e-05  0.997829  0.0  0.08215  -5.1e-05  0.999212  0.0  0.001675  0.000178  0.088516  0.081622  -1.1e-05  0.997464  0.0
H  H35  1  0.79248580  0.64749454  0.58621670  1  0.061405  -9.1e-05  0.937502  0.0  0.082047  -4.2e-05  0.997901  0.0  0.08214  -5.1e-05  0.999296  0.0  0.001418  0.000178  0.088543  0.081627  -1.1e-05  0.997529  0.0
H  H36  1  0.07271938  0.84546860  0.57518378  1  0.059852  -0.00011  0.937241  0.0  0.079688  -8.1e-05  0.998569  0.0  0.080434  -8.7e-05  0.998745  0.0  0.018647  0.000133  0.088046  0.079073  -7.8e-05  0.998633  0.0
H  H37  1  0.42728167  0.34546623  0.42481798  1  0.059758  -0.0001  0.937289  0.0  0.079586  -8.2e-05  0.998662  0.0  0.080332  -8.7e-05  0.998836  0.0  0.018653  0.000133  0.087984  0.078972  -7.8e-05  0.998727  0.0
H  H38  1  0.92728273  0.15453506  0.42481751  1  0.059799  -0.000104  0.937238  0.0  0.079642  -8.2e-05  0.998575  0.0  0.080388  -8.7e-05  0.998751  0.0  0.018692  0.000133  0.08802  0.079027  -7.8e-05  0.998641  0.0
H  H39  1  0.57271419  0.65453422  0.57518300  1  0.059808  -0.000104  0.937235  0.0  0.079694  -8.2e-05  0.998519  0.0  0.080439  -8.7e-05  0.998694  0.0  0.018633  0.000133  0.088051  0.079079  -7.8e-05  0.998585  0.0
H  H40  1  0.06269744  0.84327959  0.38092095  1  0.065575  -0.000191  0.942921  0.0  0.083834  -0.0002  1.005255  0.0  0.084926  -0.000206  1.005136  0.0  0.039725  0.000228  0.090042  0.08295  -0.000185  1.005533  0.0
H  H41  1  0.43730362  0.34327509  0.61907932  1  0.065623  -0.000192  0.942877  0.0  0.083872  -0.0002  1.005215  0.0  0.084961  -0.000206  1.005096  0.0  0.039757  0.000228  0.090063  0.082988  -0.000185  1.00549  0.0
H  H42  1  0.93729967  0.15672300  0.61907563  1  0.065621  -0.000188  0.942915  0.0  0.083858  -0.0002  1.005265  0.0  0.084948  -0.000206  1.005146  0.0  0.039727  0.000228  0.09005  0.082974  -0.000185  1.005542  0.0
H  H43  1  0.56269475  0.65672109  0.38092104  1  0.065566  -0.000197  0.942887  0.0  0.083816  -0.0002  1.005234  0.0  0.084906  -0.000206  1.005115  0.0  0.039709  0.000228  0.090027  0.082933  -0.000185  1.005508  0.0
H  H44  1  0.28185416  0.85674407  0.38979567  1  0.058509  -1.6e-05  0.937168  0.0  0.079792  7e-06  0.996308  0.0  0.079705  -4e-06  0.997951  0.0  0.022351  0.000179  0.087601  0.079577  4e-05  0.995589  0.0
H  H45  1  0.21814690  0.35673956  0.61020535  1  0.058516  -1.7e-05  0.93714  0.0  0.079786  7e-06  0.996292  0.0  0.079699  -4e-06  0.997933  0.0  0.022409  0.000179  0.08757  0.079568  3.9e-05  0.99557  0.0
H  H46  1  0.71814671  0.14325746  0.61020408  1  0.0585  -1.6e-05  0.937181  0.0  0.079791  7e-06  0.99631  0.0  0.079703  -4e-06  0.997952  0.0  0.022361  0.000179  0.087595  0.079575  3.9e-05  0.995591  0.0
H  H47  1  0.78185021  0.64325983  0.38979494  1  0.058521  -1.5e-05  0.937135  0.0  0.0798  7e-06  0.996275  0.0  0.079713  -4e-06  0.997916  0.0  0.022426  0.000179  0.087564  0.079581  3.9e-05  0.995553  0.0
H  H48  1  0.78673058  0.59067983  0.06063271  1  0.407782  0.000278  0.876451  0.003  0.383939  0.003463  0.942767  0.006  0.392831  0.002244  0.931505  0.006  0.600229  0.006361  0.304084  0.377222  0.004559  0.949008  0.007
H  H49  1  0.71327008  0.09068281  0.93936874  1  0.407823  0.000279  0.876392  0.003  0.383976  0.003461  0.942703  0.006  0.392866  0.002242  0.931448  0.006  0.600735  0.006356  0.304096  0.377261  0.004557  0.948939  0.007
H  H50  1  0.21327153  0.40931955  0.93937082  1  0.407744  0.000279  0.876383  0.003  0.383908  0.003463  0.942704  0.006  0.3928  0.002244  0.931524  0.006  0.600746  0.006356  0.304085  0.377192  0.004559  0.948942  0.007
H  H51  1  0.28672703  0.90931764  0.06063156  1  0.407782  0.000278  0.876431  0.003  0.383941  0.003462  0.942745  0.006  0.392833  0.002242  0.931494  0.006  0.600698  0.006356  0.30407  0.377226  0.004558  0.948982  0.007
H  H52  1  0.85031036  0.86045051  0.91355774  1  0.3908  0.001883  0.93531  0.003  0.364025  0.005485  0.996748  0.007  0.373283  0.004194  0.983359  0.006  0.620883  0.005658  0.287245  0.357424  0.006628  1.006196  0.007
H  H53  1  0.64969030  0.36044601  0.08644296  1  0.39079  0.001883  0.935314  0.003  0.364021  0.005485  0.996749  0.007  0.373276  0.004193  0.983364  0.006  0.620891  0.005658  0.287224  0.357419  0.006628  1.006198  0.007
H  H54  1  0.14968925  0.13955208  0.08644269  1  0.390765  0.001884  0.935353  0.003  0.363997  0.005485  0.996784  0.007  0.373253  0.004193  0.983398  0.006  0.620895  0.005658  0.287242  0.357396  0.006628  1.006232  0.007
H  H55  1  0.35031056  0.63955231  0.91355753  1  0.390777  0.001883  0.935339  0.003  0.364008  0.005485  0.996768  0.007  0.373264  0.004193  0.983382  0.006  0.620896  0.005658  0.28724  0.357407  0.006627  1.006216  0.007
C  C56  1  0.18405805  0.68361796  0.29613947  1  -0.279941  0.001415  3.692281  0.002  -0.318014  0.002665  3.943183  0.002  -0.325041  0.001777  3.951971  0.002  -0.010929  0.004918  -0.162213  -0.31273  0.003623  3.937016  0.003
C  C57  1  0.31594176  0.18361238  0.70386000  1  -0.280061  0.001411  3.692361  0.002  -0.317958  0.002664  3.943043  0.002  -0.324986  0.001776  3.951832  0.002  -0.0108  0.004918  -0.162242  -0.312692  0.003623  3.936897  0.003
C  C58  1  0.81594031  0.31638250  0.70385866  1  -0.279955  0.001408  3.692275  0.002  -0.317967  0.002666  3.943113  0.002  -0.324994  0.001777  3.951901  0.002  -0.01092  0.004919  -0.162194  -0.312683  0.003624  3.936943  0.003
C  C59  1  0.68405785  0.81638701  0.29613894  1  -0.28018  0.001461  3.692525  0.002  -0.317965  0.002663  3.943103  0.002  -0.324993  0.001779  3.951893  0.002  -0.01078  0.004918  -0.162234  -0.312703  0.003623  3.936963  0.003
C  C60  1  0.18862098  0.69112602  0.48274019  1  -0.105969  0.000299  3.707347  0.0  -0.144114  0.000468  3.969553  0.0  -0.145357  0.000349  3.985228  0.0  0.001206  0.000657  -0.16547  -0.142911  0.000616  3.958247  0.0
C  C61  1  0.31138258  0.19112259  0.51725947  1  -0.106023  0.000255  3.707365  0.0  -0.144152  0.000469  3.969556  0.0  -0.145398  0.000348  3.98523  0.0  0.001216  0.000657  -0.165444  -0.142951  0.000616  3.95825  0.0
C  C62  1  0.81137739  0.30887550  0.51725720  1  -0.106026  0.000291  3.707277  0.0  -0.144227  0.000469  3.969524  0.0  -0.145473  0.00035  3.985197  0.0  0.001221  0.000657  -0.165519  -0.143025  0.000616  3.958216  0.0
C  C63  1  0.68861828  0.80887573  0.48274028  1  -0.106059  0.000289  3.707282  0.0  -0.14422  0.000468  3.969532  0.0  -0.145464  0.00035  3.985206  0.0  0.001209  0.000657  -0.165491  -0.143018  0.000616  3.958227  0.0
C  C64  1  0.16716610  0.74765842  0.76814606  1  0.730055  0.008577  3.80505  0.009  0.681632  0.015964  4.099433  0.015  0.716312  0.011628  4.092688  0.012  1.501372  0.022074  0.231904  0.657293  0.020647  4.103051  0.019
C  C65  1  0.33283996  0.24766674  0.23185447  1  0.729889  0.008546  3.805354  0.009  0.681448  0.015964  4.09978  0.015  0.716127  0.011627  4.09304  0.012  1.50147  0.022071  0.231742  0.657111  0.020646  4.103395  0.019
C  C66  1  0.83283727  0.25234418  0.23185307  1  0.729932  0.008558  3.805181  0.009  0.681509  0.015962  4.099595  0.015  0.716189  0.011626  4.09285  0.012  1.50094  0.022078  0.231875  0.657172  0.020646  4.103209  0.019
C  C67  1  0.66716840  0.75233371  0.76814715  1  0.729862  0.00857  3.805439  0.009  0.68144  0.015962  4.09986  0.015  0.71612  0.011627  4.093123  0.012  1.50147  0.022073  0.231757  0.657103  0.020646  4.103474  0.019
C  C68  1  0.18969578  0.67934581  0.66834424  1  -0.268395  0.001912  3.693083  0.002  -0.307578  0.002389  3.948513  0.002  -0.313895  0.001611  3.957827  0.002  -0.020279  0.004673  -0.163324  -0.302904  0.003171  3.941828  0.003
C  C69  1  0.31030652  0.17934451  0.33165610  1  -0.268411  0.001986  3.693053  0.002  -0.307571  0.002388  3.948478  0.002  -0.313893  0.001614  3.957797  0.002  -0.020266  0.004674  -0.163304  -0.302896  0.003171  3.941793  0.003
C  C70  1  0.81030383  0.32065892  0.33165470  1  -0.268397  0.001927  3.693021  0.002  -0.307605  0.002389  3.948479  0.002  -0.313918  0.001611  3.957807  0.002  -0.020471  0.004673  -0.163314  -0.302927  0.003171  3.941787  0.003
C  C71  1  0.68969434  0.82065487  0.66834588  1  -0.268348  0.00191  3.692972  0.002  -0.307572  0.002389  3.948471  0.002  -0.313902  0.001611  3.9578  0.002  -0.019834  0.004673  -0.163319  -0.302899  0.003171  3.941788  0.003
C  C72  1  0.18575024  0.77819329  0.57844506  1  -0.080441  0.000411  3.716372  0.001  -0.124491  0.000595  3.979212  0.001  -0.124551  0.000396  3.99401  0.001  -0.002458  0.001383  -0.168045  -0.123991  0.000831  3.968406  0.001
C  C73  1  0.31425331  0.27819306  0.42155461  1  -0.080216  0.000395  3.716254  0.0  -0.124282  0.000595  3.979112  0.001  -0.124335  0.000396  3.993912  0.001  -0.002335  0.001382  -0.168007  -0.123785  0.000831  3.968306  0.001
C  C74  1  0.81425062  0.22180824  0.42155320  1  -0.080219  0.0004  3.716092  0.001  -0.124286  0.000595  3.978995  0.001  -0.12434  0.000395  3.99379  0.001  -0.002606  0.001383  -0.167967  -0.123785  0.000831  3.968187  0.001
C  C75  1  0.68574505  0.72180633  0.57844501  1  -0.080351  0.000409  3.716099  0.001  -0.124433  0.000596  3.978998  0.001  -0.124484  0.000395  3.993797  0.001  -0.002305  0.001383  -0.168058  -0.123936  0.000831  3.968194  0.001
C  C76  1  0.17811662  0.77935569  0.38730496  1  -0.079607  8.4e-05  3.709783  0.0  -0.122476  0.000406  3.969861  0.0  -0.12266  0.000229  3.984872  0.0  -0.033821  0.001128  -0.167575  -0.122012  0.000639  3.959007  0.001
C  C77  1  0.32188444  0.27935012  0.61269680  1  -0.079629  9.9e-05  3.70991  0.0  -0.122513  0.000405  3.969914  0.0  -0.122687  0.000229  3.984907  0.0  -0.033914  0.001128  -0.167563  -0.122042  0.000639  3.959062  0.001
C  C78  1  0.82188174  0.22064583  0.61269466  1  -0.079661  8.8e-05  3.709828  0.0  -0.122541  0.000404  3.969914  0.0  -0.122722  0.000228  3.984922  0.0  -0.033807  0.001128  -0.167611  -0.122076  0.000639  3.959058  0.001
C  C79  1  0.67811268  0.72064820  0.38730349  1  -0.079532  9.2e-05  3.709832  0.0  -0.122452  0.000405  3.969852  0.0  -0.122628  0.000228  3.98485  0.0  -0.033896  0.001128  -0.167511  -0.121979  0.000639  3.958999  0.001
C  C80  1  0.14315668  0.75617597  0.19694423  1  0.738424  0.012883  3.776699  0.015  0.688967  0.022589  4.067716  0.022  0.725286  0.016443  4.059216  0.017  1.515277  0.032048  0.239019  0.663032  0.029545  4.073232  0.028
C  C81  1  0.35684438  0.25617360  0.80305753  1  0.738552  0.012889  3.776707  0.015  0.689107  0.022583  4.067645  0.022  0.725421  0.016439  4.059148  0.017  1.515342  0.032041  0.239095  0.663177  0.029538  4.073159  0.028
C  C82  1  0.85684544  0.24381914  0.80305632  1  0.738561  0.012879  3.776688  0.015  0.689092  0.022585  4.067707  0.022  0.725407  0.01644  4.05921  0.017  1.515328  0.032044  0.239079  0.663157  0.02954  4.073222  0.028
C  C83  1  0.64315023  0.74382257  0.19694190  1  0.738569  0.012857  3.776744  0.015  0.689065  0.022584  4.067709  0.022  0.725381  0.016438  4.059216  0.017  1.515353  0.032042  0.239097  0.663138  0.029538  4.073225  0.028
O  O84  1  0.83262605  0.55086495  0.00176647  1  -1.009585  0.119399  1.859592  0.076  -0.915683  0.144341  2.162735  0.089  -0.957215  0.129786  2.124578  0.077  -1.300643  0.208587  -0.556102  -0.882382  0.157637  2.186865  0.1
O  O85  1  0.66736836  0.05086793  0.99823243  1  -1.009705  0.119405  1.859654  0.076  -0.915779  0.144349  2.162794  0.089  -0.957324  0.129797  2.124661  0.077  -1.301168  0.208587  -0.556123  -0.88248  0.157645  2.186931  0.1
O  O86  1  0.16737106  0.44913337  0.99823457  1  -1.009544  0.119398  1.859514  0.076  -0.915651  0.144341  2.162641  0.089  -0.957187  0.129788  2.124568  0.077  -1.301259  0.208616  -0.556113  -0.882351  0.157638  2.186768  0.1
O  O87  1  0.33263125  0.94912932  0.00176800  1  -1.009646  0.119403  1.859632  0.076  -0.915732  0.144345  2.162741  0.089  -0.957277  0.129792  2.124615  0.077  -1.3011  0.208581  -0.556091  -0.882434  0.157641  2.18688  0.1
O  O88  1  0.19043190  0.69232158  0.11856546  1  -0.720501  0.057404  2.104792  0.029  -0.638365  0.076415  2.395412  0.041  -0.672111  0.06875  2.374402  0.035  -1.22901  0.115688  -0.304731  -0.613088  0.084029  2.409819  0.047
O  O89  1  0.30956916  0.19231708  0.88143630  1  -0.720605  0.057406  2.104769  0.029  -0.638494  0.076416  2.395391  0.041  -0.672234  0.068753  2.374375  0.035  -1.229138  0.115695  -0.30477  -0.613225  0.08403  2.409812  0.047
O  O90  1  0.80957021  0.30767674  0.88143510  1  -0.720639  0.057409  2.104699  0.029  -0.638492  0.076423  2.395327  0.041  -0.67224  0.068759  2.374316  0.035  -1.229005  0.115699  -0.304781  -0.613221  0.084037  2.409748  0.047
O  O91  1  0.69042796  0.80768445  0.11856399  1  -0.720674  0.057419  2.1047  0.029  -0.638515  0.076421  2.395327  0.041  -0.672253  0.068757  2.374295  0.035  -1.229117  0.115703  -0.30479  -0.61323  0.084034  2.409712  0.047
O  O92  1  0.94941499  0.86492905  0.96211833  1  -1.029807  0.127816  1.911218  0.083  -0.939964  0.152502  2.212293  0.095  -0.982211  0.137304  2.173267  0.082  -1.327272  0.21589  -0.564749  -0.905688  0.16606  2.238009  0.106
O  O93  1  0.55058443  0.36491812  0.03788082  1  -1.029868  0.127824  1.911229  0.083  -0.940071  0.152517  2.212322  0.095  -0.982319  0.13732  2.173296  0.082  -1.32727  0.215886  -0.564741  -0.905795  0.166076  2.238038  0.106
O  O94  1  0.05058463  0.13508103  0.03788209  1  -1.029814  0.127816  1.911206  0.083  -0.940007  0.15251  2.212294  0.095  -0.982257  0.137312  2.173268  0.082  -1.327357  0.215909  -0.564791  -0.905732  0.166068  2.238009  0.106
O  O95  1  0.44941643  0.63508233  0.96211818  1  -1.029809  0.127813  1.911179  0.083  -0.940005  0.152505  2.212269  0.095  -0.982255  0.137308  2.173244  0.082  -1.327291  0.215893  -0.564776  -0.905729  0.166064  2.237983  0.106
O  O96  1  0.15395723  0.65764075  0.83956446  1  -0.704773  0.037352  2.075289  0.023  -0.633709  0.04726  2.348888  0.028  -0.664326  0.041132  2.330018  0.023  -1.236834  0.080988  -0.326868  -0.611011  0.053589  2.361948  0.033
O  O97  1  0.34605133  0.15763945  0.16043546  1  -0.704703  0.037368  2.075113  0.023  -0.633637  0.047264  2.34871  0.028  -0.664257  0.041138  2.329841  0.023  -1.236901  0.080997  -0.326781  -0.610937  0.053595  2.361769  0.033
O  O98  1  0.84604613  0.34235970  0.16043541  1  -0.704725  0.037357  2.075315  0.023  -0.633667  0.04726  2.348941  0.028  -0.664282  0.041134  2.33006  0.023  -1.236483  0.080985  -0.326863  -0.610971  0.053589  2.362002  0.033
O  O99  1  0.65395453  0.84235779  0.83956752  1  -0.704698  0.037363  2.07521  0.023  -0.633659  0.047264  2.348836  0.028  -0.664281  0.041138  2.329963  0.023  -1.236946  0.080995  -0.326826  -0.610959  0.053594  2.361896  0.033
O  O100  1  0.06298614  0.87218795  0.19325636  1  -0.633957  0.032149  2.037766  0.019  -0.56856  0.043018  2.301387  0.026  -0.597102  0.037531  2.285991  0.021  -1.211788  0.070867  -0.29509  -0.548115  0.048489  2.31239  0.03
O  O101  1  0.43700867  0.37218451  0.80674360  1  -0.634018  0.032139  2.037846  0.019  -0.568665  0.043017  2.301479  0.026  -0.597204  0.03753  2.286081  0.021  -1.211766  0.070858  -0.295136  -0.548218  0.048488  2.312479  0.03
O  O102  1  0.93701222  0.12781251  0.80674326  1  -0.633989  0.032153  2.037994  0.019  -0.568602  0.043018  2.30163  0.026  -0.597139  0.037532  2.286233  0.021  -1.211859  0.070867  -0.295116  -0.548156  0.048489  2.312633  0.03
O  O103  1  0.56299094  0.62781701  0.19325534  1  -0.633944  0.032155  2.037995  0.019  -0.568577  0.043018  2.301651  0.026  -0.597119  0.037532  2.286252  0.021  -1.211856  0.070865  -0.295111  -0.548132  0.048488  2.312649  0.03
O  O104  1  0.16374421  0.88204650  0.77671675  1  -0.637793  0.032033  2.010834  0.02  -0.573752  0.041837  2.27274  0.025  -0.603179  0.036918  2.259354  0.021  -1.161696  0.065947  -0.29346  -0.552114  0.046685  2.281581  0.029
O  O105  1  0.33625934  0.38203878  0.22328440  1  -0.637667  0.032031  2.011278  0.02  -0.573623  0.041831  2.273181  0.025  -0.603045  0.036911  2.259794  0.021  -1.161724  0.065942  -0.293388  -0.55199  0.046678  2.282024  0.029
O  O106  1  0.83625665  0.11795824  0.22328300  1  -0.637728  0.032035  2.010859  0.02  -0.573691  0.041836  2.272772  0.025  -0.603117  0.036916  2.259387  0.021  -1.161616  0.065944  -0.293458  -0.552055  0.046683  2.281613  0.029
O  O107  1  0.66375152  0.61795846  0.77671363  1  -0.637696  0.032024  2.011232  0.02  -0.573634  0.04183  2.273105  0.025  -0.603057  0.036911  2.259721  0.021  -1.161711  0.065938  -0.293369  -0.552  0.046676  2.281945  0.029
