# generated using pymatgen
data_Dy2CuH4C10N4O9
_symmetry_space_group_name_H-M   'P 1'
_cell_length_a   6.75670316
_cell_length_b   16.19260254
_cell_length_c   16.18989989
_cell_angle_alpha   118.14918703
_cell_angle_beta   97.86151642
_cell_angle_gamma   98.25949008
_symmetry_Int_Tables_number   1
_chemical_formula_structural   Dy2CuH4C10N4O9
_chemical_formula_sum   'Dy6 Cu3 H12 C30 N12 O27'
_cell_volume   1502.53876108
_cell_formula_units_Z   3
loop_
 _symmetry_equiv_pos_site_id
 _symmetry_equiv_pos_as_xyz
  1  'x, y, z'
loop_
 _atom_site_type_symbol
 _atom_site_label
 _atom_site_symmetry_multiplicity
 _atom_site_fract_x
 _atom_site_fract_y
 _atom_site_fract_z
 _atom_site_occupancy
 _atom_site_pbe_bader_charge
 _atom_site_pbe_bader_spin_density
 _atom_site_pbe_cm5_charge
 _atom_site_pbe_ddec_charge
 _atom_site_pbe_ddec_spin_density
 _atom_site_pbe_ddec_sum_bond_order
 _atom_site_pbe_magmom
Dy  Dy0  1  0.11887115  0.91146587  0.84686839  1  2.085554  -0.000402  1.462298  2.029337  0.001198  2.380836  0.004
Dy  Dy1  1  0.21057591  0.93536454  0.08923255  1  2.084887  -0.004739  1.46155  2.029873  -0.005756  2.376975  -0.006
Dy  Dy2  1  0.27347826  0.15271109  0.06327459  1  2.083607  -0.002281  1.463068  2.028247  -0.001825  2.383923  0.0
Dy  Dy3  1  0.88111050  0.08852712  0.15312394  1  2.085601  -0.000408  1.462339  2.029296  0.001194  2.380965  0.004
Dy  Dy4  1  0.78940972  0.06463062  0.91076660  1  2.084753  -0.004734  1.461565  2.029944  -0.005753  2.376945  -0.006
Dy  Dy5  1  0.72651302  0.84728336  0.93672272  1  2.0836  -0.002281  1.462996  2.028321  -0.001823  2.383992  0.0
Cu  Cu6  1  0.00000451  0.49999904  0.49999355  1  0.999039  0.526669  0.738468  0.664349  0.839225  2.357807  0.529
Cu  Cu7  1  0.50002169  0.00000569  0.50000445  1  1.001745  0.520958  0.739133  0.66568  0.830388  2.361591  0.523
Cu  Cu8  1  0.49998778  0.49999910  0.00000324  1  1.000206  0.526794  0.737866  0.664025  0.839511  2.362644  0.529
H  H9  1  0.41745814  0.47559764  0.57465374  1  0.141204  0.001926  0.122283  0.113342  0.001069  0.999561  0.002
H  H10  1  0.69670586  0.58940569  0.73030878  1  0.099686  0.002193  0.132691  0.102899  0.001372  0.950292  0.001
H  H11  1  0.94553569  0.09944800  0.52554559  1  0.104303  0.001897  0.122221  0.112741  0.001031  0.99867  0.002
H  H12  1  0.11452689  0.13947208  0.41164401  1  0.129355  0.001991  0.132548  0.102289  0.001288  0.950894  0.001
H  H13  1  0.84606295  0.42732155  0.90148307  1  0.138241  0.001953  0.122786  0.113436  0.001095  0.998547  0.002
H  H14  1  0.97397081  0.27347370  0.86102172  1  0.117467  0.0021  0.13238  0.101281  0.001251  0.952808  0.001
H  H15  1  0.58252816  0.52439608  0.42534972  1  0.141622  0.001925  0.122289  0.113336  0.001068  0.999534  0.002
H  H16  1  0.30326876  0.41058010  0.26970137  1  0.099075  0.002192  0.13268  0.102857  0.001371  0.95035  0.001
H  H17  1  0.05451521  0.90054578  0.47444451  1  0.104461  0.001897  0.122214  0.112641  0.001031  0.998665  0.002
H  H18  1  0.88550831  0.86052890  0.58834419  1  0.129288  0.001989  0.132585  0.102399  0.001287  0.95094  0.001
H  H19  1  0.15390625  0.57267936  0.09851285  1  0.138454  0.001953  0.122779  0.113492  0.001096  0.998455  0.002
H  H20  1  0.02600280  0.72653010  0.13897769  1  0.117331  0.002101  0.132347  0.101262  0.001251  0.95263  0.001
C  C21  1  0.36984880  0.72901785  0.75549591  1  1.337798  0.002027  0.234616  0.478048  0.00221  4.128196  0.001
C  C22  1  0.21092921  0.66292962  0.67091019  1  0.425902  3.4e-05  0.097859  -0.068227  -0.000347  3.890516  0.0
C  C23  1  0.40714680  0.54729980  0.62711746  1  0.410472  -0.000555  0.027649  -0.016939  9e-06  3.944437  0.0
C  C24  1  0.55868284  0.61064841  0.71158336  1  0.645379  0.005299  0.07929  0.127613  0.004552  3.958551  0.004
C  C25  1  0.00906265  0.68171334  0.64429723  1  1.579852  -0.00032  0.21201  0.571266  0.00076  4.219875  -0.001
C  C26  1  0.64591990  0.02626853  0.27185997  1  1.258982  0.001903  0.234615  0.476011  0.001335  4.127957  0.001
C  C27  1  0.55181582  0.00781766  0.33760521  1  0.504951  -0.000292  0.097239  -0.067662  -0.000399  3.891071  -0.001
C  C28  1  0.86397857  0.07971646  0.45366513  1  0.510669  -0.000974  0.028303  -0.015678  -0.000153  3.941698  0.0
C  C29  1  0.95400854  0.10009625  0.39029288  1  0.535567  0.005627  0.078368  0.127301  0.004652  3.958211  0.005
C  C30  1  0.33031793  0.96221407  0.31823921  1  1.572504  -0.000386  0.210677  0.566601  0.000713  4.223492  -0.001
C  C31  1  0.61803557  0.24565534  0.97347402  1  1.324348  0.0022  0.231888  0.4722  0.002025  4.133144  0.001
C  C32  1  0.54263909  0.32968673  0.99200072  1  0.458513  -0.000357  0.097829  -0.064741  -0.000697  3.890005  -0.001
C  C33  1  0.78367661  0.37475550  0.92077484  1  0.42412  -0.000752  0.026698  -0.017988  -0.00013  3.944201  0.0
C  C34  1  0.85280004  0.29109076  0.90020492  1  0.592971  0.005491  0.080086  0.130742  0.004638  3.960874  0.005
C  C35  1  0.36660321  0.35546024  0.03734958  1  1.574702  -0.000182  0.209654  0.565219  0.000795  4.221273  -0.001
C  C36  1  0.63013724  0.27097803  0.24450114  1  1.337731  0.002028  0.23459  0.477944  0.00221  4.128016  0.001
C  C37  1  0.78907155  0.33706555  0.32908001  1  0.425707  3.5e-05  0.097864  -0.068158  -0.000346  3.890717  0.0
C  C38  1  0.59283400  0.45269175  0.37288094  1  0.410016  -0.000555  0.027661  -0.016898  1e-05  3.944149  0.0
C  C39  1  0.44129222  0.38934386  0.28842121  1  0.645914  0.005298  0.079307  0.127707  0.004551  3.958606  0.004
C  C40  1  0.99094271  0.31828760  0.35568606  1  1.580166  -0.000322  0.212076  0.571483  0.000759  4.219724  -0.001
C  C41  1  0.35409173  0.97374251  0.72814452  1  1.25844  0.001904  0.234374  0.47578  0.001335  4.127881  0.001
C  C42  1  0.44821337  0.99219268  0.66240123  1  0.505879  -0.000293  0.097228  -0.067594  -0.000399  3.891291  -0.001
C  C43  1  0.13606092  0.92028452  0.54633322  1  0.524101  -0.001011  0.028576  -0.015074  -0.000154  3.940932  0.0
C  C44  1  0.04600712  0.89990470  0.60969969  1  0.522358  0.005664  0.07816  0.12687  0.004652  3.95834  0.005
C  C45  1  0.66970596  0.03779771  0.68177007  1  1.572817  -0.000383  0.210558  0.566511  0.000713  4.223726  -0.001
C  C46  1  0.38195625  0.75434632  0.02653226  1  1.323609  0.002201  0.231808  0.472144  0.002025  4.133219  0.001
C  C47  1  0.45734490  0.67031131  0.00800525  1  0.459258  -0.000359  0.097785  -0.064705  -0.000698  3.890061  -0.001
C  C48  1  0.21630451  0.62524254  0.07922478  1  0.422499  -0.000744  0.026791  -0.018016  -0.000131  3.944042  0.0
C  C49  1  0.14719005  0.70891017  0.09979413  1  0.59445  0.005484  0.080106  0.130778  0.004638  3.960423  0.005
C  C50  1  0.63339309  0.64453854  0.96265810  1  1.575061  -0.000181  0.209712  0.56524  0.000796  4.22112  -0.001
N  N51  1  0.54094635  0.69780266  0.77307241  1  -1.227264  -9e-05  -0.362695  -0.387626  -0.000592  3.378285  0.0
N  N52  1  0.23684230  0.57562211  0.61002721  1  -1.231875  0.08209  -0.349304  -0.196919  0.066994  3.760134  0.071
N  N53  1  0.84966885  0.07437354  0.30307175  1  -1.200124  -0.004333  -0.358093  -0.382093  -0.005148  3.372125  -0.003
N  N54  1  0.66442375  0.03444876  0.42506909  1  -1.230332  0.082083  -0.34765  -0.197012  0.06701  3.756392  0.071
N  N55  1  0.77358529  0.22921432  0.92554287  1  -1.223074  -0.000879  -0.358605  -0.382836  -0.001284  3.3736  -0.001
N  N56  1  0.62914793  0.39090053  0.96570868  1  -1.231974  0.082327  -0.347844  -0.197737  0.067261  3.759297  0.072
N  N57  1  0.45903320  0.30219250  0.22693131  1  -1.22721  -9e-05  -0.362693  -0.387465  -0.000592  3.378247  0.0
N  N58  1  0.76316024  0.42437379  0.38996775  1  -1.231587  0.082094  -0.349386  -0.197198  0.066996  3.760149  0.071
N  N59  1  0.15033363  0.92563389  0.69692307  1  -1.199831  -0.004334  -0.357937  -0.381896  -0.005149  3.371965  -0.003
N  N60  1  0.33561712  0.96555799  0.57493390  1  -1.230829  0.082092  -0.347716  -0.197261  0.067012  3.756205  0.071
N  N61  1  0.22642118  0.77078951  0.07445977  1  -1.223122  -0.000879  -0.358609  -0.382822  -0.001284  3.37367  -0.001
N  N62  1  0.37083161  0.60910040  0.03429406  1  -1.232279  0.082323  -0.347955  -0.197861  0.067259  3.759659  0.072
O  O63  1  0.36472533  0.81396237  0.81678102  1  -1.179024  0.012188  -0.361692  -0.619679  0.009887  2.395512  0.011
O  O64  1  0.96042760  0.75794022  0.69696288  1  -1.154058  0.023809  -0.322665  -0.557662  0.018832  2.283293  0.02
O  O65  1  0.88729080  0.61285806  0.56326121  1  -1.100501  0.112634  -0.343497  -0.548336  0.08794  2.306009  0.102
O  O66  1  0.05036550  0.83918319  0.93186013  1  -1.037388  0.412199  -0.800858  -1.065769  0.316759  1.721601  0.337
O  O67  1  0.55566468  0.00320830  0.18714477  1  -1.173264  0.00599  -0.362788  -0.62122  0.004399  2.396653  0.006
O  O68  1  0.20595064  0.93826768  0.24181218  1  -1.15353  0.020099  -0.321832  -0.552835  0.015156  2.290138  0.018
O  O69  1  0.27586900  0.95012378  0.38683207  1  -1.107149  0.110664  -0.343058  -0.546665  0.086637  2.310323  0.101
O  O70  1  0.21331707  0.09253459  0.16071777  1  -1.036469  0.412777  -0.799204  -1.064945  0.318029  1.718304  0.337
O  O71  1  0.55078825  0.18367468  0.99631953  1  -1.169377  0.006686  -0.364359  -0.622617  0.004956  2.399605  0.006
O  O72  1  0.26570215  0.30259443  0.06100663  1  -1.153931  0.021706  -0.320976  -0.551962  0.017139  2.290362  0.018
O  O73  1  0.32474972  0.43610733  0.04952510  1  -1.103905  0.111897  -0.34329  -0.54797  0.087621  2.30916  0.102
O  O74  1  0.11761186  0.06864048  0.90646783  1  -1.039  -0.335995  -0.803694  -1.072147  -0.350679  1.72661  -0.269
O  O75  1  0.63525664  0.18603134  0.18321415  1  -1.179048  0.012191  -0.361596  -0.61964  0.009889  2.395294  0.011
O  O76  1  0.03958752  0.24206506  0.30301749  1  -1.154318  0.023817  -0.322709  -0.557706  0.018839  2.283206  0.02
O  O77  1  0.11272178  0.38713929  0.43671651  1  -1.100415  0.112635  -0.343508  -0.548558  0.087941  2.306038  0.102
O  O78  1  0.94962246  0.16081053  0.06813478  1  -1.037324  0.412287  -0.80082  -1.065637  0.316827  1.721522  0.337
O  O79  1  0.44434501  0.99680490  0.81286308  1  -1.173354  0.005989  -0.362677  -0.621182  0.004398  2.396574  0.006
O  O80  1  0.79406386  0.06174337  0.75819927  1  -1.153502  0.0201  -0.321818  -0.552843  0.015157  2.290238  0.018
O  O81  1  0.72416705  0.04989162  0.61318582  1  -1.107758  0.110638  -0.342999  -0.54662  0.086621  2.310372  0.101
O  O82  1  0.78666416  0.90745768  0.83927729  1  -1.036393  0.412694  -0.799184  -1.065073  0.317966  1.71829  0.337
O  O83  1  0.44921439  0.81632771  0.00368837  1  -1.169054  0.006686  -0.364314  -0.622613  0.004955  2.399457  0.006
O  O84  1  0.73430413  0.69740652  0.93900700  1  -1.154207  0.021712  -0.320947  -0.55195  0.017142  2.290334  0.018
O  O85  1  0.67523944  0.56389216  0.95048433  1  -1.104012  0.111892  -0.343253  -0.547893  0.087617  2.30907  0.102
O  O86  1  0.88237410  0.93135252  0.09353404  1  -1.039154  -0.335958  -0.803715  -1.072204  -0.350634  1.726654  -0.269
O  O87  1  0.39802389  0.99962009  0.00063615  1  -0.488747  0.317505  -0.310555  -0.460542  0.244587  2.293946  0.267
O  O88  1  0.60196185  0.00037219  0.99935795  1  -0.501356  0.317422  -0.310635  -0.460523  0.244577  2.294006  0.267
O  O89  1  0.99999101  0.00000142  0.00000138  1  -0.788484  0.335148  -0.567332  -0.835309  0.241503  1.887679  0.301
