# generated using pymatgen
data_AgH13C14(SN)2
_symmetry_space_group_name_H-M   'P 1'
_cell_length_a   5.79431590
_cell_length_b   15.85073082
_cell_length_c   15.59072854
_cell_angle_alpha   88.20267233
_cell_angle_beta   79.29076913
_cell_angle_gamma   80.28279742
_symmetry_Int_Tables_number   1
_chemical_formula_structural   AgH13C14(SN)2
_chemical_formula_sum   'Ag4 H52 C56 S8 N8'
_cell_volume   1386.79106606
_cell_formula_units_Z   4
loop_
 _symmetry_equiv_pos_site_id
 _symmetry_equiv_pos_as_xyz
  1  'x, y, z'
loop_
 _atom_site_type_symbol
 _atom_site_label
 _atom_site_symmetry_multiplicity
 _atom_site_fract_x
 _atom_site_fract_y
 _atom_site_fract_z
 _atom_site_occupancy
 _atom_site_hle17_bader_spin_density
 _atom_site_hle17_ddec_charge
 _atom_site_hle17_ddec_spin_density
 _atom_site_hle17_ddec_sum_bond_order
 _atom_site_hle17_magmom
 _atom_site_hse06_10hf_bader_spin_density
 _atom_site_hse06_10hf_ddec_charge
 _atom_site_hse06_10hf_ddec_spin_density
 _atom_site_hse06_10hf_ddec_sum_bond_order
 _atom_site_hse06_10hf_magmom
 _atom_site_hse06_bader_spin_density
 _atom_site_hse06_ddec_charge
 _atom_site_hse06_ddec_spin_density
 _atom_site_hse06_ddec_sum_bond_order
 _atom_site_hse06_magmom
 _atom_site_pbe_bader_charge
 _atom_site_pbe_bader_spin_density
 _atom_site_pbe_cm5_charge
 _atom_site_pbe_ddec_charge
 _atom_site_pbe_ddec_spin_density
 _atom_site_pbe_ddec_sum_bond_order
 _atom_site_pbe_magmom
Ag  Ag0  1  0.77358229  0.97013295  0.91261722  1  0  0.28796  0  2.107359  0  0  0.220351  0  2.59292  0  0  0.23762  0  2.55059  0  0.378072  0  0.282815  0.209002  0  2.621356  0
Ag  Ag1  1  0.65013455  0.03106314  0.08877693  1  0  0.286645  0  2.107687  0  0  0.218424  0  2.593118  0  0  0.236097  0  2.550476  0  0.377653  0  0.281398  0.206816  0  2.621752  0
Ag  Ag2  1  0.26643477  0.08560752  0.96842176  1  0  0.284674  0  2.132613  0  0  0.219463  0  2.618404  0  0  0.236198  0  2.576395  0  0.376895  0  0.283701  0.208508  0  2.646593  0
Ag  Ag3  1  0.31066945  0.91312151  0.03298479  1  0  0.287476  0  2.107065  0  0  0.219697  0  2.591429  0  0  0.23681  0  2.54962  0  0.378819  0  0.282958  0.208456  0  2.619513  0
H  H4  1  0.13902533  0.63091395  0.13741790  1  0  0.088089  0  0.948173  0  0  0.098304  0  1.02001  0  0  0.100378  0  1.017959  0  0.093456  0  0.108316  0.09678  0  1.021496  0
H  H5  1  0.93419667  0.36866541  0.85953997  1  0  0.086804  0  0.953075  0  0  0.097209  0  1.025766  0  0  0.099291  0  1.02365  0  0.102857  0  0.107547  0.095636  0  1.02734  0
H  H6  1  0.22592689  0.85836783  0.62677038  1  0  0.086418  0  0.961688  0  0  0.096848  0  1.034097  0  0  0.098973  0  1.032039  0  0.102356  0  0.107682  0.095266  0  1.035649  0
H  H7  1  0.70543243  0.14076932  0.37112162  1  0  0.085932  0  0.95977  0  0  0.096205  0  1.032483  0  0  0.098256  0  1.030421  0  0.110874  0  0.107453  0.094655  0  1.034053  0
H  H8  1  0.10359184  0.74137228  0.16252956  1  0  0.090157  0  0.955194  0  0  0.105727  0  1.019288  0  0  0.10688  0  1.018677  0  0.093266  0  0.103444  0.104843  0  1.019759  0
H  H9  1  0.02311614  0.25786284  0.83572082  1  0  0.090352  0  0.956966  0  0  0.106753  0  1.020413  0  0  0.107858  0  1.019936  0  0.113145  0  0.103574  0.10591  0  1.020759  0
H  H10  1  0.15250930  0.83575585  0.73972679  1  0  0.090368  0  0.956343  0  0  0.106447  0  1.020096  0  0  0.107576  0  1.019536  0  0.105831  0  0.103337  0.105588  0  1.020522  0
H  H11  1  0.72889698  0.16224774  0.25777942  1  0  0.0913  0  0.955882  0  0  0.107334  0  1.019287  0  0  0.10844  0  1.018727  0  0.103797  0  0.103815  0.106465  0  1.019712  0
H  H12  1  0.08212635  0.59224363  0.29108929  1  0  0.094528  0  0.967563  0  0  0.100927  0  1.03738  0  0  0.104157  0  1.035777  0  0.117471  0  0.098222  0.098576  0  1.038625  0
H  H13  1  0.98735921  0.40702616  0.70618192  1  0  0.09452  0  0.968351  0  0  0.101083  0  1.037462  0  0  0.104349  0  1.035808  0  0.065086  0  0.098179  0.098721  0  1.03873  0
H  H14  1  0.31431131  0.70683161  0.59175937  1  0  0.09241  0  0.970204  0  0  0.098787  0  1.04049  0  0  0.101984  0  1.038847  0  0.117455  0  0.097562  0.096507  0  1.041672  0
H  H15  1  0.61830708  0.29101001  0.40802176  1  0  0.091972  0  0.971127  0  0  0.098512  0  1.041173  0  0  0.101721  0  1.039548  0  0.084211  0  0.097301  0.096207  0  1.042395  0
H  H16  1  0.79471445  0.57496200  0.42830940  1  0  0.073646  0  0.96918  0  0  0.086542  0  1.028095  0  0  0.088863  0  1.027152  0  0.044391  0  0.093303  0.084848  0  1.028852  0
H  H17  1  0.81592107  0.42331513  0.57011331  1  0  0.073989  0  0.96825  0  0  0.086589  0  1.027489  0  0  0.088881  0  1.026622  0  0.033357  0  0.093456  0.084915  0  1.028201  0
H  H18  1  0.61120133  0.57208740  0.57794989  1  0  0.074251  0  0.966011  0  0  0.087138  0  1.024862  0  0  0.089383  0  1.024052  0  0.046717  0  0.093894  0.085492  0  1.025517  0
H  H19  1  0.77339938  0.42624355  0.42294293  1  0  0.074226  0  0.967995  0  0  0.087001  0  1.0271  0  0  0.089313  0  1.026166  0  0.025176  0  0.0938  0.085351  0  1.0278  0
H  H20  1  0.37125725  0.64790197  0.44432331  1  0  0.085244  0  0.953433  0  0  0.098676  0  1.009884  0  0  0.10128  0  1.009068  0  0.056495  0  0.097591  0.09679  0  1.010551  0
H  H21  1  0.47710225  0.34890602  0.55610146  1  0  0.084428  0  0.954281  0  0  0.098311  0  1.010445  0  0  0.100854  0  1.009683  0  0.055307  0  0.097408  0.096463  0  1.011072  0
H  H22  1  0.96256754  0.55915407  0.65210071  1  0  0.085577  0  0.953856  0  0  0.098848  0  1.010343  0  0  0.101473  0  1.009547  0  0.047255  0  0.097336  0.096943  0  1.010993  0
H  H23  1  0.18527020  0.44109965  0.34827380  1  0  0.085208  0  0.952552  0  0  0.098479  0  1.009076  0  0  0.101127  0  1.008215  0  0.054354  0  0.09741  0.096577  0  1.009752  0
H  H24  1  0.24244019  0.74076438  0.32447162  1  0  0.087297  0  0.963911  0  0  0.098321  0  1.023615  0  0  0.100168  0  1.024718  0  0.077343  0  0.097021  0.096993  0  1.022919  0
H  H25  1  0.31979501  0.25604902  0.67691861  1  0  0.087687  0  0.963309  0  0  0.098812  0  1.023131  0  0  0.100629  0  1.024302  0  0.064774  0  0.097094  0.097504  0  1.022393  0
H  H26  1  0.00872277  0.67995936  0.74208462  1  0  0.087232  0  0.963901  0  0  0.098822  0  1.023203  0  0  0.100572  0  1.02444  0  0.089267  0  0.097261  0.097533  0  1.022493  0
H  H27  1  0.43416622  0.32169479  0.25657504  1  0  0.086683  0  0.967256  0  0  0.097834  0  1.027278  0  0  0.099632  0  1.028522  0  0.073151  0  0.096546  0.096513  0  1.02652  0
H  H28  1  0.53080806  0.76054256  0.19010544  1  0  0.096708  0  0.961814  0  0  0.105891  0  1.027789  0  0  0.108619  0  1.026295  0  0.043781  0  0.094662  0.103869  0  1.028984  0
H  H29  1  0.49661926  0.23760434  0.81029257  1  0  0.095897  0  0.963706  0  0  0.105912  0  1.028662  0  0  0.108614  0  1.027208  0  0.07403  0  0.09468  0.103832  0  1.029933  0
H  H30  1  0.70774962  0.81200275  0.75858811  1  0  0.096125  0  0.962304  0  0  0.105581  0  1.028133  0  0  0.108256  0  1.026733  0  0.078571  0  0.094439  0.10357  0  1.029312  0
H  H31  1  0.27522944  0.18929793  0.23896705  1  0  0.095571  0  0.963612  0  0  0.105176  0  1.029438  0  0  0.107848  0  1.027999  0  0.080392  0  0.093658  0.103192  0  1.030589  0
H  H32  1  0.65627198  0.66607111  0.01284729  1  0  0.086377  0  0.942163  0  0  0.102283  0  1.005404  0  0  0.10292  0  1.005166  0  0.10103  0  0.106011  0.101762  0  1.005585  0
H  H33  1  0.35189560  0.33416487  0.97907050  1  0  0.085019  0  0.936772  0  0  0.101072  0  0.999949  0  0  0.101737  0  0.999629  0  0.09403  0  0.105818  0.100514  0  1.00022  0
H  H34  1  0.68048600  0.98100907  0.66007307  1  0  0.085749  0  0.935087  0  0  0.102007  0  0.998501  0  0  0.102621  0  0.998267  0  0.078008  0  0.106286  0.101489  0  0.998712  0
H  H35  1  0.31153579  0.02327776  0.34213509  1  0  0.085359  0  0.935333  0  0  0.10094  0  0.999259  0  0  0.101603  0  0.999033  0  0.087154  0  0.106369  0.100378  0  0.999482  0
H  H36  1  0.80254646  0.59285331  0.08130982  1  0  0.082608  0  0.938726  0  0  0.099186  0  1.002149  0  0  0.099042  0  1.003671  0  0.074639  0  0.112337  0.099166  0  1.001253  0
H  H37  1  0.50710527  0.40715660  0.91366427  1  0  0.080854  0  0.940224  0  0  0.09715  0  1.004498  0  0  0.097132  0  1.005756  0  0.084336  0  0.11193  0.09706  0  1.003762  0
H  H38  1  0.58818001  0.91766846  0.58555016  1  0  0.081531  0  0.939863  0  0  0.098287  0  1.004056  0  0  0.098214  0  1.005495  0  0.06442  0  0.11209  0.098218  0  1.003232  0
H  H39  1  0.07798918  0.08449113  0.41511810  1  0  0.080882  0  0.942827  0  0  0.097441  0  1.007233  0  0  0.097475  0  1.008488  0  0.079046  0  0.111609  0.097337  0  1.006456  0
H  H40  1  0.80115386  0.51006447  0.93425023  1  0  0.063232  0  0.960161  0  0  0.071424  0  1.027869  0  0  0.073357  0  1.027692  0  0.070171  0  0.102163  0.070008  0  1.028105  0
H  H41  1  0.24656092  0.48633033  0.05951949  1  0  0.063943  0  0.955952  0  0  0.071985  0  1.023294  0  0  0.073807  0  1.023338  0  0.056  0  0.102282  0.070593  0  1.023426  0
H  H42  1  0.69161113  0.06579372  0.50840767  1  0  0.062111  0  0.963847  0  0  0.070616  0  1.032108  0  0  0.072436  0  1.032013  0  0.035536  0  0.102244  0.069293  0  1.032247  0
H  H43  1  0.26830622  0.93621188  0.48916708  1  0  0.062162  0  0.962343  0  0  0.070365  0  1.030504  0  0  0.072153  0  1.030526  0  0.064788  0  0.102033  0.069054  0  1.030587  0
H  H44  1  0.42840307  0.49703331  0.75393447  1  0  0.066483  0  0.963236  0  0  0.072782  0  1.032153  0  0  0.074099  0  1.032959  0  0.10481  0  0.103479  0.071811  0  1.031665  0
H  H45  1  0.64282165  0.50711348  0.25085346  1  0  0.064714  0  0.968375  0  0  0.071772  0  1.036803  0  0  0.072974  0  1.037748  0  0.09047  0  0.102825  0.070902  0  1.036191  0
H  H46  1  0.09174488  0.24717738  0.49913629  1  0  0.06723  0  0.962748  0  0  0.074184  0  1.030809  0  0  0.075402  0  1.031753  0  0.096836  0  0.104201  0.073215  0  1.030293  0
H  H47  1  0.84159294  0.74963032  0.50329773  1  0  0.066943  0  0.966643  0  0  0.073648  0  1.035022  0  0  0.074873  0  1.036051  0  0.099237  0  0.103913  0.072703  0  1.03442  0
H  H48  1  0.53247122  0.62441668  0.81954241  1  0  0.09863  0  0.984956  0  0  0.108557  0  1.044855  0  0  0.110371  0  1.046823  0  0.096277  0  0.099879  0.107246  0  1.043644  0
H  H49  1  0.95487988  0.38517029  0.18775414  1  0  0.100672  0  0.98276  0  0  0.110116  0  1.043022  0  0  0.111981  0  1.04496  0  0.096794  0  0.101249  0.108797  0  1.041749  0
H  H50  1  0.85472556  0.17900526  0.62478659  1  0  0.101432  0  0.979011  0  0  0.110662  0  1.039651  0  0  0.112587  0  1.041509  0  0.089089  0  0.100998  0.109275  0  1.038515  0
H  H51  1  0.65019697  0.81655148  0.38100988  1  0  0.101203  0  0.977845  0  0  0.110714  0  1.038239  0  0  0.112651  0  1.040058  0  0.101421  0  0.101059  0.109275  0  1.037172  0
H  H52  1  0.25647724  0.69564527  0.94957611  1  0  0.10402  0  0.947786  0  0  0.111929  0  1.01522  0  0  0.114826  0  1.01314  0  0.09473  0  0.100672  0.109779  0  1.016758  0
H  H53  1  0.90658171  0.31192138  0.05338078  1  0  0.104875  0  0.943063  0  0  0.113481  0  1.008332  0  0  0.116421  0  1.006356  0  0.086086  0  0.101959  0.111259  0  1.009921  0
H  H54  1  0.04888483  0.04716336  0.69297691  1  0  0.104044  0  0.946745  0  0  0.111717  0  1.014474  0  0  0.114661  0  1.012345  0  0.116998  0  0.100458  0.109507  0  1.016163  0
H  H55  1  0.77459384  0.95058561  0.31179862  1  0  0.103382  0  0.945814  0  0  0.111844  0  1.01256  0  0  0.11473  0  1.01056  0  0.08255  0  0.100701  0.109694  0  1.014115  0
C  C56  1  0.83912473  0.79641427  0.05108628  1  0  0.235923  0  3.725065  0  0  0.207321  0  4.028077  0  0  0.233801  0  4.036602  0  0.26222  0  0.11674  0.189555  0  4.021543  0
C  C57  1  0.70058315  0.20440887  0.94933132  1  0  0.237577  0  3.723183  0  0  0.208387  0  4.026622  0  0  0.234846  0  4.035154  0  0.226133  0  0.116434  0.190661  0  4.02005  0
C  C58  1  0.35949068  0.94851030  0.79419510  1  0  0.235593  0  3.724622  0  0  0.206675  0  4.028477  0  0  0.233071  0  4.037084  0  0.251818  0  0.116207  0.188986  0  4.021857  0
C  C59  1  0.10049792  0.05060713  0.20625643  1  0  0.234336  0  3.723379  0  0  0.205942  0  4.025309  0  0  0.232387  0  4.033858  0  0.228923  0  0.116543  0.188212  0  4.018759  0
C  C60  1  0.00735228  0.68979686  0.15132726  1  0  -0.055943  0  3.663682  0  0  -0.121634  0  3.909157  0  0  -0.117644  0  3.919306  0  0.287652  0  -0.060137  -0.124124  0  3.902231  0
C  C61  1  0.86894704  0.30977397  0.84689113  1  0  -0.056464  0  3.664425  0  0  -0.1241  0  3.912054  0  0  -0.120039  0  3.92202  0  0.241386  0  -0.061793  -0.126574  0  3.90516  0
C  C62  1  0.29937737  0.84661480  0.68706537  1  0  -0.056988  0  3.662628  0  0  -0.123437  0  3.909185  0  0  -0.11944  0  3.919097  0  0.25862  0  -0.061598  -0.125939  0  3.902447  0
C  C63  1  0.83024723  0.15239264  0.31129663  1  0  -0.0571  0  3.663327  0  0  -0.123506  0  3.910295  0  0  -0.119405  0  3.920334  0  0.25627  0  -0.061267  -0.12601  0  3.90341  0
C  C64  1  0.82596898  0.67756830  0.23205220  1  0  0.072777  0  3.737776  0  0  0.097036  0  3.970804  0  0  0.09673  0  3.994887  0  0.002059  0  -0.011038  0.097178  0  3.954512  0
C  C65  1  0.75412840  0.32133336  0.76683333  1  0  0.072923  0  3.739951  0  0  0.095342  0  3.976196  0  0  0.095011  0  4.000266  0  -0.090106  0  -0.012147  0.095495  0  3.959878  0
C  C66  1  0.49050757  0.76787603  0.67624560  1  0  0.074845  0  3.733903  0  0  0.098098  0  3.968906  0  0  0.097772  0  3.992905  0  -0.05769  0  -0.010409  0.098257  0  3.952668  0
C  C67  1  0.93519637  0.23166147  0.32240427  1  0  0.073976  0  3.737255  0  0  0.095907  0  3.973696  0  0  0.095544  0  3.997773  0  -0.018078  0  -0.011663  0.096074  0  3.957407  0
C  C68  1  0.89815122  0.62527479  0.29959627  1  0  -0.128973  0  3.751263  0  0  -0.147352  0  3.995505  0  0  -0.150495  0  4.01704  0  -0.092419  0  -0.094848  -0.145106  0  3.980886  0
C  C69  1  0.84219078  0.37367188  0.69874484  1  0  -0.130888  0  3.75465  0  0  -0.148476  0  3.999275  0  0  -0.151594  0  4.020687  0  0.010977  0  -0.094894  -0.14625  0  3.984709  0
C  C70  1  0.46609451  0.69990175  0.62511820  1  0  -0.127392  0  3.752004  0  0  -0.145458  0  3.9969  0  0  -0.148537  0  4.018426  0  -0.039551  0  -0.09392  -0.143266  0  3.982266  0
C  C71  1  0.79609145  0.29882245  0.37440182  1  0  -0.127683  0  3.752543  0  0  -0.145408  0  3.997524  0  0  -0.148459  0  4.01899  0  -0.045412  0  -0.094137  -0.143249  0  3.982972  0
C  C72  1  0.73559515  0.61494067  0.37574524  1  0  -0.081857  0  3.820613  0  0  -0.092995  0  4.069304  0  0  -0.094944  0  4.09196  0  -0.077163  0  -0.097741  -0.091549  0  4.053792  0
C  C73  1  0.74353701  0.38335159  0.62316379  1  0  -0.082217  0  3.820748  0  0  -0.092925  0  4.069267  0  0  -0.094885  0  4.092101  0  -0.141687  0  -0.098203  -0.091475  0  4.053632  0
C  C74  1  0.63455793  0.62511642  0.61664712  1  0  -0.08291  0  3.821593  0  0  -0.094188  0  4.071185  0  0  -0.096107  0  4.093933  0  -0.027748  0  -0.098103  -0.092743  0  4.05562  0
C  C75  1  0.88519315  0.37390350  0.38347999  1  0  -0.083937  0  3.820096  0  0  -0.095143  0  4.069304  0  0  -0.097169  0  4.092008  0  -0.035506  0  -0.098806  -0.093657  0  4.053766  0
C  C76  1  0.49871510  0.65575316  0.38485930  1  0  -0.089073  0  3.787073  0  0  -0.104241  0  4.035707  0  0  -0.106603  0  4.057049  0  -0.055295  0  -0.098476  -0.102556  0  4.021101  0
C  C77  1  0.55423831  0.34172090  0.61513007  1  0  -0.086053  0  3.78684  0  0  -0.10139  0  4.034484  0  0  -0.103725  0  4.056025  0  -0.044206  0  -0.097453  -0.099736  0  4.01978  0
C  C78  1  0.83130405  0.61770921  0.65810299  1  0  -0.089564  0  3.788994  0  0  -0.104414  0  4.037007  0  0  -0.106796  0  4.058299  0  -0.114094  0  -0.098431  -0.102718  0  4.022453  0
C  C79  1  0.11543995  0.38238051  0.34173494  1  0  -0.088369  0  3.789663  0  0  -0.103045  0  4.037522  0  0  -0.105334  0  4.058746  0  -0.100564  0  -0.098698  -0.101428  0  4.023049  0
C  C80  1  0.42599036  0.70782744  0.31752934  1  0  -0.065092  0  3.777536  0  0  -0.074322  0  4.023826  0  0  -0.075355  0  4.044545  0  -0.054416  0  -0.092709  -0.073566  0  4.009777  0
C  C81  1  0.46552917  0.28958758  0.68298943  1  0  -0.066274  0  3.77827  0  0  -0.075939  0  4.024867  0  0  -0.07702  0  4.045672  0  -0.001326  0  -0.093239  -0.075152  0  4.010743  0
C  C82  1  0.85732265  0.68551185  0.70871731  1  0  -0.06488  0  3.778794  0  0  -0.074761  0  4.025464  0  0  -0.075677  0  4.046078  0  -0.046498  0  -0.092403  -0.074088  0  4.01147  0
C  C83  1  0.25537526  0.31535056  0.29017279  1  0  -0.065377  0  3.779234  0  0  -0.075292  0  4.025725  0  0  -0.076406  0  4.046632  0  -0.060331  0  -0.092714  -0.074462  0  4.011582  0
C  C84  1  0.58900964  0.71883503  0.24167999  1  0  -0.114039  0  3.721841  0  0  -0.136811  0  3.968654  0  0  -0.138952  0  3.988796  0  -0.079339  0  -0.094072  -0.135345  0  3.955131  0
C  C85  1  0.56539896  0.27933436  0.75827805  1  0  -0.113961  0  3.723932  0  0  -0.136325  0  3.970752  0  0  -0.138469  0  3.990893  0  -0.028472  0  -0.094192  -0.134807  0  3.957262  0
C  C86  1  0.68742381  0.76003211  0.71788620  1  0  -0.113895  0  3.720731  0  0  -0.137085  0  3.969505  0  0  -0.139193  0  3.989587  0  -0.090849  0  -0.095036  -0.13562  0  3.956028  0
C  C87  1  0.16536910  0.24059616  0.28037070  1  0  -0.111842  0  3.719668  0  0  -0.133954  0  3.967061  0  0  -0.136095  0  3.987334  0  -0.075258  0  -0.094485  -0.132466  0  3.95343  0
C  C88  1  0.82931821  0.64343027  0.03227914  1  0  -0.041233  0  3.677438  0  0  -0.108032  0  3.924217  0  0  -0.103113  0  3.935514  0  0.291751  0  -0.055151  -0.111092  0  3.916447  0
C  C89  1  0.52402421  0.35700667  0.96362581  1  0  -0.040802  0  3.684041  0  0  -0.108182  0  3.930832  0  0  -0.103334  0  3.942366  0  0.297792  0  -0.05517  -0.111206  0  3.922891  0
C  C90  1  0.52286768  0.96485763  0.63849098  1  0  -0.039432  0  3.674544  0  0  -0.107073  0  3.922848  0  0  -0.102137  0  3.934102  0  0.315256  0  -0.054802  -0.110183  0  3.915169  0
C  C91  1  0.11666004  0.03667255  0.36252521  1  0  -0.041364  0  3.681781  0  0  -0.108375  0  3.929348  0  0  -0.103612  0  3.940876  0  0.306065  0  -0.054982  -0.111362  0  3.921468  0
C  C92  1  0.00772994  0.60703507  0.95335307  1  0  0.023558  0  3.747077  0  0  0.04647  0  3.987262  0  0  0.042658  0  4.011289  0  -0.049321  0  -0.010572  0.048754  0  3.971094  0
C  C93  1  0.57291006  0.39460426  0.04504483  1  0  0.019719  0  3.751345  0  0  0.043278  0  3.99083  0  0  0.039442  0  4.015027  0  -0.051891  0  -0.011919  0.045584  0  3.974525  0
C  C94  1  0.38635268  0.04493699  0.60449765  1  0  0.020499  0  3.749136  0  0  0.044289  0  3.98888  0  0  0.0404  0  4.013007  0  -0.009683  0  -0.011016  0.046637  0  3.972652  0
C  C95  1  0.02931549  0.95510925  0.39674571  1  0  0.019939  0  3.748513  0  0  0.042191  0  3.990329  0  0  0.038308  0  4.014541  0  -0.042622  0  -0.012868  0.044521  0  3.97406  0
C  C96  1  0.96383900  0.53660312  0.91045783  1  0  0.05216  0  3.737562  0  0  0.024562  0  3.992498  0  0  0.028889  0  4.009416  0  0.510842  0  0.033309  0.021833  0  3.980995  0
C  C97  1  0.40713956  0.46265132  0.08637536  1  0  0.05444  0  3.735495  0  0  0.026896  0  3.990269  0  0  0.031326  0  4.007159  0  0.464439  0  0.033575  0.024129  0  3.978804  0
C  C98  1  0.50412156  0.08923451  0.53529422  1  0  0.052413  0  3.736448  0  0  0.02375  0  3.991966  0  0  0.028193  0  4.008951  0  0.55427  0  0.032555  0.020939  0  3.980429  0
C  C99  1  0.12858057  0.91130843  0.46419578  1  0  0.054323  0  3.733605  0  0  0.026754  0  3.988119  0  0  0.031184  0  4.005139  0  0.506152  0  0.033912  0.023955  0  3.976543  0
C  C100  1  0.31065206  0.52956305  0.81041072  1  0  0.096534  0  3.752329  0  0  0.07179  0  4.011434  0  0  0.076236  0  4.029319  0  0.47408  0  0.032667  0.068948  0  3.999261  0
C  C101  1  0.62609233  0.47405615  0.19244173  1  0  0.095131  0  3.755465  0  0  0.069397  0  4.015872  0  0  0.073845  0  4.033896  0  0.457655  0  0.031478  0.066525  0  4.00365  0
C  C102  1  0.17239603  0.18986921  0.53034291  1  0  0.096199  0  3.754866  0  0  0.070379  0  4.014842  0  0  0.074976  0  4.032667  0  0.477139  0  0.032921  0.06749  0  4.002733  0
C  C103  1  0.89307739  0.80783605  0.47176015  1  0  0.093625  0  3.758379  0  0  0.067758  0  4.018597  0  0  0.072257  0  4.036459  0  0.463554  0  0.031895  0.0649  0  4.006464  0
C  C104  1  0.36965807  0.60021723  0.84751126  1  0  -0.121071  0  3.76114  0  0  -0.129576  0  4.00645  0  0  -0.135285  0  4.029197  0  -0.120976  0  -0.08924  -0.125917  0  3.991186  0
C  C105  1  0.80117951  0.40633072  0.15682494  1  0  -0.12266  0  3.754942  0  0  -0.130341  0  4.00016  0  0  -0.135996  0  4.022646  0  -0.061382  0  -0.089438  -0.126698  0  3.985076  0
C  C106  1  0.03953803  0.15135936  0.59998370  1  0  -0.120943  0  3.753403  0  0  -0.128703  0  3.999322  0  0  -0.134341  0  4.021551  0  -0.066038  0  -0.088551  -0.125102  0  3.984399  0
C  C107  1  0.78502185  0.84567432  0.40392625  1  0  -0.119369  0  3.75027  0  0  -0.127113  0  3.995769  0  0  -0.132751  0  4.017992  0  -0.046966  0  -0.088243  -0.123464  0  3.980869  0
C  C108  1  0.21562824  0.63969946  0.92005103  1  0  -0.068964  0  3.710462  0  0  -0.097201  0  3.96166  0  0  -0.096241  0  3.981129  0  -0.016094  0  -0.078121  -0.097536  0  3.948488  0
C  C109  1  0.77403861  0.36577599  0.08194497  1  0  -0.065876  0  3.705859  0  0  -0.094361  0  3.956497  0  0  -0.093434  0  3.975838  0  0.005852  0  -0.076694  -0.094682  0  3.943437  0
C  C110  1  0.14824396  0.07777515  0.63775856  1  0  -0.067116  0  3.70936  0  0  -0.095254  0  3.960566  0  0  -0.094313  0  3.980003  0  -0.118227  0  -0.077752  -0.095606  0  3.947436  0
C  C111  1  0.85432041  0.92047747  0.36568596  1  0  -0.066015  0  3.706712  0  0  -0.094492  0  3.958407  0  0  -0.093539  0  3.977859  0  -0.063751  0  -0.077126  -0.094854  0  3.945249  0
S  S112  1  0.69386974  0.81660488  0.96374854  1  0  -0.328142  0  2.428526  0  0  -0.290466  0  2.834452  0  0  -0.309393  0  2.824761  0  -0.179659  0  -0.198447  -0.277627  0  2.840603  0
S  S113  1  0.48525866  0.18546331  0.03661553  1  0  -0.326793  0  2.416311  0  0  -0.290505  0  2.820098  0  0  -0.309345  0  2.810697  0  -0.171006  0  -0.197488  -0.277723  0  2.826037  0
S  S114  1  0.48659174  0.03536643  0.81320460  1  0  -0.32389  0  2.436715  0  0  -0.285859  0  2.843209  0  0  -0.304564  0  2.833553  0  -0.176426  0  -0.197763  -0.273178  0  2.849326  0
S  S115  1  0.33036333  0.96477987  0.18909168  1  0  -0.323422  0  2.425278  0  0  -0.285524  0  2.829087  0  0  -0.304226  0  2.819501  0  -0.170776  0  -0.197938  -0.272866  0  2.835182  0
S  S116  1  0.90632700  0.87535770  0.11010313  1  0  -0.352606  0  2.45357  0  0  -0.320264  0  2.869306  0  0  -0.339261  0  2.857419  0  -0.180993  0  -0.207992  -0.307213  0  2.876894  0
S  S117  1  0.90179093  0.12502151  0.89168529  1  0  -0.351623  0  2.45816  0  0  -0.319606  0  2.875328  0  0  -0.338472  0  2.863279  0  -0.17527  0  -0.208074  -0.306678  0  2.883047  0
S  S118  1  0.20833421  0.89244457  0.87518768  1  0  -0.34988  0  2.475501  0  0  -0.317396  0  2.894815  0  0  -0.336086  0  2.882594  0  -0.179845  0  -0.207955  -0.304606  0  2.902673  0
S  S119  1  0.98324815  0.10581631  0.12373963  1  0  -0.348466  0  2.493123  0  0  -0.316066  0  2.913359  0  0  -0.334826  0  2.900867  0  -0.161501  0  -0.209139  -0.303268  0  2.921404  0
N  N120  1  0.89790925  0.71347544  0.07487279  1  0  -0.124599  0  3.436887  0  0  -0.029955  0  3.662462  0  0  -0.04814  0  3.685116  0  -1.158256  0  -0.266989  -0.017903  0  3.646904  0
N  N121  1  0.70598445  0.28708813  0.92416810  1  0  -0.126768  0  3.43488  0  0  -0.030683  0  3.659864  0  0  -0.048895  0  3.682456  0  -1.138315  0  -0.266853  -0.018611  0  3.644301  0
N  N122  1  0.38534785  0.92293084  0.71006594  1  0  -0.126243  0  3.438172  0  0  -0.031834  0  3.66521  0  0  -0.049906  0  3.687583  0  -1.157702  0  -0.267703  -0.019816  0  3.649763  0
N  N123  1  0.01206479  0.07635544  0.28994889  1  0  -0.123583  0  3.434621  0  0  -0.027844  0  3.65882  0  0  -0.045898  0  3.681409  0  -1.140584  0  -0.266758  -0.015884  0  3.643258  0
N  N124  1  0.10955601  0.49792270  0.84085099  1  0  -0.315836  0  3.106837  0  0  -0.276275  0  3.377572  0  0  -0.28678  0  3.392944  0  -1.213896  0  -0.325986  -0.268996  0  3.366942  0
N  N125  1  0.43022733  0.50222433  0.15818925  1  0  -0.315548  0  3.108008  0  0  -0.276747  0  3.380504  0  0  -0.287116  0  3.395708  0  -1.198367  0  -0.325179  -0.269575  0  3.370011  0
N  N126  1  0.40268953  0.15976507  0.49824786  1  0  -0.31358  0  3.112192  0  0  -0.273635  0  3.383634  0  0  -0.284257  0  3.399147  0  -1.216255  0  -0.324554  -0.266279  0  3.372893  0
N  N127  1  0.06420682  0.83962814  0.50166579  1  0  -0.31272  0  3.113544  0  0  -0.272832  0  3.38464  0  0  -0.283442  0  3.400173  0  -1.21916  0  -0.324592  -0.265476  0  3.373898  0
