# generated using pymatgen
data_Pr2H18(C3O8)3
_symmetry_space_group_name_H-M   'P 1'
_cell_length_a   8.95637470
_cell_length_b   8.95649911
_cell_length_c   8.95642949
_cell_angle_alpha   65.77347653
_cell_angle_beta   65.77374744
_cell_angle_gamma   65.77369781
_symmetry_Int_Tables_number   1
_chemical_formula_structural   Pr2H18(C3O8)3
_chemical_formula_sum   'Pr2 H18 C9 O24'
_cell_volume   571.64002242
_cell_formula_units_Z   1
loop_
 _symmetry_equiv_pos_site_id
 _symmetry_equiv_pos_as_xyz
  1  'x, y, z'
loop_
 _atom_site_type_symbol
 _atom_site_label
 _atom_site_symmetry_multiplicity
 _atom_site_fract_x
 _atom_site_fract_y
 _atom_site_fract_z
 _atom_site_occupancy
 _atom_site_hle17_bader_spin_density
 _atom_site_hle17_ddec_charge
 _atom_site_hle17_ddec_spin_density
 _atom_site_hle17_ddec_sum_bond_order
 _atom_site_hle17_magmom
 _atom_site_hse06_10hf_bader_spin_density
 _atom_site_hse06_10hf_ddec_charge
 _atom_site_hse06_10hf_ddec_spin_density
 _atom_site_hse06_10hf_ddec_sum_bond_order
 _atom_site_hse06_10hf_magmom
 _atom_site_hse06_bader_spin_density
 _atom_site_hse06_ddec_charge
 _atom_site_hse06_ddec_spin_density
 _atom_site_hse06_ddec_sum_bond_order
 _atom_site_hse06_magmom
 _atom_site_pbe_bader_spin_density
 _atom_site_pbe_cm5_charge
 _atom_site_pbe_ddec_charge
 _atom_site_pbe_ddec_spin_density
 _atom_site_pbe_ddec_sum_bond_order
 _atom_site_pbe_magmom
Pr  Pr0  1  0.77063050  0.77063489  0.77064374  1  0  2.290132  0  1.729321  0  0  2.223357  0  1.997838  0  0  2.255155  0  1.958036  0  0  1.503668  2.146234  0  2.1277  0
Pr  Pr1  1  0.22936089  0.22936912  0.22936911  1  0  2.344204  0  1.623409  0  0  2.223215  0  1.998095  0  0  2.255015  0  1.958293  0  0  1.50363  2.146144  0  2.127883  0
H  H2  1  0.67245403  0.45296819  0.81283676  1  0  0.417936  0  0.878305  0  0  0.385085  0  0.952981  0  0  0.397499  0  0.935021  0  0  0.309005  0.376391  0  0.965407  0
H  H3  1  0.81283500  0.67246128  0.45296900  1  0  0.417994  0  0.878271  0  0  0.385184  0  0.952854  0  0  0.397608  0  0.934885  0  0  0.309033  0.376477  0  0.965305  0
H  H4  1  0.45296884  0.81283199  0.67245087  1  0  0.417999  0  0.878258  0  0  0.385227  0  0.952794  0  0  0.397652  0  0.934822  0  0  0.309052  0.376525  0  0.965237  0
H  H5  1  0.18716396  0.54703430  0.32754635  1  0  0.417781  0  0.879017  0  0  0.38519  0  0.952849  0  0  0.397613  0  0.934879  0  0  0.309043  0.376504  0  0.965266  0
H  H6  1  0.54703739  0.32754077  0.18716842  1  0  0.417737  0  0.879083  0  0  0.385138  0  0.952918  0  0  0.397555  0  0.934957  0  0  0.309032  0.376456  0  0.96533  0
H  H7  1  0.32754610  0.18716909  0.54703676  1  0  0.417756  0  0.879028  0  0  0.38516  0  0.952882  0  0  0.397583  0  0.934913  0  0  0.309022  0.376472  0  0.965303  0
H  H8  1  0.78467519  0.71516958  0.14387348  1  0  0.44661  0  0.847593  0  0  0.414323  0  0.910716  0  0  0.426074  0  0.893495  0  0  0.301161  0.405776  0  0.923189  0
H  H9  1  0.14387523  0.78467413  0.71516956  1  0  0.446573  0  0.847641  0  0  0.414313  0  0.910727  0  0  0.426063  0  0.893508  0  0  0.301156  0.405777  0  0.923185  0
H  H10  1  0.71517065  0.14387403  0.78467398  1  0  0.446575  0  0.847642  0  0  0.414309  0  0.910734  0  0  0.426057  0  0.893517  0  0  0.301151  0.405766  0  0.923201  0
H  H11  1  0.85612851  0.28481752  0.21533141  1  0  0.44649  0  0.847787  0  0  0.414314  0  0.910724  0  0  0.426061  0  0.89351  0  0  0.30114  0.40578  0  0.923177  0
H  H12  1  0.28482582  0.21533022  0.85612965  1  0  0.44649  0  0.847806  0  0  0.414328  0  0.910708  0  0  0.426074  0  0.893497  0  0  0.301175  0.405791  0  0.923167  0
H  H13  1  0.21533531  0.85612985  0.28481983  1  0  0.446514  0  0.84775  0  0  0.414335  0  0.910696  0  0  0.426085  0  0.893478  0  0  0.301139  0.4058  0  0.923152  0
H  H14  1  0.96631107  0.62673923  0.02964763  1  0  0.440739  0  0.850063  0  0  0.41247  0  0.909151  0  0  0.422765  0  0.893816  0  0  0.310681  0.405231  0  0.919718  0
H  H15  1  0.02964562  0.96631130  0.62674016  1  0  0.440756  0  0.850033  0  0  0.41248  0  0.909134  0  0  0.422775  0  0.893798  0  0  0.310679  0.405241  0  0.919702  0
H  H16  1  0.62673976  0.02964669  0.96631089  1  0  0.440752  0  0.850045  0  0  0.412481  0  0.909141  0  0  0.422778  0  0.893802  0  0  0.310663  0.405241  0  0.919709  0
H  H17  1  0.97035177  0.37325606  0.03369762  1  0  0.440662  0  0.85025  0  0  0.412504  0  0.909119  0  0  0.422799  0  0.893782  0  0  0.310678  0.405265  0  0.919686  0
H  H18  1  0.37325978  0.03369301  0.97035481  1  0  0.440644  0  0.850259  0  0  0.412483  0  0.909134  0  0  0.422779  0  0.893796  0  0  0.310673  0.405244  0  0.919701  0
H  H19  1  0.03369788  0.97034909  0.37325886  1  0  0.440693  0  0.850202  0  0  0.412539  0  0.909065  0  0  0.422834  0  0.893728  0  0  0.310692  0.4053  0  0.919632  0
C  C20  1  0.46265128  0.53734783  0.00000295  1  0  0.325605  0  3.685764  0  0  0.305973  0  3.950446  0  0  0.312805  0  3.95288  0  0  0.162119  0.300597  0  3.946696  0
C  C21  1  0.99999831  0.46265564  0.53734937  1  0  0.32562  0  3.685781  0  0  0.305979  0  3.950503  0  0  0.312815  0  3.952938  0  0  0.162133  0.300632  0  3.946708  0
C  C22  1  0.53735071  0.99999641  0.46265291  1  0  0.325518  0  3.685774  0  0  0.305849  0  3.950481  0  0  0.312679  0  3.952918  0  0  0.16208  0.3005  0  3.946689  0
C  C23  1  0.41162991  0.68151503  0.08353276  1  0  0.621409  0  3.814868  0  0  0.56419  0  4.120486  0  0  0.596467  0  4.113322  0  0  0.235313  0.542264  0  4.123408  0
C  C24  1  0.08354021  0.41162915  0.68151184  1  0  0.621302  0  3.814814  0  0  0.564035  0  4.120522  0  0  0.59631  0  4.113363  0  0  0.235255  0.542092  0  4.12345  0
C  C25  1  0.68152259  0.08353455  0.41161976  1  0  0.621318  0  3.814888  0  0  0.564196  0  4.120381  0  0  0.596467  0  4.11322  0  0  0.235313  0.542269  0  4.123299  0
C  C26  1  0.91646077  0.31849841  0.58836173  1  0  0.62098  0  3.816852  0  0  0.564116  0  4.120424  0  0  0.596391  0  4.113261  0  0  0.235246  0.542181  0  4.123324  0
C  C27  1  0.31849095  0.58836106  0.91646134  1  0  0.62092  0  3.817008  0  0  0.56403  0  4.120633  0  0  0.596309  0  4.113469  0  0  0.235216  0.542118  0  4.123527  0
C  C28  1  0.58835464  0.91646726  0.31849326  1  0  0.621037  0  3.816974  0  0  0.564189  0  4.120529  0  0  0.596475  0  4.113358  0  0  0.235298  0.542244  0  4.123435  0
O  O29  1  0.62400905  0.53867882  0.88068976  1  0  -0.693211  0  2.236788  0  0  -0.655778  0  2.470519  0  0  -0.671039  0  2.452302  0  0  -0.437088  -0.638783  0  2.484104  0
O  O30  1  0.88068880  0.62401038  0.53867674  1  0  -0.693239  0  2.236821  0  0  -0.655854  0  2.470491  0  0  -0.67113  0  2.452265  0  0  -0.437113  -0.638866  0  2.484078  0
O  O31  1  0.53867940  0.88068398  0.62400536  1  0  -0.693239  0  2.236873  0  0  -0.655882  0  2.470517  0  0  -0.671155  0  2.452292  0  0  -0.437102  -0.638883  0  2.484104  0
O  O32  1  0.11931604  0.46132226  0.37599980  1  0  -0.698525  0  2.234859  0  0  -0.655867  0  2.470498  0  0  -0.671142  0  2.452274  0  0  -0.437099  -0.638886  0  2.484062  0
O  O33  1  0.46132102  0.37600061  0.11931767  1  0  -0.698481  0  2.23497  0  0  -0.655816  0  2.47061  0  0  -0.671088  0  2.452394  0  0  -0.437069  -0.638825  0  2.484177  0
O  O34  1  0.37599982  0.11931734  0.46132312  1  0  -0.69848  0  2.234786  0  0  -0.655813  0  2.470432  0  0  -0.671089  0  2.452211  0  0  -0.437059  -0.63883  0  2.483998  0
O  O35  1  0.48521937  0.79815342  0.99818433  1  0  -0.665601  0  2.055822  0  0  -0.618856  0  2.295146  0  0  -0.642365  0  2.284581  0  0  -0.358425  -0.596585  0  2.302994  0
O  O36  1  0.99818280  0.48521503  0.79815873  1  0  -0.665532  0  2.055553  0  0  -0.618783  0  2.294916  0  0  -0.642293  0  2.28436  0  0  -0.358388  -0.596509  0  2.302765  0
O  O37  1  0.79816345  0.99817610  0.48521657  1  0  -0.665553  0  2.055554  0  0  -0.618848  0  2.294833  0  0  -0.642358  0  2.284272  0  0  -0.358429  -0.596572  0  2.302674  0
O  O38  1  0.00180353  0.20185863  0.51477367  1  0  -0.670707  0  2.053152  0  0  -0.61876  0  2.295025  0  0  -0.642269  0  2.284463  0  0  -0.358378  -0.596502  0  2.302871  0
O  O39  1  0.20185003  0.51477136  0.00181740  1  0  -0.670654  0  2.053191  0  0  -0.61871  0  2.2951  0  0  -0.64222  0  2.284536  0  0  -0.358341  -0.59645  0  2.302934  0
O  O40  1  0.51477233  0.00181944  0.20185353  1  0  -0.670586  0  2.053293  0  0  -0.618727  0  2.295246  0  0  -0.642235  0  2.284677  0  0  -0.358365  -0.596473  0  2.303103  0
O  O41  1  0.29605713  0.67701163  0.22524527  1  0  -0.561807  0  2.008688  0  0  -0.500308  0  2.212618  0  0  -0.525456  0  2.201134  0  0  -0.27695  -0.483587  0  2.221072  0
O  O42  1  0.22524275  0.29606105  0.67701356  1  0  -0.561763  0  2.008875  0  0  -0.500252  0  2.212814  0  0  -0.525392  0  2.201331  0  0  -0.276925  -0.483518  0  2.221269  0
O  O43  1  0.67702258  0.22522918  0.29605877  1  0  -0.561712  0  2.009038  0  0  -0.500253  0  2.212947  0  0  -0.525383  0  2.201453  0  0  -0.276923  -0.483552  0  2.221415  0
O  O44  1  0.77474720  0.32300396  0.70393649  1  0  -0.561824  0  2.008661  0  0  -0.500327  0  2.212581  0  0  -0.525472  0  2.201105  0  0  -0.276932  -0.483571  0  2.221011  0
O  O45  1  0.32299884  0.70393197  0.77475053  1  0  -0.561774  0  2.008763  0  0  -0.500314  0  2.212699  0  0  -0.525465  0  2.201216  0  0  -0.276937  -0.483591  0  2.22115  0
O  O46  1  0.70393797  0.77475112  0.32299550  1  0  -0.561969  0  2.008577  0  0  -0.500443  0  2.212424  0  0  -0.525606  0  2.200951  0  0  -0.276972  -0.483653  0  2.220845  0
O  O47  1  0.84442901  0.68174476  0.03575466  1  0  -0.932758  0  1.877227  0  0  -0.89522  0  2.064739  0  0  -0.912049  0  2.029271  0  0  -0.666021  -0.876431  0  2.093645  0
O  O48  1  0.03575552  0.84442720  0.68174616  1  0  -0.932749  0  1.877241  0  0  -0.895209  0  2.064687  0  0  -0.91204  0  2.029221  0  0  -0.665985  -0.876416  0  2.093576  0
O  O49  1  0.68174880  0.03575684  0.84442382  1  0  -0.932754  0  1.877253  0  0  -0.895213  0  2.064706  0  0  -0.912044  0  2.029242  0  0  -0.665976  -0.876422  0  2.093607  0
O  O50  1  0.96424230  0.31825928  0.15557956  1  0  -0.938575  0  1.871966  0  0  -0.895223  0  2.064707  0  0  -0.912055  0  2.029246  0  0  -0.665975  -0.876437  0  2.093585  0
O  O51  1  0.31825587  0.15557705  0.96424650  1  0  -0.938597  0  1.87204  0  0  -0.895234  0  2.064748  0  0  -0.912064  0  2.029287  0  0  -0.666008  -0.87645  0  2.093634  0
O  O52  1  0.15558205  0.96424183  0.31826020  1  0  -0.938654  0  1.871936  0  0  -0.895302  0  2.064647  0  0  -0.912133  0  2.029181  0  0  -0.665989  -0.876517  0  2.09353  0
