# generated using pymatgen
data_ZnH16C43(N3O13)2
_symmetry_space_group_name_H-M   'P 1'
_cell_length_a   17.95836254
_cell_length_b   19.19173306
_cell_length_c   27.86265700
_cell_angle_alpha   90.32424590
_cell_angle_beta   89.89698097
_cell_angle_gamma   89.97876235
_symmetry_Int_Tables_number   1
_chemical_formula_structural   ZnH16C43(N3O13)2
_chemical_formula_sum   'Zn2 H32 C86 N12 O52'
_cell_volume   9602.75325662
_cell_formula_units_Z   2
loop_
 _symmetry_equiv_pos_site_id
 _symmetry_equiv_pos_as_xyz
  1  'x, y, z'
loop_
 _atom_site_type_symbol
 _atom_site_label
 _atom_site_symmetry_multiplicity
 _atom_site_fract_x
 _atom_site_fract_y
 _atom_site_fract_z
 _atom_site_occupancy
 _atom_site_pbe_bader_charge
 _atom_site_pbe_bader_spin_density
 _atom_site_pbe_cm5_charge
 _atom_site_pbe_ddec_charge
 _atom_site_pbe_ddec_spin_density
 _atom_site_pbe_ddec_sum_bond_order
 _atom_site_pbe_magmom
Zn  Zn0  1  0.42284934  0.50177124  0.49937125  1  1.293167  0  0.673659  0.816799  0  2.463184  0
Zn  Zn1  1  0.57795902  0.49962366  0.49871905  1  1.272012  0  0.677862  0.812703  0  2.434025  0
H  H2  1  0.37865507  0.46709177  0.35026719  1  0.07394  0  0.107638  0.112566  0  1.000151  0
H  H3  1  0.30543299  0.43350246  0.44223850  1  0.164713  0  0.134927  0.115067  0  0.981499  0
H  H4  1  0.83573210  0.38285441  0.36521132  1  0.631015  0  0.35924  0.39683  0  0.830829  0
H  H5  1  0.16876850  0.64073907  0.62432184  1  0.62481  0  0.359598  0.397415  0  0.831216  0
H  H6  1  0.82417283  0.63096160  0.62939324  1  0.635259  0  0.360277  0.39909  0  0.829639  0
H  H7  1  0.17110914  0.36023368  0.37584869  1  0.631451  0  0.356219  0.394744  0  0.836419  0
H  H8  1  0.37368940  0.46574788  0.26006896  1  0.045783  0  0.113975  0.123621  0  0.970631  0
H  H9  1  0.37559615  0.52705794  0.73923631  1  0.071754  0  0.115815  0.124432  0  0.969005  0
H  H10  1  0.62158951  0.25367192  0.12995528  1  0.635078  0  0.355161  0.393512  0  0.832268  0
H  H11  1  0.60544166  0.74307867  0.87023136  1  0.627737  0  0.355928  0.394759  0  0.831824  0
H  H12  1  0.61236624  0.47599161  0.65311698  1  0.119084  0  0.116903  0.130174  0  0.986364  0
H  H13  1  0.38087111  0.53179829  0.64917980  1  0.118554  0  0.112402  0.117482  0  0.990825  0
H  H14  1  0.61133101  0.51745004  0.34422776  1  0.102589  0  0.118367  0.12937  0  0.979668  0
H  H15  1  0.61944069  0.56329911  0.77899292  1  0.622019  0  0.312176  0.359319  0  0.944393  0
H  H16  1  0.61847064  0.42654236  0.21870563  1  0.615183  0  0.30967  0.356897  0  0.954243  0
H  H17  1  0.47103064  0.23364191  0.83033251  1  0.628122  0  0.357679  0.397101  0  0.827346  0
H  H18  1  0.44779676  0.75170405  0.16832116  1  0.634173  0  0.359523  0.399385  0  0.822845  0
H  H19  1  0.41854729  0.20675431  0.97119580  1  0.628074  0  0.358716  0.398774  0  0.825078  0
H  H20  1  0.39321158  0.77479001  0.02670638  1  0.616723  0  0.358953  0.398964  0  0.824768  0
H  H21  1  0.50026105  0.32063256  0.02719837  1  0.090047  0  0.115849  0.120237  0  1.004291  0
H  H22  1  0.48726804  0.66719930  0.97173085  1  0.105829  0  0.115798  0.120469  0  1.002827  0
H  H23  1  0.38710298  0.28503047  0.37127227  1  0.624049  0  0.34913  0.384599  0  0.847446  0
H  H24  1  0.48069174  0.10709020  0.36793207  1  0.619167  0  0.354056  0.394582  0  0.831518  0
H  H25  1  0.67362098  0.67293503  0.59535643  1  0.602182  0  0.335509  0.377399  0  0.871148  0
H  H26  1  0.45089156  0.66264234  0.37378724  1  0.62309  0  0.349516  0.393423  0  0.832904  0
H  H27  1  0.50444011  0.33261097  0.65368569  1  0.623134  0  0.347142  0.395157  0  0.8385  0
H  H28  1  0.52501827  0.91335264  0.64555644  1  0.614742  0  0.353572  0.39333  0  0.834109  0
H  H29  1  0.31598768  0.90402111  0.42274855  1  0.636185  0  0.358001  0.397702  0  0.821759  0
H  H30  1  0.59180126  0.15056702  0.65416097  1  0.629631  0  0.356351  0.392839  0  0.832662  0
H  H31  1  0.69775413  0.43852559  0.43697555  1  0.164283  0  0.141554  0.122392  0  0.960919  0
H  H32  1  0.30425495  0.57085738  0.55704619  1  0.168446  0  0.139536  0.120616  0  0.968178  0
H  H33  1  0.69327949  0.55809396  0.56061190  1  0.153852  0  0.134964  0.109377  0  0.995188  0
C  C34  1  0.50031511  0.36579128  0.50281345  1  1.650851  0  0.214465  0.586215  0  4.224397  0
C  C35  1  0.45702335  0.43370633  0.87044491  1  -0.038853  0  0.002066  -0.085875  0  3.94326  0
C  C36  1  0.49544872  0.49151000  0.35231764  1  -0.005405  0  -0.008644  -0.020975  0  3.955308  0
C  C37  1  0.49701375  0.50493874  0.64605760  1  0.076252  0  -0.006409  -0.018291  0  3.950784  0
C  C38  1  0.45069667  0.42876089  0.97182450  1  0.035102  0  0.023427  0.039068  0  3.926528  0
C  C39  1  0.44502441  0.55593089  0.02650132  1  0.022688  0  0.024366  0.044494  0  3.925979  0
C  C40  1  0.46002665  0.55783981  0.97499023  1  -0.056149  0  0.016864  0.059727  0  3.962612  0
C  C41  1  0.46453012  0.42784170  0.02346981  1  0.032437  0  0.016981  0.063404  0  3.958082  0
C  C42  1  0.45851095  0.49406716  0.94838206  1  0.032584  0  0.013383  0.008208  0  3.928346  0
C  C43  1  0.45747277  0.49135427  0.05003706  1  0.050261  0  0.013425  0.005141  0  3.928106  0
C  C44  1  0.43579640  0.36882217  0.94419593  1  0.047492  0  0.011002  -0.073377  0  3.855791  0
C  C45  1  0.50314482  0.63594247  0.49770484  1  1.627253  0  0.217674  0.595005  0  4.196334  0
C  C46  1  0.42465533  0.61471713  0.05392048  1  -0.015484  0  0.009834  -0.076627  0  3.859739  0
C  C47  1  0.44032375  0.37118685  0.89353678  1  -0.00298  0  0.024979  -0.006165  0  3.853623  0
C  C48  1  0.42860907  0.61288854  0.10455892  1  0.1001  0  0.025851  -0.005526  0  3.856873  0
C  C49  1  0.49781174  0.49373979  0.40604759  1  1.626974  0  0.219634  0.59921  0  4.169263  0
C  C50  1  0.49943023  0.50671063  0.59230820  1  1.54239  0  0.218711  0.593938  0  4.169389  0
C  C51  1  0.48894621  0.36833043  0.04726581  1  0.058553  0  -0.064318  -0.128006  0  3.892286  0
C  C52  1  0.48043123  0.61892268  0.95149401  1  0.006721  0  -0.063655  -0.127756  0  3.888953  0
C  C53  1  0.47373943  0.24684629  0.46797795  1  0.051617  0  0.00851  -0.048555  0  3.886278  0
C  C54  1  0.53495946  0.74591633  0.54240844  1  0.103143  0  0.017478  -0.029488  0  3.861778  0
C  C55  1  0.45758858  0.75314664  0.47069513  1  0.002735  0  0.013421  -0.033657  0  3.874808  0
C  C56  1  0.46430275  0.49023276  0.10087835  1  -0.041114  0  0.013849  0.053017  0  4.002587  0
C  C57  1  0.51418503  0.25602845  0.55110801  1  -0.002585  0  0.015668  -0.02917  0  3.853759  0
C  C58  1  0.46586994  0.17434466  0.47286761  1  0.001191  0  0.013693  -0.049073  0  3.873125  0
C  C59  1  0.52310953  0.81717014  0.55114884  1  -0.032789  0  0.010485  -0.062024  0  3.886247  0
C  C60  1  0.44775723  0.82473747  0.47840963  1  0.001223  0  0.015854  -0.048965  0  3.870201  0
C  C61  1  0.50632989  0.18367247  0.55609710  1  0.051699  0  0.013125  -0.058603  0  3.882106  0
C  C62  1  0.48131686  0.14298314  0.51713525  1  0.037482  0  0.023476  0.002882  0  3.925071  0
C  C63  1  0.48110451  0.85667521  0.51843138  1  0.101699  0  0.01875  0.000368  0  3.923151  0
C  C64  1  0.49784427  0.28742212  0.50697583  1  0.02652  0  0.021202  -0.017708  0  3.864649  0
C  C65  1  0.50072875  0.71396770  0.50279587  1  -0.019433  0  0.011901  -0.03789  0  3.874391  0
C  C66  1  0.47838122  0.93330911  0.52329073  1  1.018693  0  0.249199  0.25614  0  4.005373  0
C  C67  1  0.46639084  0.49581663  0.89759667  1  0.030556  0  0.014271  0.051356  0  4.001314  0
C  C68  1  0.47841216  0.06610027  0.52217192  1  1.011962  0  0.248849  0.249335  0  4.005851  0
C  C69  1  0.73012471  0.46520574  0.46453854  1  0.508568  0  0.091972  0.122527  0  3.821346  0
C  C70  1  0.27115760  0.54030161  0.53186174  1  0.595919  0  0.089068  0.12094  0  3.825598  0
C  C71  1  0.72786296  0.53245488  0.53373957  1  0.566192  0  0.087669  0.124162  0  3.83209  0
C  C72  1  0.27176380  0.46351622  0.46747316  1  0.55469  0  0.085181  0.116816  0  3.836666  0
C  C73  1  0.80787486  0.46376700  0.46423086  1  0.082281  0  0.010903  -0.095128  0  3.89523  0
C  C74  1  0.19341578  0.54162398  0.53309004  1  -0.019769  0  0.010156  -0.099803  0  3.905268  0
C  C75  1  0.80546554  0.53580820  0.53555039  1  0.001652  0  0.009494  -0.100355  0  3.903415  0
C  C76  1  0.19409919  0.46082039  0.46641998  1  -0.029173  0  0.009005  -0.100449  0  3.907205  0
C  C77  1  0.84692580  0.49976506  0.50039691  1  0.061588  0  0.05691  0.065634  0  3.865956  0
C  C78  1  0.48895131  0.42859922  0.12388755  1  0.04272  0  0.000261  -0.089616  0  3.958416  0
C  C79  1  0.15352947  0.50093409  0.49980939  1  0.036486  0  0.056844  0.068635  0  3.86935  0
C  C80  1  0.07064168  0.50037204  0.49994148  1  1.051025  0  0.255175  0.251588  0  4.008205  0
C  C81  1  0.92978006  0.50010020  0.50056429  1  1.025275  0  0.255873  0.251237  0  4.003339  0
C  C82  1  0.50483257  0.42947489  0.17551435  1  1.3337  0  0.250873  0.440742  0  4.104805  0
C  C83  1  0.50452617  0.55911090  0.82343077  1  1.304075  0  0.251766  0.440753  0  4.102434  0
C  C84  1  0.45255155  0.54972947  0.18069433  1  1.316988  0  0.251395  0.446231  0  4.067782  0
C  C85  1  0.46013450  0.43626232  0.81744852  1  1.358711  0  0.250598  0.445502  0  4.068217  0
C  C86  1  0.55818907  0.50247374  0.27550744  1  -0.032727  0  -0.008464  -0.115981  0  3.97348  0
C  C87  1  0.55936943  0.48824650  0.72229916  1  -0.01607  0  -0.011318  -0.123443  0  3.993157  0
C  C88  1  0.55967185  0.50489057  0.32567438  1  0.01253  0  -0.063469  -0.080136  0  3.901577  0
C  C89  1  0.48714875  0.55894631  0.87492135  1  0.135121  0  0.001227  -0.088713  0  3.952727  0
C  C90  1  0.56098999  0.48855949  0.67212523  1  -0.03081  0  -0.067849  -0.09561  0  3.927832  0
C  C91  1  0.42830518  0.47672776  0.32883772  1  -0.068817  0  -0.076114  -0.075693  0  3.969522  0
C  C92  1  0.43014417  0.51928540  0.67012672  1  0.018737  0  -0.069099  -0.05893  0  3.936687  0
C  C93  1  0.42570522  0.47548221  0.27903914  1  0.143871  0  -0.082377  -0.148173  0  3.989278  0
C  C94  1  0.42741420  0.51725038  0.71993206  1  -0.005358  0  -0.078116  -0.141448  0  3.974466  0
C  C95  1  0.49043023  0.48790798  0.25271020  1  0.318163  0  0.090693  0.15938  0  4.007186  0
C  C96  1  0.49186006  0.50228604  0.74569006  1  0.270611  0  0.090021  0.156118  0  4.016476  0
C  C97  1  0.44634320  0.12927580  0.43035920  1  1.536869  0  0.232108  0.578178  0  4.12876  0
C  C98  1  0.55160240  0.84834352  0.59709761  1  1.565227  0  0.233899  0.572805  0  4.141674  0
C  C99  1  0.40963794  0.86978190  0.44153905  1  1.56518  0  0.234016  0.583593  0  4.150136  0
C  C100  1  0.50342475  0.36885747  0.09670180  1  -0.04661  0  0.021632  0.016015  0  3.901869  0
C  C101  1  0.52366309  0.14798870  0.60252410  1  1.551222  0  0.235105  0.576362  0  4.137349  0
C  C102  1  0.84801197  0.42124330  0.42725539  1  1.535024  0  0.239489  0.575861  0  4.134243  0
C  C103  1  0.15379313  0.58856285  0.56758451  1  1.557863  0  0.239462  0.575225  0  4.134039  0
C  C104  1  0.84264440  0.58039567  0.57239149  1  1.519134  0  0.241495  0.578878  0  4.113686  0
C  C105  1  0.15555616  0.41297837  0.43214158  1  1.551776  0  0.239069  0.576982  0  4.126541  0
C  C106  1  0.53179937  0.30216836  0.11825014  1  1.57694  0  0.234114  0.584763  0  4.154324  0
C  C107  1  0.51985880  0.68792346  0.88082487  1  1.585998  0  0.235679  0.58477  0  4.150553  0
C  C108  1  0.63025777  0.47258735  0.74876821  1  1.546429  0  0.224277  0.582229  0  4.134979  0
C  C109  1  0.62970840  0.51701556  0.24919537  1  1.541393  0  0.224589  0.580085  0  4.137715  0
C  C110  1  0.42375616  0.30555349  0.86532718  1  1.58576  0  0.230973  0.577954  0  4.176267  0
C  C111  1  0.49641042  0.61946047  0.90222008  1  -0.065882  0  0.021565  0.019837  0  3.891722  0
C  C112  1  0.40649045  0.67718340  0.13274824  1  1.580656  0  0.230977  0.579913  0  4.176518  0
C  C113  1  0.40564381  0.30439455  0.96785048  1  1.548613  0  0.23189  0.568639  0  4.162064  0
C  C114  1  0.38935883  0.67648523  0.02995622  1  1.508872  0  0.232819  0.569758  0  4.158834  0
C  C115  1  0.45687323  0.28285754  0.42165083  1  1.525542  0  0.234136  0.576062  0  4.122325  0
C  C116  1  0.57697010  0.70214605  0.57835444  1  1.594506  0  0.235227  0.596524  0  4.129659  0
C  C117  1  0.42410377  0.71919298  0.42694598  1  1.56218  0  0.232878  0.582167  0  4.127635  0
C  C118  1  0.53791915  0.30169239  0.59264455  1  1.554419  0  0.232872  0.578549  0  4.12814  0
C  C119  1  0.44982046  0.55170109  0.12778478  1  0.014886  0  0.000915  -0.088789  0  3.951359  0
N  N120  1  0.48437540  0.48909331  0.20097796  1  -1.215054  0  -0.229488  -0.205755  0  3.593402  0
N  N121  1  0.03670335  0.53549924  0.46451324  1  -0.628105  0  -0.149345  -0.129645  0  3.16336  0
N  N122  1  0.96314966  0.53561076  0.46498984  1  -0.461456  0  -0.148909  -0.129472  0  3.164898  0
N  N123  1  0.03727299  0.46428941  0.53534106  1  -0.471209  0  -0.147912  -0.130002  0  3.16028  0
N  N124  1  0.48649418  0.49918910  0.79746600  1  -1.179262  0  -0.229876  -0.207394  0  3.598056  0
N  N125  1  0.54478570  0.03412013  0.52780291  1  -0.629797  0  -0.156429  -0.14613  0  3.193811  0
N  N126  1  0.41169109  0.96544907  0.52371766  1  -0.457014  0  -0.147836  -0.134389  0  3.166966  0
N  N127  1  0.54478582  0.96547420  0.52850850  1  -0.463424  0  -0.150323  -0.135198  0  3.195052  0
N  N128  1  0.41158875  0.03441049  0.52330227  1  -0.604059  0  -0.141061  -0.109264  0  3.159655  0
N  N129  1  0.69152385  0.49835912  0.49892315  1  -1.234982  0  -0.311251  -0.178785  0  3.513794  0
N  N130  1  0.30897328  0.50221258  0.49958480  1  -1.260148  0  -0.312096  -0.183414  0  3.51722  0
N  N131  1  0.96384667  0.46386712  0.53552867  1  -0.575663  0  -0.144622  -0.120992  0  3.160827  0
O  O132  1  0.43756104  0.39532972  0.50842842  1  -1.14908  0  -0.313767  -0.538669  0  2.28754  0
O  O133  1  0.53473554  0.60916488  0.80326654  1  -1.096507  0  -0.258765  -0.436812  0  2.137076  0
O  O134  1  0.44112361  0.38781433  0.79130141  1  -1.074657  0  -0.250742  -0.403054  0  2.101526  0
O  O135  1  0.42902864  0.59662807  0.20667109  1  -1.076918  0  -0.2473  -0.398876  0  2.108309  0
O  O136  1  0.39468060  0.08845815  0.42839284  1  -1.090787  0  -0.27422  -0.458427  0  2.091788  0
O  O137  1  0.49621417  0.13845341  0.39399900  1  -1.101964  0  -0.332892  -0.482579  0  2.193867  0
O  O138  1  0.60976338  0.83232947  0.61661771  1  -1.123239  0  -0.285087  -0.470848  0  2.085033  0
O  O139  1  0.50215271  0.89448507  0.61634515  1  -1.107506  0  -0.326557  -0.472364  0  2.235906  0
O  O140  1  0.44427074  0.90087457  0.41057665  1  -1.11365  0  -0.295076  -0.481367  0  2.02849  0
O  O141  1  0.33543013  0.87241319  0.44731432  1  -1.109009  0  -0.315326  -0.455489  0  2.238912  0
O  O142  1  0.48791301  0.09983497  0.61930333  1  -1.117524  0  -0.284996  -0.472342  0  2.071617  0
O  O143  1  0.56550104  0.60632899  0.50313744  1  -1.154868  0  -0.304273  -0.526859  0  2.339285  0
O  O144  1  0.58501252  0.17532016  0.62381097  1  -1.113306  0  -0.319595  -0.467039  0  2.239594  0
O  O145  1  0.90993476  0.39659467  0.43255328  1  -1.100275  0  -0.265738  -0.4447  0  2.098974  0
O  O146  1  0.80615445  0.41193498  0.38711324  1  -1.112484  0  -0.32578  -0.477659  0  2.200527  0
O  O147  1  0.08954438  0.60772315  0.56307450  1  -1.099051  0  -0.260475  -0.437169  0  2.101373  0
O  O148  1  0.19853185  0.60885174  0.60446957  1  -1.109821  0  -0.327781  -0.48093  0  2.201023  0
O  O149  1  0.90798889  0.59709316  0.57173350  1  -1.089367  0  -0.257929  -0.435177  0  2.104841  0
O  O150  1  0.79425487  0.60262479  0.60727834  1  -1.122853  0  -0.328921  -0.490195  0  2.205159  0
O  O151  1  0.09155969  0.39306358  0.43644998  1  -1.09421  0  -0.260128  -0.436331  0  2.102202  0
O  O152  1  0.20093324  0.39240594  0.39536494  1  -1.129397  0  -0.332703  -0.488922  0  2.202338  0
O  O153  1  0.49131864  0.25519429  0.13146016  1  -1.112215  0  -0.286743  -0.468643  0  2.033992  0
O  O154  1  0.44059338  0.60717746  0.48998754  1  -1.161836  0  -0.309033  -0.53817  0  2.324422  0
O  O155  1  0.60707370  0.29854148  0.11608726  1  -1.107658  0  -0.331262  -0.476135  0  2.196421  0
O  O156  1  0.47589338  0.73138964  0.86665053  1  -1.098903  0  -0.28488  -0.466124  0  2.031006  0
O  O157  1  0.59437456  0.69746143  0.88427018  1  -1.125153  0  -0.332366  -0.478813  0  2.197859  0
O  O158  1  0.66516308  0.41884786  0.74317570  1  -1.103074  0  -0.289461  -0.451907  0  2.016846  0
O  O159  1  0.65480061  0.52363823  0.77874615  1  -1.120234  0  -0.346657  -0.482146  0  2.208111  0
O  O160  1  0.66539625  0.57010987  0.25544900  1  -1.110894  0  -0.286882  -0.449625  0  2.017897  0
O  O161  1  0.65409270  0.46603251  0.21912955  1  -1.112464  0  -0.347709  -0.483746  0  2.214074  0
O  O162  1  0.36101069  0.28232095  0.86129376  1  -1.100367  0  -0.280639  -0.461146  0  2.041489  0
O  O163  1  0.48643005  0.27441218  0.84922374  1  -1.112458  0  -0.328514  -0.471175  0  2.225851  0
O  O164  1  0.34199337  0.69592135  0.13661522  1  -1.10064  0  -0.281044  -0.462931  0  2.041803  0
O  O165  1  0.56279474  0.39366833  0.49551121  1  -1.132497  0  -0.298589  -0.510125  0  2.337915  0
O  O166  1  0.46633108  0.71237091  0.14910433  1  -1.110607  0  -0.327646  -0.47077  0  2.223664  0
O  O167  1  0.35031903  0.30475736  0.99307340  1  -1.106135  0  -0.271343  -0.447996  0  2.044015  0
O  O168  1  0.44563836  0.24615164  0.95717926  1  -1.109793  0  -0.327443  -0.480549  0  2.224218  0
O  O169  1  0.33497797  0.67166278  0.00421352  1  -1.084116  0  -0.271846  -0.448811  0  2.041088  0
O  O170  1  0.42346824  0.73770351  0.04097995  1  -1.095163  0  -0.327108  -0.479777  0  2.22446  0
O  O171  1  0.49523344  0.32816286  0.40378147  1  -1.112824  0  -0.267577  -0.450424  0  2.10814  0
O  O172  1  0.39201300  0.25999563  0.40169352  1  -1.123879  0  -0.331699  -0.480423  0  2.222533  0
O  O173  1  0.54633506  0.67241035  0.61154358  1  -1.122071  0  -0.287674  -0.474971  0  2.058814  0
O  O174  1  0.65075339  0.69987216  0.56940383  1  -1.101216  0  -0.330166  -0.472394  0  2.249911  0
O  O175  1  0.35913731  0.72424944  0.41503889  1  -1.115179  0  -0.287132  -0.471038  0  2.060687  0
O  O176  1  0.43564386  0.48652236  0.42757302  1  -1.168949  0  -0.317322  -0.554801  0  2.36002  0
O  O177  1  0.47660221  0.68440708  0.40105090  1  -1.111779  0  -0.327382  -0.472816  0  2.206625  0
O  O178  1  0.59495588  0.33557547  0.59372506  1  -1.092426  0  -0.266508  -0.44002  0  2.087138  0
O  O179  1  0.48581439  0.30169004  0.62817141  1  -1.105937  0  -0.335253  -0.488468  0  2.188914  0
O  O180  1  0.56220051  0.49797131  0.57205901  1  -1.159163  0  -0.306906  -0.533891  0  2.338098  0
O  O181  1  0.43742418  0.51604065  0.57105966  1  -1.162754  0  -0.315939  -0.549169  0  2.345729  0
O  O182  1  0.56067325  0.50343292  0.42580529  1  -1.158425  0  -0.308719  -0.535179  0  2.316324  0
O  O183  1  0.53608413  0.38039123  0.19621199  1  -1.10598  0  -0.263862  -0.445622  0  2.148253  0
