# generated using pymatgen
data_Cd3H8C14S6(N5O)2
_symmetry_space_group_name_H-M   'P 1'
_cell_length_a   11.15790807
_cell_length_b   11.15796536
_cell_length_c   12.86685332
_cell_angle_alpha   115.43065457
_cell_angle_beta   115.43024215
_cell_angle_gamma   90.53573683
_symmetry_Int_Tables_number   1
_chemical_formula_structural   Cd3H8C14S6(N5O)2
_chemical_formula_sum   'Cd6 H16 C28 S12 N20 O4'
_cell_volume   1269.12871051
_cell_formula_units_Z   2
loop_
 _symmetry_equiv_pos_site_id
 _symmetry_equiv_pos_as_xyz
  1  'x, y, z'
loop_
 _atom_site_type_symbol
 _atom_site_label
 _atom_site_symmetry_multiplicity
 _atom_site_fract_x
 _atom_site_fract_y
 _atom_site_fract_z
 _atom_site_occupancy
 _atom_site_hle17_bader_spin_density
 _atom_site_hle17_ddec_charge
 _atom_site_hle17_ddec_spin_density
 _atom_site_hle17_ddec_sum_bond_order
 _atom_site_hle17_magmom
 _atom_site_hse06_10hf_bader_spin_density
 _atom_site_hse06_10hf_ddec_charge
 _atom_site_hse06_10hf_ddec_spin_density
 _atom_site_hse06_10hf_ddec_sum_bond_order
 _atom_site_hse06_10hf_magmom
 _atom_site_hse06_bader_spin_density
 _atom_site_hse06_ddec_charge
 _atom_site_hse06_ddec_spin_density
 _atom_site_hse06_ddec_sum_bond_order
 _atom_site_hse06_magmom
 _atom_site_pbe_bader_spin_density
 _atom_site_pbe_cm5_charge
 _atom_site_pbe_ddec_charge
 _atom_site_pbe_ddec_spin_density
 _atom_site_pbe_ddec_sum_bond_order
 _atom_site_pbe_magmom
Cd  Cd0  1  0.97700624  0.47697359  0.49981229  1  0  0.964661  0  1.989438  0  0  0.781247  0  2.453167  0  0  0.826626  0  2.415308  0  0  0.734634  0.751347  0  2.475658  0
Cd  Cd1  1  0.72696649  0.72700664  0.99980505  1  0  0.964704  0  1.989425  0  0  0.781335  0  2.453081  0  0  0.826711  0  2.415224  0  0  0.734663  0.751434  0  2.475575  0
Cd  Cd2  1  0.41901339  0.13660846  0.60894438  1  0  1.052894  0  1.941234  0  0  0.886709  0  2.414065  0  0  0.934443  0  2.369109  0  0  0.727347  0.852974  0  2.444104  0
Cd  Cd3  1  0.52803126  0.81003632  0.39108708  1  0  1.052948  0  1.940879  0  0  0.886501  0  2.414261  0  0  0.934263  0  2.369247  0  0  0.727125  0.852744  0  2.444341  0
Cd  Cd4  1  0.06003331  0.27803250  0.89108513  1  0  1.052878  0  1.940856  0  0  0.886437  0  2.414212  0  0  0.934197  0  2.369199  0  0  0.727105  0.852678  0  2.444301  0
Cd  Cd5  1  0.38660755  0.16901272  0.10894187  1  0  1.052865  0  1.94135  0  0  0.886695  0  2.414167  0  0  0.934427  0  2.369218  0  0  0.727354  0.852953  0  2.444209  0
H  H6  1  0.80566307  0.04970137  0.54809133  1  0  0.116894  0  0.985997  0  0  0.117822  0  1.060432  0  0  0.121507  0  1.058163  0  0  0.11884  0.115409  0  1.061761  0
H  H7  1  0.50199208  0.25710620  0.45201935  1  0  0.117372  0  0.985397  0  0  0.11836  0  1.059556  0  0  0.122104  0  1.057236  0  0  0.119241  0.115891  0  1.06093  0
H  H8  1  0.50710927  0.25198925  0.95202147  1  0  0.117345  0  0.985422  0  0  0.118319  0  1.059601  0  0  0.122078  0  1.057268  0  0  0.119226  0.11585  0  1.060974  0
H  H9  1  0.29970236  0.55565887  0.04809232  1  0  0.116857  0  0.986128  0  0  0.117731  0  1.060614  0  0  0.121418  0  1.058343  0  0  0.118804  0.115318  0  1.061941  0
H  H10  1  0.96355259  0.20565499  0.53958619  1  0  0.106465  0  0.94182  0  0  0.11026  0  1.007312  0  0  0.112614  0  1.006252  0  0  0.122213  0.108364  0  1.008507  0
H  H11  1  0.66627725  0.42359056  0.46052008  1  0  0.105959  0  0.94142  0  0  0.109651  0  1.00735  0  0  0.112005  0  1.006281  0  0  0.122129  0.107771  0  1.008548  0
H  H12  1  0.67359457  0.41627456  0.96051947  1  0  0.105992  0  0.941469  0  0  0.109667  0  1.007425  0  0  0.112018  0  1.006354  0  0  0.122166  0.10779  0  1.008621  0
H  H13  1  0.45565692  0.71354770  0.03958961  1  0  0.106512  0  0.941801  0  0  0.110215  0  1.007387  0  0  0.112568  0  1.006328  0  0  0.122189  0.108321  0  1.008576  0
H  H14  1  0.46563592  0.73531013  0.59909577  1  0  0.124796  0  0.964218  0  0  0.12515  0  1.038842  0  0  0.129294  0  1.03548  0  0  0.121847  0.122129  0  1.041572  0
H  H15  1  0.13628226  0.86665457  0.40080352  1  0  0.125146  0  0.964487  0  0  0.12534  0  1.039476  0  0  0.129522  0  1.036055  0  0  0.121752  0.122306  0  1.042231  0
H  H16  1  0.11666267  0.88628191  0.90080460  1  0  0.125152  0  0.964463  0  0  0.12533  0  1.039512  0  0  0.129516  0  1.036087  0  0  0.121743  0.122292  0  1.04226  0
H  H17  1  0.98531290  0.21563583  0.09909432  1  0  0.124824  0  0.964173  0  0  0.125175  0  1.038765  0  0  0.129308  0  1.035435  0  0  0.121841  0.122155  0  1.041498  0
H  H18  1  0.30306319  0.57202410  0.59731919  1  0  0.105934  0  0.928998  0  0  0.109133  0  0.995502  0  0  0.11181  0  0.993735  0  0  0.123281  0.107013  0  0.997113  0
H  H19  1  0.97456500  0.70564185  0.40217884  1  0  0.105923  0  0.928251  0  0  0.109427  0  0.994924  0  0  0.112074  0  0.993166  0  0  0.123572  0.107338  0  0.996488  0
H  H20  1  0.95564760  0.72456286  0.90217685  1  0  0.10585  0  0.928276  0  0  0.109416  0  0.994912  0  0  0.112064  0  0.993152  0  0  0.123538  0.10733  0  0.996457  0
H  H21  1  0.82202771  0.05306321  0.09731886  1  0  0.10594  0  0.929033  0  0  0.109145  0  0.995541  0  0  0.111821  0  0.99377  0  0  0.123267  0.107026  0  0.99715  0
C  C22  1  0.77619212  0.13135401  0.52524362  1  0  -0.016045  0  3.572734  0  0  -0.061751  0  3.831477  0  0  -0.059852  0  3.844341  0  0  0.045069  -0.063204  0  3.823248  0
C  C23  1  0.60651552  0.25060155  0.47495019  1  0  -0.016231  0  3.571955  0  0  -0.061592  0  3.830188  0  0  -0.059744  0  3.843025  0  0  0.044786  -0.062973  0  3.821956  0
C  C24  1  0.50060205  0.35651526  0.97495117  1  0  -0.016196  0  3.571998  0  0  -0.061545  0  3.830233  0  0  -0.059705  0  3.843056  0  0  0.044784  -0.06293  0  3.822005  0
C  C25  1  0.38135588  0.52619358  0.02524504  1  0  -0.015981  0  3.572899  0  0  -0.061624  0  3.831612  0  0  -0.059728  0  3.844483  0  0  0.045074  -0.063082  0  3.823387  0
C  C26  1  0.86151601  0.21941239  0.52237961  1  0  0.115197  0  3.682078  0  0  0.085914  0  3.940028  0  0  0.091303  0  3.955276  0  0  0.060524  0.082034  0  3.930182  0
C  C27  1  0.69734678  0.33882340  0.47777593  1  0  0.116059  0  3.681555  0  0  0.086761  0  3.93934  0  0  0.092126  0  3.954604  0  0  0.060453  0.082855  0  3.92947  0
C  C28  1  0.58882506  0.44734510  0.97777838  1  0  0.116026  0  3.681701  0  0  0.086731  0  3.939529  0  0  0.0921  0  3.954795  0  0  0.060442  0.08282  0  3.929663  0
C  C29  1  0.46941095  0.61151512  0.02238206  1  0  0.115127  0  3.682191  0  0  0.085909  0  3.940155  0  0  0.091299  0  3.955406  0  0  0.060531  0.082026  0  3.930307  0
C  C30  1  0.35576218  0.72521236  0.55554357  1  0  -0.024936  0  3.543419  0  0  -0.065983  0  3.808628  0  0  -0.063564  0  3.820386  0  0  0.04809  -0.067901  0  3.801821  0
C  C31  1  0.16966972  0.80021607  0.44425326  1  0  -0.026702  0  3.542553  0  0  -0.067658  0  3.808318  0  0  -0.065242  0  3.82007  0  0  0.048054  -0.069586  0  3.80152  0
C  C32  1  0.05022325  0.91967194  0.94425299  1  0  -0.026627  0  3.542499  0  0  -0.067576  0  3.808253  0  0  -0.065159  0  3.820007  0  0  0.048109  -0.069484  0  3.801427  0
C  C33  1  0.97521703  0.10575922  0.05554138  1  0  -0.025045  0  3.543572  0  0  -0.065981  0  3.808679  0  0  -0.063566  0  3.820432  0  0  0.048149  -0.067902  0  3.80188  0
C  C34  1  0.26519402  0.63759298  0.55343593  1  0  0.116098  0  3.690507  0  0  0.084965  0  3.951736  0  0  0.090209  0  3.966521  0  0  0.063531  0.081068  0  3.942603  0
C  C35  1  0.08401518  0.71158390  0.44610823  1  0  0.117696  0  3.68673  0  0  0.08567  0  3.948748  0  0  0.090954  0  3.96349  0  0  0.063277  0.081756  0  3.939642  0
C  C36  1  0.96158809  0.83401617  0.94610779  1  0  0.117736  0  3.6868  0  0  0.085617  0  3.948861  0  0  0.090899  0  3.963609  0  0  0.063281  0.081715  0  3.93975  0
C  C37  1  0.88759422  0.01519297  0.05343628  1  0  0.116059  0  3.69052  0  0  0.084848  0  3.951792  0  0  0.090097  0  3.966569  0  0  0.063473  0.080951  0  3.942664  0
C  C38  1  0.73818095  0.15748606  0.81368772  1  0  0.317698  0  3.999687  0  0  0.297165  0  4.302224  0  0  0.319971  0  4.31751  0  0  0.146404  0.28107  0  4.291793  0
C  C39  1  0.34388799  0.92473852  0.18668910  1  0  0.317695  0  3.997371  0  0  0.297207  0  4.300222  0  0  0.320015  0  4.315484  0  0  0.1461  0.281113  0  4.289807  0
C  C40  1  0.17473791  0.09389144  0.68669160  1  0  0.317796  0  3.997242  0  0  0.297301  0  4.3001  0  0  0.320115  0  4.315344  0  0  0.146175  0.281215  0  4.289675  0
C  C41  1  0.40748268  0.48818153  0.31367966  1  0  0.317751  0  3.999606  0  0  0.297225  0  4.302132  0  0  0.320041  0  4.317415  0  0  0.146414  0.281132  0  4.291694  0
C  C42  1  0.15883973  0.23419827  0.44403803  1  0  0.319521  0  3.987913  0  0  0.29864  0  4.28888  0  0  0.321212  0  4.303338  0  0  0.148556  0.283605  0  4.278574  0
C  C43  1  0.79014558  0.71457456  0.55602869  1  0  0.321432  0  3.985626  0  0  0.300721  0  4.286228  0  0  0.323289  0  4.300675  0  0  0.148667  0.285684  0  4.275939  0
C  C44  1  0.96455556  0.54014810  0.05601529  1  0  0.321737  0  3.985379  0  0  0.30103  0  4.285969  0  0  0.323602  0  4.300403  0  0  0.148918  0.285994  0  4.275684  0
C  C45  1  0.48419871  0.90884102  0.94403683  1  0  0.319532  0  3.988007  0  0  0.298648  0  4.288978  0  0  0.321217  0  4.303442  0  0  0.14854  0.283609  0  4.278673  0
C  C46  1  0.70932711  0.31359281  0.20783045  1  0  0.315958  0  4.014897  0  0  0.297357  0  4.313662  0  0  0.3197  0  4.327828  0  0  0.151234  0.281846  0  4.304052  0
C  C47  1  0.10549324  0.50198186  0.79211575  1  0  0.315714  0  4.016253  0  0  0.297141  0  4.314906  0  0  0.319492  0  4.329066  0  0  0.15119  0.28163  0  4.305309  0
C  C48  1  0.75198169  0.85548558  0.29211508  1  0  0.315764  0  4.016013  0  0  0.297199  0  4.314657  0  0  0.319553  0  4.328814  0  0  0.151236  0.28169  0  4.30505  0
C  C49  1  0.56359089  0.45932627  0.70782815  1  0  0.316042  0  4.014934  0  0  0.297447  0  4.313676  0  0  0.319794  0  4.327835  0  0  0.151308  0.281939  0  4.304074  0
S  S50  1  0.60131346  0.08731245  0.80233785  1  0  -0.319369  0  2.201216  0  0  -0.284917  0  2.536486  0  0  -0.306113  0  2.533105  0  0  -0.131035  -0.268673  0  2.538616  0
S  S51  1  0.28519704  0.79924758  0.19814921  1  0  -0.319399  0  2.20149  0  0  -0.28487  0  2.536847  0  0  -0.306112  0  2.533538  0  0  -0.130831  -0.268641  0  2.538985  0
S  S52  1  0.04924523  0.03520014  0.69815197  1  0  -0.319436  0  2.201454  0  0  -0.284902  0  2.536816  0  0  -0.30616  0  2.533518  0  0  -0.130839  -0.268673  0  2.538948  0
S  S53  1  0.33731282  0.35132402  0.30233380  1  0  -0.319419  0  2.201367  0  0  -0.284978  0  2.536655  0  0  -0.30618  0  2.533268  0  0  -0.131091  -0.268748  0  2.538783  0
S  S54  1  0.22068430  0.10716764  0.37962791  1  0  -0.336165  0  2.216533  0  0  -0.304052  0  2.559326  0  0  -0.322613  0  2.553334  0  0  -0.14981  -0.292125  0  2.563591  0
S  S55  1  0.72761425  0.84091489  0.62048860  1  0  -0.336943  0  2.214522  0  0  -0.304931  0  2.557166  0  0  -0.323437  0  2.551051  0  0  -0.149946  -0.293066  0  2.561533  0
S  S56  1  0.09090788  0.47762150  0.12048468  1  0  -0.337058  0  2.214241  0  0  -0.305044  0  2.556859  0  0  -0.323548  0  2.550734  0  0  -0.149997  -0.293169  0  2.561224  0
S  S57  1  0.35716905  0.97068143  0.87962470  1  0  -0.336161  0  2.216594  0  0  -0.304044  0  2.5594  0  0  -0.322606  0  2.553407  0  0  -0.149812  -0.292125  0  2.563659  0
S  S58  1  0.85577845  0.37658397  0.23069423  1  0  -0.324985  0  2.151034  0  0  -0.292967  0  2.468874  0  0  -0.311908  0  2.464741  0  0  -0.134589  -0.279252  0  2.471716  0
S  S59  1  0.14584937  0.62530679  0.76900941  1  0  -0.325155  0  2.150497  0  0  -0.293017  0  2.468162  0  0  -0.311984  0  2.464084  0  0  -0.134822  -0.279357  0  2.471084  0
S  S60  1  0.87531042  0.89583024  0.26900640  1  0  -0.325174  0  2.150401  0  0  -0.293054  0  2.468057  0  0  -0.312023  0  2.463979  0  0  -0.134871  -0.279396  0  2.470982  0
S  S61  1  0.62657900  0.60577862  0.73068839  1  0  -0.325037  0  2.150912  0  0  -0.293037  0  2.468784  0  0  -0.311979  0  2.464636  0  0  -0.13463  -0.279324  0  2.471627  0
N  N62  1  0.64773003  0.14730219  0.50006368  1  0  0.284859  0  3.749399  0  0  0.350354  0  3.983516  0  0  0.35364  0  4.006696  0  0  -0.091484  0.347678  0  3.968037  0
N  N63  1  0.39729994  0.39772800  0.00006411  1  0  0.284735  0  3.749419  0  0  0.35024  0  3.983542  0  0  0.353523  0  4.006728  0  0  -0.091524  0.347561  0  3.96806  0
N  N64  1  0.82398133  0.32370862  0.50004157  1  0  -0.280564  0  3.20253  0  0  -0.212827  0  3.462834  0  0  -0.227431  0  3.479232  0  0  -0.310395  -0.203127  0  3.45126  0
N  N65  1  0.57370768  0.57397917  0.00004243  1  0  -0.280536  0  3.202512  0  0  -0.212802  0  3.462813  0  0  -0.227408  0  3.479213  0  0  -0.310406  -0.203102  0  3.451238  0
N  N66  1  0.30597807  0.80598297  0.49997737  1  0  0.321721  0  3.702719  0  0  0.367897  0  3.959786  0  0  0.372032  0  3.981208  0  0  -0.095522  0.364443  0  3.94519  0
N  N67  1  0.05598481  0.05598000  0.99997818  1  0  0.321714  0  3.703003  0  0  0.367855  0  3.960054  0  0  0.371988  0  3.981473  0  0  -0.095544  0.3644  0  3.945462  0
N  N68  1  0.13043820  0.63042844  0.49972333  1  0  -0.283968  0  3.224781  0  0  -0.218373  0  3.488319  0  0  -0.231739  0  3.503956  0  0  -0.312126  -0.21  0  3.47753  0
N  N69  1  0.88043030  0.88043829  0.99972219  1  0  -0.283899  0  3.224912  0  0  -0.21827  0  3.488486  0  0  -0.23164  0  3.504125  0  0  -0.312049  -0.2099  0  3.477698  0
N  N70  1  0.83834955  0.20703676  0.82231140  1  0  -0.550494  0  2.917017  0  0  -0.492197  0  3.19872  0  0  -0.516347  0  3.206302  0  0  -0.403668  -0.475153  0  3.19309  0
N  N71  1  0.38485377  0.01617523  0.17794447  1  0  -0.550555  0  2.915573  0  0  -0.492374  0  3.197446  0  0  -0.516503  0  3.205035  0  0  -0.403499  -0.47535  0  3.191814  0
N  N72  1  0.26617272  0.13485484  0.67794800  1  0  -0.550608  0  2.915503  0  0  -0.492431  0  3.197404  0  0  -0.516559  0  3.204975  0  0  -0.403554  -0.475407  0  3.191762  0
N  N73  1  0.45703838  0.58835633  0.32230141  1  0  -0.550555  0  2.916896  0  0  -0.492265  0  3.198631  0  0  -0.516424  0  3.206213  0  0  -0.40365  -0.475216  0  3.19299  0
N  N74  1  0.11202295  0.32509531  0.48834987  1  0  -0.540397  0  2.911267  0  0  -0.479233  0  3.185837  0  0  -0.502565  0  3.193587  0  0  -0.393077  -0.463243  0  3.179116  0
N  N75  1  0.83655471  0.62336238  0.51155237  1  0  -0.541608  0  2.910954  0  0  -0.480545  0  3.185469  0  0  -0.503894  0  3.193208  0  0  -0.393064  -0.464544  0  3.17876  0
N  N76  1  0.87334441  0.58654658  0.01153752  1  0  -0.541824  0  2.911147  0  0  -0.480769  0  3.18567  0  0  -0.504116  0  3.193393  0  0  -0.393244  -0.464771  0  3.178968  0
N  N77  1  0.57509801  0.86202696  0.98835310  1  0  -0.540394  0  2.911273  0  0  -0.479222  0  3.185831  0  0  -0.502555  0  3.193587  0  0  -0.393057  -0.463234  0  3.179113  0
N  N78  1  0.60236312  0.26873232  0.19121660  1  0  -0.554501  0  2.944435  0  0  -0.495765  0  3.226927  0  0  -0.518708  0  3.233216  0  0  -0.406386  -0.47955  0  3.222038  0
N  N79  1  0.07711367  0.41180087  0.80888265  1  0  -0.554202  0  2.945186  0  0  -0.495411  0  3.227357  0  0  -0.518361  0  3.233654  0  0  -0.406198  -0.479159  0  3.22241  0
N  N80  1  0.66180018  0.82710854  0.30888528  1  0  -0.554251  0  2.945044  0  0  -0.495463  0  3.227221  0  0  -0.518409  0  3.233506  0  0  -0.406202  -0.479208  0  3.222263  0
N  N81  1  0.51873388  0.35236866  0.69121768  1  0  -0.554559  0  2.944602  0  0  -0.49583  0  3.227076  0  0  -0.518771  0  3.233358  0  0  -0.406426  -0.479615  0  3.222188  0
O  O82  1  0.56425447  0.06381805  0.49998237  1  0  -0.509701  0  1.911663  0  0  -0.456977  0  2.163586  0  0  -0.483581  0  2.162448  0  0  -0.218001  -0.438092  0  2.164107  0
O  O83  1  0.31381523  0.31424997  0.99997957  1  0  -0.5096  0  1.911668  0  0  -0.456876  0  2.163571  0  0  -0.483474  0  2.162437  0  0  -0.217946  -0.437986  0  2.164082  0
O  O84  1  0.38926716  0.88922642  0.50014473  1  0  -0.546664  0  2.003635  0  0  -0.483866  0  2.2685  0  0  -0.510419  0  2.266001  0  0  -0.223458  -0.464995  0  2.269683  0
O  O85  1  0.13922858  0.13926496  0.00014316  1  0  -0.546637  0  2.003711  0  0  -0.483889  0  2.26867  0  0  -0.510434  0  2.266167  0  0  -0.223491  -0.465  0  2.269819  0
