# generated using pymatgen
data_AlH12C24(O2F)3
_symmetry_space_group_name_H-M   'P 1'
_cell_length_a   3.95734747
_cell_length_b   28.56517047
_cell_length_c   28.56679425
_cell_angle_alpha   119.99539771
_cell_angle_beta   90.01154860
_cell_angle_gamma   89.96549280
_symmetry_Int_Tables_number   1
_chemical_formula_structural   AlH12C24(O2F)3
_chemical_formula_sum   'Al2 H24 C48 O12 F6'
_cell_volume   2796.74712433
_cell_formula_units_Z   2
loop_
 _symmetry_equiv_pos_site_id
 _symmetry_equiv_pos_as_xyz
  1  'x, y, z'
loop_
 _atom_site_type_symbol
 _atom_site_label
 _atom_site_symmetry_multiplicity
 _atom_site_fract_x
 _atom_site_fract_y
 _atom_site_fract_z
 _atom_site_occupancy
 _atom_site_pbe_bader_charge
 _atom_site_pbe_bader_spin_density
 _atom_site_pbe_cm5_charge
 _atom_site_pbe_ddec_charge
 _atom_site_pbe_ddec_spin_density
 _atom_site_pbe_ddec_sum_bond_order
 _atom_site_pbe_magmom
Al  Al0  1  0.00899041  0.50000453  0.49998903  1  2.50488  0  0.425734  1.591801  0  2.579725  0
Al  Al1  1  0.00903827  0.16667019  0.83334752  1  2.504415  0  0.425715  1.591832  0  2.579589  0
H  H2  1  0.29155173  0.18518728  0.69990377  1  0.098771  0  0.115196  0.12224  0  0.973846  0
H  H3  1  0.28747848  0.23740047  0.65189336  1  0.032232  0  0.100953  0.102554  0  1.005073  0
H  H4  1  0.68149510  0.37574306  0.79609356  1  0.063417  0  0.108787  0.130991  0  0.985604  0
H  H5  1  0.68163928  0.29088697  0.53724473  1  0.068526  0  0.108953  0.131127  0  0.9855  0
H  H6  1  0.28795379  0.42932984  0.68145933  1  0.032969  0  0.100924  0.102435  0  1.005141  0
H  H7  1  0.29213105  0.48152942  0.63345216  1  0.097148  0  0.115176  0.122365  0  0.973865  0
H  H8  1  0.50936559  0.38666461  0.72094396  1  0.058206  0  0.100576  0.097487  0  0.999964  0
H  H9  1  0.50922225  0.28000356  0.61239341  1  0.058116  0  0.10054  0.097258  0  1.0002  0
H  H10  1  0.29223614  0.01471573  0.81481605  1  0.094562  0  0.114995  0.122266  0  0.974403  0
H  H11  1  0.28839493  0.91453599  0.76263782  1  0.03367  0  0.100937  0.102508  0  1.005095  0
H  H12  1  0.68253327  0.92036109  0.62424581  1  0.110536  0  0.10891  0.130955  0  0.985495  0
H  H13  1  0.68182777  0.74625307  0.70905637  1  0.111892  0  0.108967  0.131154  0  0.985533  0
H  H14  1  0.28805924  0.75222624  0.57071080  1  0.029672  0  0.100794  0.10247  0  1.005472  0
H  H15  1  0.29151727  0.65203954  0.51850205  1  0.09151  0  0.115207  0.122331  0  0.973923  0
H  H16  1  0.51030186  0.83430580  0.61332985  1  0.055485  0  0.100649  0.097402  0  1.000232  0
H  H17  1  0.51008368  0.83236717  0.71998080  1  0.056342  0  0.100638  0.097578  0  1.00008  0
H  H18  1  0.29176386  0.30015852  0.98531694  1  0.090924  0  0.115142  0.122471  0  0.973867  0
H  H19  1  0.28795130  0.34812871  0.08551000  1  0.074442  0  0.100856  0.10243  0  1.005184  0
H  H20  1  0.68184594  0.20384871  0.07964982  1  0.064819  0  0.108904  0.131072  0  0.985369  0
H  H21  1  0.68168718  0.46275477  0.25366355  1  0.06638  0  0.108915  0.131165  0  0.985373  0
H  H22  1  0.28813249  0.31854848  0.24784780  1  0.075151  0  0.100829  0.102343  0  1.005094  0
H  H23  1  0.29200237  0.36653388  0.34805066  1  0.0922  0  0.115128  0.122415  0  0.973948  0
H  H24  1  0.50982549  0.27903918  0.16574103  1  0.058157  0  0.100648  0.097563  0  1.000133  0
H  H25  1  0.50967665  0.38758786  0.16760415  1  0.060305  0  0.100552  0.097523  0  1.000245  0
C  C26  1  0.50869358  0.46571784  0.41723245  1  1.560849  0  0.27645  0.671481  0  4.061352  0
C  C27  1  0.50894706  0.45151187  0.53425344  1  1.585264  0  0.276918  0.672213  0  4.060846  0
C  C28  1  0.50841564  0.58276118  0.54846322  1  1.593298  0  0.276437  0.671224  0  4.06164  0
C  C29  1  0.50847079  0.21516289  0.79908442  1  1.585551  0  0.276663  0.671632  0  4.061414  0
C  C30  1  0.50907040  0.08391820  0.78484974  1  1.59129  0  0.276796  0.671779  0  4.061696  0
C  C31  1  0.50869903  0.20094181  0.91610161  1  1.562983  0  0.276813  0.67198  0  4.060467  0
C  C32  1  0.50340321  0.24907945  0.77312413  1  0.040971  0  -0.016045  -0.151173  0  3.951695  0
C  C33  1  0.38385245  0.22667573  0.71977638  1  -0.058663  0  -0.075362  -0.061263  0  3.986469  0
C  C34  1  0.38370648  0.25597896  0.69310542  1  -0.000284  0  -0.095042  -0.154308  0  3.986431  0
C  C35  1  0.49351837  0.31022743  0.71960343  1  0.115651  0  -0.00606  0.141043  0  4.056456  0
C  C36  1  0.60121631  0.33360846  0.77359982  1  -0.039995  0  -0.100698  -0.269976  0  3.972518  0
C  C37  1  0.61148924  0.30295929  0.79888294  1  0.460599  0  0.1087  0.292042  0  4.044652  0
C  C38  1  0.49563745  0.34294621  0.69361438  1  -0.024955  0  -0.087113  -0.124798  0  3.985233  0
C  C39  1  0.49565938  0.32372431  0.63972806  1  -0.121663  0  -0.086899  -0.123977  0  3.984997  0
C  C40  1  0.60153282  0.33304020  0.55974323  1  -0.046944  0  -0.100957  -0.270121  0  3.971926  0
C  C41  1  0.49380104  0.35644866  0.61374282  1  0.101564  0  -0.006424  0.140422  0  4.056696  0
C  C42  1  0.38414010  0.41072194  0.64024130  1  0.015052  0  -0.094839  -0.154126  0  3.986589  0
C  C43  1  0.38432516  0.44001832  0.61356107  1  -0.055211  0  -0.075458  -0.061538  0  3.987261  0
C  C44  1  0.50390181  0.41759004  0.56021337  1  0.035582  0  -0.015864  -0.151091  0  3.951591  0
C  C45  1  0.61199094  0.36369376  0.53445994  1  0.464859  0  0.108681  0.292244  0  4.044258  0
C  C46  1  0.50415656  0.02404492  0.75091499  1  0.027636  0  -0.015634  -0.150725  0  3.951146  0
C  C47  1  0.38457360  0.99311308  0.77332284  1  -0.067518  0  -0.075407  -0.061577  0  3.987261  0
C  C48  1  0.38450527  0.93713967  0.74402207  1  0.024034  0  -0.094852  -0.154271  0  3.986485  0
C  C49  1  0.49428289  0.90938374  0.68976569  1  0.163517  0  -0.006684  0.140238  0  4.056936  0
C  C50  1  0.60204306  0.93999115  0.66637013  1  -0.011205  0  -0.100204  -0.269064  0  3.970965  0
C  C51  1  0.61233434  0.99592830  0.69703554  1  0.396828  0  0.108534  0.292037  0  4.043378  0
C  C52  1  0.49648617  0.85067964  0.65704575  1  -0.076706  0  -0.087054  -0.1244  0  3.984486  0
C  C53  1  0.49638851  0.81599795  0.67626494  1  -0.189836  0  -0.087162  -0.124867  0  3.985134  0
C  C54  1  0.60147531  0.72665528  0.66693022  1  -0.006669  0  -0.100814  -0.269935  0  3.971493  0
C  C55  1  0.49403064  0.75729845  0.64354420  1  0.161425  0  -0.006319  0.14075  0  4.056697  0
C  C56  1  0.38408525  0.72957826  0.58929840  1  0.025031  0  -0.094714  -0.154072  0  3.986192  0
C  C57  1  0.38393858  0.67360461  0.55998808  1  -0.063334  0  -0.075223  -0.06118  0  3.986358  0
C  C58  1  0.50338846  0.64263408  0.58238432  1  0.02562  0  -0.016369  -0.151738  0  3.952223  0
C  C59  1  0.61148550  0.67071876  0.63626491  1  0.397633  0  0.108863  0.292399  0  4.044211  0
C  C60  1  0.50368303  0.22689085  0.97597593  1  0.066301  0  -0.016272  -0.151305  0  3.95146  0
C  C61  1  0.38409966  0.28025121  0.00691478  1  0.066834  0  -0.075353  -0.061774  0  3.986685  0
C  C62  1  0.38408658  0.30690073  0.06288687  1  -0.157227  0  -0.095001  -0.154117  0  3.986231  0
C  C63  1  0.49391981  0.28038568  0.09064066  1  0.064068  0  -0.006212  0.140429  0  4.057024  0
C  C64  1  0.60154938  0.22636913  0.06002379  1  -0.001828  0  -0.100699  -0.269538  0  3.972116  0
C  C65  1  0.61178100  0.20111112  0.00409293  1  0.471983  0  0.108576  0.291859  0  4.044929  0
C  C66  1  0.49613719  0.30636137  0.14934064  1  -0.03379  0  -0.086907  -0.124372  0  3.983902  0
C  C67  1  0.49609162  0.36026750  0.18400384  1  -0.127084  0  -0.086923  -0.124459  0  3.984406  0
C  C68  1  0.60146961  0.44025303  0.27329922  1  -0.002594  0  -0.100734  -0.269888  0  3.971574  0
C  C69  1  0.49393737  0.38625086  0.24270205  1  0.062701  0  -0.006401  0.140535  0  4.056818  0
C  C70  1  0.38423714  0.35975851  0.27046753  1  -0.157438  0  -0.094849  -0.154226  0  3.986194  0
C  C71  1  0.38423919  0.38641970  0.32643916  1  0.065641  0  -0.075197  -0.061377  0  3.986794  0
C  C72  1  0.50368267  0.43976391  0.35736018  1  0.065983  0  -0.016143  -0.151078  0  3.951945  0
C  C73  1  0.61166075  0.46552205  0.32923451  1  0.472898  0  0.108772  0.29219  0  4.044775  0
O  O74  1  0.74596359  0.55692758  0.55570856  1  -1.241128  0  -0.234364  -0.592153  0  2.374106  0
O  O75  1  0.74608792  0.49878383  0.44304443  1  -1.242179  0  -0.234316  -0.592353  0  2.374243  0
O  O76  1  0.74649219  0.44426368  0.50120104  1  -1.243421  0  -0.234614  -0.592655  0  2.373847  0
O  O77  1  0.27505987  0.56133355  0.51307328  1  -1.249974  0  -0.235834  -0.593553  0  2.358986  0
O  O78  1  0.27556697  0.48692885  0.54821077  1  -1.246144  0  -0.236182  -0.594194  0  2.359365  0
O  O79  1  0.27548069  0.45176327  0.43868440  1  -1.247395  0  -0.235893  -0.593927  0  2.359454  0
O  O80  1  0.74627690  0.16787313  0.89028066  1  -1.243572  0  -0.234472  -0.592519  0  2.374085  0
O  O81  1  0.74590801  0.22240511  0.83215490  1  -1.241454  0  -0.234457  -0.592331  0  2.37477  0
O  O82  1  0.74645174  0.10974023  0.77760638  1  -1.242068  0  -0.234686  -0.592659  0  2.373984  0
O  O83  1  0.27526346  0.21490297  0.89466117  1  -1.247168  0  -0.236101  -0.594043  0  2.359017  0
O  O84  1  0.27575244  0.10535577  0.82026183  1  -1.247078  0  -0.236041  -0.593926  0  2.359391  0
O  O85  1  0.27523775  0.17976244  0.78512308  1  -1.248211  0  -0.236081  -0.594142  0  2.359082  0
F  F86  1  0.71971816  0.32763098  0.85096874  1  -0.628224  0  -0.10198  -0.140862  0  1.325514  0
F  F87  1  0.72032633  0.33900040  0.48237632  1  -0.628424  0  -0.101867  -0.140829  0  1.326061  0
F  F88  1  0.72064737  0.02333852  0.67236360  1  -0.63184  0  -0.102129  -0.141042  0  1.3257  0
F  F89  1  0.71951335  0.64327527  0.66093394  1  -0.632426  0  -0.102061  -0.141035  0  1.325553  0
F  F90  1  0.72002178  0.14901427  0.97668236  1  -0.626175  0  -0.101756  -0.140651  0  1.326157  0
F  F91  1  0.71974222  0.51760602  0.35663461  1  -0.626549  0  -0.102107  -0.141025  0  1.326052  0
