# generated using pymatgen
data_GdH18C14ClO6
_symmetry_space_group_name_H-M   'P 1'
_cell_length_a   8.58628127
_cell_length_b   9.88252322
_cell_length_c   10.29234240
_cell_angle_alpha   103.85871342
_cell_angle_beta   109.13708985
_cell_angle_gamma   96.68540955
_symmetry_Int_Tables_number   1
_chemical_formula_structural   GdH18C14ClO6
_chemical_formula_sum   'Gd2 H36 C28 Cl2 O12'
_cell_volume   782.76390110
_cell_formula_units_Z   2
loop_
 _symmetry_equiv_pos_site_id
 _symmetry_equiv_pos_as_xyz
  1  'x, y, z'
loop_
 _atom_site_type_symbol
 _atom_site_label
 _atom_site_symmetry_multiplicity
 _atom_site_fract_x
 _atom_site_fract_y
 _atom_site_fract_z
 _atom_site_occupancy
 _atom_site_hle17_bader_spin_density
 _atom_site_hle17_ddec_charge
 _atom_site_hle17_ddec_spin_density
 _atom_site_hle17_ddec_sum_bond_order
 _atom_site_hle17_magmom
 _atom_site_hse06_10hf_bader_spin_density
 _atom_site_hse06_10hf_ddec_charge
 _atom_site_hse06_10hf_ddec_spin_density
 _atom_site_hse06_10hf_ddec_sum_bond_order
 _atom_site_hse06_10hf_magmom
 _atom_site_hse06_bader_spin_density
 _atom_site_hse06_ddec_charge
 _atom_site_hse06_ddec_spin_density
 _atom_site_hse06_ddec_sum_bond_order
 _atom_site_hse06_magmom
 _atom_site_pbe_bader_spin_density
 _atom_site_pbe_cm5_charge
 _atom_site_pbe_ddec_charge
 _atom_site_pbe_ddec_spin_density
 _atom_site_pbe_ddec_sum_bond_order
 _atom_site_pbe_magmom
Gd  Gd0  1  0.56994602  0.12156506  0.23066120  1  0  2.015592  0  1.863382  0  0  1.899689  0  2.2554  0  0  1.960185  0  2.192845  0  0  1.309371  1.851136  0  2.307926  0
Gd  Gd1  1  0.43005418  0.87843468  0.76933843  1  0  2.015613  0  1.863328  0  0  1.899721  0  2.255342  0  0  1.960214  0  2.192798  0  0  1.309393  1.851166  0  2.307869  0
H  H2  1  0.31804998  0.82325082  0.33199953  1  0  0.07548  0  0.923611  0  0  0.088541  0  0.983731  0  0  0.089588  0  0.982929  0  0  0.104587  0.087785  0  0.984456  0
H  H3  1  0.68194995  0.17674785  0.66800075  1  0  0.075474  0  0.92362  0  0  0.088533  0  0.98375  0  0  0.08958  0  0.982949  0  0  0.104588  0.087778  0  0.984475  0
H  H4  1  0.44571088  0.78655127  0.22608499  1  0  0.064368  0  0.959087  0  0  0.074482  0  1.029837  0  0  0.074902  0  1.029485  0  0  0.102696  0.074192  0  1.030149  0
H  H5  1  0.55428906  0.21344741  0.77391432  1  0  0.06434  0  0.959069  0  0  0.074456  0  1.029836  0  0  0.074877  0  1.029482  0  0  0.102682  0.074164  0  1.030149  0
H  H6  1  0.15745278  0.96414313  0.00515895  1  0  0.059007  0  0.955283  0  0  0.070226  0  1.023669  0  0  0.070945  0  1.023213  0  0  0.099759  0.069652  0  1.024052  0
H  H7  1  0.84254494  0.03585660  0.99484194  1  0  0.059019  0  0.955232  0  0  0.070222  0  1.023645  0  0  0.070954  0  1.023176  0  0  0.099754  0.069641  0  1.024035  0
H  H8  1  0.11362197  0.04569790  0.16084963  1  0  0.066054  0  0.937671  0  0  0.077848  0  1.005114  0  0  0.078631  0  1.004181  0  0  0.104494  0.077447  0  1.005449  0
H  H9  1  0.88637822  0.95430183  0.83915194  1  0  0.066077  0  0.937657  0  0  0.077871  0  1.005114  0  0  0.078655  0  1.004185  0  0  0.104519  0.077469  0  1.005449  0
H  H10  1  0.19495493  0.13589028  0.40980639  1  0  0.152979  0  0.931698  0  0  0.163273  0  0.988456  0  0  0.168956  0  0.98635  0  0  0.112774  0.159095  0  0.990355  0
H  H11  1  0.80505005  0.86411375  0.59019265  1  0  0.152858  0  0.931673  0  0  0.163186  0  0.988405  0  0  0.168868  0  0.986301  0  0  0.112738  0.159006  0  0.990307  0
H  H12  1  0.95717608  0.37003042  0.28183965  1  0  0.066002  0  0.935141  0  0  0.079058  0  0.99877  0  0  0.080433  0  0.996669  0  0  0.104033  0.077917  0  1.000406  0
H  H13  1  0.04282113  0.62996718  0.71815866  1  0  0.066058  0  0.93512  0  0  0.079112  0  0.998738  0  0  0.080488  0  0.996637  0  0  0.104064  0.077969  0  1.000376  0
H  H14  1  0.87707618  0.43400948  0.41866400  1  0  0.055882  0  0.955114  0  0  0.068663  0  1.021895  0  0  0.068867  0  1.02241  0  0  0.102036  0.068486  0  1.021554  0
H  H15  1  0.12292129  0.56598919  0.58133366  1  0  0.05586  0  0.955161  0  0  0.06868  0  1.021886  0  0  0.068886  0  1.022401  0  0  0.102014  0.068502  0  1.021546  0
H  H16  1  0.96765124  0.66054948  0.38545320  1  0  0.090982  0  0.946401  0  0  0.107394  0  1.007656  0  0  0.10797  0  1.008695  0  0  0.098547  0.106736  0  1.007313  0
H  H17  1  0.03234747  0.33944920  0.61454479  1  0  0.090948  0  0.946379  0  0  0.107361  0  1.007647  0  0  0.107939  0  1.008682  0  0  0.098543  0.106701  0  1.007306  0
H  H18  1  0.93022685  0.58028650  0.20128884  1  0  0.066515  0  0.956758  0  0  0.085928  0  1.01581  0  0  0.086355  0  1.016718  0  0  0.090502  0.085487  0  1.015281  0
H  H19  1  0.06977159  0.41971112  0.79870883  1  0  0.06643  0  0.956811  0  0  0.085859  0  1.015861  0  0  0.086285  0  1.01677  0  0  0.090499  0.085418  0  1.01533  0
H  H20  1  0.67750963  0.67713097  0.18370542  1  0  0.094792  0  0.956734  0  0  0.112201  0  1.01691  0  0  0.113378  0  1.01699  0  0  0.090896  0.111381  0  1.016857  0
H  H21  1  0.32248934  0.32286877  0.81629387  1  0  0.094797  0  0.95676  0  0  0.112199  0  1.016943  0  0  0.113377  0  1.017022  0  0  0.090891  0.111377  0  1.016891  0
H  H22  1  0.66137268  0.62588321  0.33412246  1  0  0.073672  0  0.940156  0  0  0.090755  0  1.002409  0  0  0.090185  0  1.005402  0  0  0.089535  0.091  0  1.000707  0
H  H23  1  0.33862726  0.37411546  0.66587685  1  0  0.073624  0  0.940213  0  0  0.090738  0  1.002416  0  0  0.09017  0  1.005409  0  0  0.089522  0.090984  0  1.000715  0
H  H24  1  0.19862287  0.68262297  0.00530617  1  0  0.078623  0  0.955047  0  0  0.095988  0  1.015847  0  0  0.0968  0  1.016637  0  0  0.094962  0.095389  0  1.01537  0
H  H25  1  0.80137610  0.31737677  0.99469312  1  0  0.078636  0  0.95506  0  0  0.095983  0  1.015876  0  0  0.096793  0  1.016669  0  0  0.094972  0.095383  0  1.015399  0
H  H26  1  0.13104232  0.61802431  0.12985864  1  0  0.069238  0  0.958705  0  0  0.088729  0  1.019549  0  0  0.089546  0  1.019498  0  0  0.091492  0.088314  0  1.01918  0
H  H27  1  0.86895788  0.38197543  0.87014099  1  0  0.069244  0  0.958706  0  0  0.088725  0  1.019553  0  0  0.089543  0  1.019499  0  0  0.091489  0.088309  0  1.019184  0
H  H28  1  0.98992540  0.81998544  0.17198047  1  0  0.077773  0  0.940587  0  0  0.095104  0  1.001032  0  0  0.095051  0  1.003314  0  0  0.08997  0.094922  0  0.999753  0
H  H29  1  0.01007453  0.18001322  0.82802078  1  0  0.077765  0  0.940548  0  0  0.095062  0  1.001037  0  0  0.095009  0  1.003319  0  0  0.089957  0.09488  0  0.999758  0
H  H30  1  0.93747811  0.77362742  0.98300236  1  0  0.091148  0  0.934096  0  0  0.109254  0  0.991321  0  0  0.110608  0  0.990716  0  0  0.097024  0.108265  0  0.991721  0
H  H31  1  0.06252084  0.22637230  0.01699984  1  0  0.091111  0  0.934076  0  0  0.109213  0  0.991307  0  0  0.110567  0  0.990701  0  0  0.097  0.108224  0  0.991708  0
H  H32  1  0.47365378  0.41923338  0.13548780  1  0  0.066509  0  0.943882  0  0  0.080712  0  1.006025  0  0  0.081116  0  1.005802  0  0  0.104612  0.080335  0  1.006281  0
H  H33  1  0.52634519  0.58076636  0.86451149  1  0  0.066512  0  0.943833  0  0  0.080739  0  1.005965  0  0  0.081144  0  1.005738  0  0  0.104615  0.080361  0  1.006221  0
H  H34  1  0.60763450  0.42804092  0.03570029  1  0  0.049821  0  0.938316  0  0  0.06555  0  1.003012  0  0  0.065931  0  1.002711  0  0  0.097152  0.065088  0  1.003366  0
H  H35  1  0.39236297  0.57195775  0.96429833  1  0  0.049829  0  0.9383  0  0  0.065552  0  1.003013  0  0  0.065933  0  1.002712  0  0  0.097153  0.065091  0  1.003365  0
H  H36  1  0.21923884  0.48342731  0.30142799  1  0  0.138582  0  0.951373  0  0  0.150604  0  1.008864  0  0  0.156265  0  1.006718  0  0  0.107391  0.146661  0  1.010249  0
H  H37  1  0.78076109  0.51657136  0.69857229  1  0  0.138593  0  0.951363  0  0  0.15061  0  1.008864  0  0  0.156272  0  1.006719  0  0  0.107399  0.146667  0  1.010249  0
C  C38  1  0.93788913  0.07348377  0.39551601  1  0  0.347721  0  3.828423  0  0  0.334065  0  4.094015  0  0  0.356505  0  4.100316  0  0  0.119331  0.318832  0  4.08911  0
C  C39  1  0.06211436  0.92651919  0.60448237  1  0  0.347737  0  3.828468  0  0  0.334032  0  4.094152  0  0  0.356472  0  4.100451  0  0  0.119317  0.318802  0  4.089243  0
C  C40  1  0.82177229  0.99070266  0.44891299  1  0  0.360164  0  3.806582  0  0  0.346297  0  4.070579  0  0  0.369137  0  4.076239  0  0  0.125052  0.330738  0  4.065911  0
C  C41  1  0.17823021  0.00930135  0.55108828  1  0  0.360201  0  3.806463  0  0  0.346315  0  4.070517  0  0  0.369154  0  4.076176  0  0  0.1251  0.330757  0  4.065851  0
C  C42  1  0.59458969  0.38990994  0.49182153  1  0  0.34875  0  3.831527  0  0  0.336175  0  4.09573  0  0  0.358584  0  4.101489  0  0  0.120516  0.320055  0  4.092272  0
C  C43  1  0.40540928  0.61008979  0.50817873  1  0  0.348728  0  3.831564  0  0  0.336131  0  4.09579  0  0  0.35854  0  4.10155  0  0  0.120495  0.320012  0  4.092334  0
C  C44  1  0.42543161  0.37969653  0.37343978  1  0  0.348239  0  3.837174  0  0  0.334104  0  4.104266  0  0  0.356534  0  4.109685  0  0  0.11819  0.318774  0  4.100455  0
C  C45  1  0.57457133  0.62030429  0.62655988  1  0  0.348266  0  3.8372  0  0  0.33415  0  4.104266  0  0  0.35658  0  4.109687  0  0  0.118205  0.318818  0  4.100456  0
C  C46  1  0.32551079  0.81339039  0.22560518  1  0  0.100225  0  3.558357  0  0  0.045082  0  3.82696  0  0  0.05299  0  3.83175  0  0  -0.0697  0.039681  0  3.823461  0
C  C47  1  0.67448914  0.18660828  0.77439510  1  0  0.100277  0  3.558387  0  0  0.045116  0  3.827004  0  0  0.053023  0  3.831795  0  0  -0.06967  0.039713  0  3.823504  0
C  C48  1  0.15135808  0.95270840  0.10699201  1  0  0.09332  0  3.556138  0  0  0.036589  0  3.8259  0  0  0.043932  0  3.832218  0  0  -0.06774  0.031615  0  3.820943  0
C  C49  1  0.84864212  0.04729133  0.89300956  1  0  0.093302  0  3.556072  0  0  0.036567  0  3.825857  0  0  0.043894  0  3.832185  0  0  -0.067746  0.031599  0  3.820901  0
C  C50  1  0.11124353  0.07802358  0.44759936  1  0  -0.366052  0  3.711283  0  0  -0.394392  0  3.973853  0  0  -0.416167  0  3.991967  0  0  -0.135147  -0.379067  0  3.961204  0
C  C51  1  0.88876242  0.92197938  0.55240067  1  0  -0.365913  0  3.711233  0  0  -0.39427  0  3.973799  0  0  -0.416044  0  3.991914  0  0  -0.135094  -0.378943  0  3.961145  0
C  C52  1  0.86742683  0.43071557  0.30893421  1  0  0.094135  0  3.566165  0  0  0.03562  0  3.839403  0  0  0.043642  0  3.844052  0  0  -0.072523  0.030412  0  3.835786  0
C  C53  1  0.13257065  0.56928311  0.69106345  1  0  0.094072  0  3.566134  0  0  0.035564  0  3.839333  0  0  0.043581  0  3.843989  0  0  -0.0725  0.030356  0  3.835714  0
C  C54  1  0.88217054  0.57807674  0.28756126  1  0  -0.144739  0  3.680146  0  0  -0.185237  0  3.9405  0  0  -0.187363  0  3.953881  0  0  -0.169229  -0.183517  0  3.931371  0
C  C55  1  0.11782694  0.42192194  0.71243640  1  0  -0.144585  0  3.680083  0  0  -0.185121  0  3.940458  0  0  -0.187243  0  3.953842  0  0  -0.169236  -0.183394  0  3.931321  0
C  C56  1  0.69932466  0.59633958  0.24071461  1  0  -0.152915  0  3.683888  0  0  -0.1929  0  3.941857  0  0  -0.195205  0  3.955915  0  0  -0.172327  -0.191342  0  3.932305  0
C  C57  1  0.30067432  0.40366017  0.75928371  1  0  -0.152914  0  3.683914  0  0  -0.192886  0  3.941885  0  0  -0.195199  0  3.955954  0  0  -0.172307  -0.19133  0  3.932334  0
C  C58  1  0.17130355  0.71443828  0.10403160  1  0  -0.14571  0  3.696299  0  0  -0.187824  0  3.95713  0  0  -0.189942  0  3.970225  0  0  -0.168617  -0.186216  0  3.947798  0
C  C59  1  0.82869542  0.28556145  0.89596866  1  0  -0.145789  0  3.69643  0  0  -0.187851  0  3.957208  0  0  -0.189969  0  3.970303  0  0  -0.168647  -0.186242  0  3.947875  0
C  C60  1  0.04292021  0.81047389  0.08730142  1  0  -0.146802  0  3.674717  0  0  -0.186595  0  3.932406  0  0  -0.188582  0  3.94602  0  0  -0.169147  -0.185119  0  3.923075  0
C  C61  1  0.95707875  0.18952584  0.91269981  1  0  -0.146737  0  3.674712  0  0  -0.186501  0  3.932376  0  0  -0.188487  0  3.945997  0  0  -0.169129  -0.185025  0  3.923045  0
C  C62  1  0.60480711  0.44732955  0.14463251  1  0  0.094708  0  3.593648  0  0  0.036128  0  3.8656  0  0  0.043647  0  3.871484  0  0  -0.073039  0.031065  0  3.861505  0
C  C63  1  0.39518940  0.55267019  0.85536513  1  0  0.094756  0  3.593506  0  0  0.036137  0  3.865493  0  0  0.043657  0  3.871378  0  0  -0.073035  0.031075  0  3.861399  0
C  C64  1  0.33888379  0.49059790  0.38604981  1  0  -0.37245  0  3.726301  0  0  -0.400301  0  3.985807  0  0  -0.422105  0  4.003954  0  0  -0.141223  -0.385335  0  3.973628  0
C  C65  1  0.66111640  0.50940184  0.61395080  1  0  -0.372442  0  3.726329  0  0  -0.400299  0  3.985822  0  0  -0.422103  0  4.003969  0  0  -0.14122  -0.385332  0  3.97364  0
Cl  Cl66  1  0.60795001  0.87746635  0.04773434  1  0  -0.704024  0  0.931255  0  0  -0.680289  0  1.190647  0  0  -0.696113  0  1.169919  0  0  -0.306411  -0.666765  0  1.20633  0
Cl  Cl67  1  0.39204719  0.12253125  0.95226493  1  0  -0.704039  0  0.931287  0  0  -0.680316  0  1.190694  0  0  -0.696136  0  1.169965  0  0  -0.306424  -0.666782  0  1.206357  0
O  O68  1  0.86441195  0.13519832  0.30398582  1  0  -0.598166  0  2.073221  0  0  -0.553104  0  2.313775  0  0  -0.577496  0  2.30831  0  0  -0.36839  -0.535542  0  2.317415  0
O  O69  1  0.13559100  0.86480251  0.69601191  1  0  -0.598124  0  2.073165  0  0  -0.553063  0  2.313782  0  0  -0.577454  0  2.308317  0  0  -0.368376  -0.535503  0  2.317423  0
O  O70  1  0.66538486  0.98950918  0.39248245  1  0  -0.5772  0  2.067298  0  0  -0.532594  0  2.304144  0  0  -0.555912  0  2.298064  0  0  -0.360749  -0.515623  0  2.308181  0
O  O71  1  0.33461843  0.01049802  0.60752076  1  0  -0.577207  0  2.067119  0  0  -0.532603  0  2.303997  0  0  -0.555931  0  2.297938  0  0  -0.360794  -0.515619  0  2.308007  0
O  O72  1  0.69691041  0.35100501  0.21174046  1  0  -0.425078  0  2.27906  0  0  -0.346406  0  2.529764  0  0  -0.366914  0  2.532432  0  0  -0.288403  -0.33152  0  2.527803  0
O  O73  1  0.30308830  0.64899367  0.78825754  1  0  -0.425144  0  2.278964  0  0  -0.346474  0  2.529674  0  0  -0.36698  0  2.532344  0  0  -0.288433  -0.331587  0  2.527717  0
O  O74  1  0.32335762  0.95253047  0.19914813  1  0  -0.425991  0  2.273456  0  0  -0.349361  0  2.527478  0  0  -0.369822  0  2.52857  0  0  -0.297189  -0.333711  0  2.526295  0
O  O75  1  0.67664011  0.04746926  0.80085178  1  0  -0.425963  0  2.273436  0  0  -0.349337  0  2.527477  0  0  -0.369794  0  2.528578  0  0  -0.297186  -0.333687  0  2.52629  0
O  O76  1  0.37487588  0.26668548  0.26676568  1  0  -0.598403  0  2.064098  0  0  -0.557557  0  2.306339  0  0  -0.580497  0  2.299864  0  0  -0.363428  -0.541381  0  2.311196  0
O  O77  1  0.62512583  0.73331533  0.73323462  1  0  -0.598417  0  2.064082  0  0  -0.557587  0  2.30634  0  0  -0.580527  0  2.299867  0  0  -0.363435  -0.541408  0  2.311196  0
O  O78  1  0.66598522  0.28549178  0.46879880  1  0  -0.582806  0  2.068653  0  0  -0.541518  0  2.305472  0  0  -0.564582  0  2.300772  0  0  -0.351674  -0.525352  0  2.309401  0
O  O79  1  0.33401648  0.71450903  0.53120150  1  0  -0.582797  0  2.068694  0  0  -0.541508  0  2.305529  0  0  -0.564569  0  2.300832  0  0  -0.351665  -0.525343  0  2.30946  0
