# generated using pymatgen
data_CuH7C7SBrN
_symmetry_space_group_name_H-M   'P 1'
_cell_length_a   5.45117389
_cell_length_b   11.64220830
_cell_length_c   17.65468582
_cell_angle_alpha   90.00253902
_cell_angle_beta   90.00183880
_cell_angle_gamma   91.19926738
_symmetry_Int_Tables_number   1
_chemical_formula_structural   CuH7C7SBrN
_chemical_formula_sum   'Cu4 H28 C28 S4 Br4 N4'
_cell_volume   1120.18628748
_cell_formula_units_Z   4
loop_
 _symmetry_equiv_pos_site_id
 _symmetry_equiv_pos_as_xyz
  1  'x, y, z'
loop_
 _atom_site_type_symbol
 _atom_site_label
 _atom_site_symmetry_multiplicity
 _atom_site_fract_x
 _atom_site_fract_y
 _atom_site_fract_z
 _atom_site_occupancy
 _atom_site_hle17_bader_spin_density
 _atom_site_hle17_ddec_charge
 _atom_site_hle17_ddec_spin_density
 _atom_site_hle17_ddec_sum_bond_order
 _atom_site_hle17_magmom
 _atom_site_hse06_10hf_bader_spin_density
 _atom_site_hse06_10hf_ddec_charge
 _atom_site_hse06_10hf_ddec_spin_density
 _atom_site_hse06_10hf_ddec_sum_bond_order
 _atom_site_hse06_10hf_magmom
 _atom_site_hse06_bader_spin_density
 _atom_site_hse06_ddec_charge
 _atom_site_hse06_ddec_spin_density
 _atom_site_hse06_ddec_sum_bond_order
 _atom_site_hse06_magmom
 _atom_site_pbe_bader_spin_density
 _atom_site_pbe_cm5_charge
 _atom_site_pbe_ddec_charge
 _atom_site_pbe_ddec_spin_density
 _atom_site_pbe_ddec_sum_bond_order
 _atom_site_pbe_magmom
Cu  Cu0  1  0.24997283  0.50986144  0.49473202  1  0  0.30259  0  2.213551  0  0  0.237588  0  2.708514  0  0  0.242417  0  2.658057  0  0  0.270506  0.236355  0  2.740844  0
Cu  Cu1  1  0.25004044  0.99016476  0.99472357  1  0  0.30248  0  2.213247  0  0  0.237359  0  2.708257  0  0  0.242266  0  2.657721  0  0  0.270384  0.236143  0  2.740528  0
Cu  Cu2  1  0.74998698  0.49019037  0.50527987  1  0  0.30252  0  2.213379  0  0  0.237443  0  2.708357  0  0  0.242336  0  2.657936  0  0  0.270472  0.23624  0  2.740607  0
Cu  Cu3  1  0.74997890  0.00981935  0.00527019  1  0  0.302504  0  2.213218  0  0  0.237435  0  2.708187  0  0  0.242319  0  2.65764  0  0  0.270455  0.236239  0  2.740459  0
H  H4  1  0.95652619  0.74870203  0.44832663  1  0  0.097758  0  0.973586  0  0  0.104576  0  1.041292  0  0  0.108442  0  1.03844  0  0  0.092229  0.101658  0  1.043552  0
H  H5  1  0.54350328  0.75129706  0.94832826  1  0  0.097745  0  0.973603  0  0  0.104562  0  1.041288  0  0  0.10843  0  1.038434  0  0  0.09223  0.101644  0  1.043552  0
H  H6  1  0.04344292  0.25132631  0.55167336  1  0  0.097679  0  0.973757  0  0  0.104574  0  1.041379  0  0  0.108439  0  1.038532  0  0  0.092185  0.101657  0  1.043624  0
H  H7  1  0.45649173  0.24872034  0.05166946  1  0  0.097737  0  0.973643  0  0  0.104524  0  1.041352  0  0  0.108389  0  1.038505  0  0  0.092245  0.101605  0  1.043617  0
H  H8  1  0.29285326  0.87341580  0.39807908  1  0  0.09555  0  0.937119  0  0  0.108506  0  0.98846  0  0  0.111463  0  0.988096  0  0  0.100618  0.106314  0  0.988972  0
H  H9  1  0.20714995  0.62657934  0.89809241  1  0  0.095528  0  0.936908  0  0  0.108487  0  0.988244  0  0  0.111453  0  0.987881  0  0  0.100639  0.106294  0  0.988757  0
H  H10  1  0.70712475  0.12659855  0.60191411  1  0  0.09553  0  0.937009  0  0  0.108389  0  0.988461  0  0  0.111338  0  0.988102  0  0  0.100566  0.106196  0  0.988975  0
H  H11  1  0.79287943  0.37343467  0.10190531  1  0  0.095624  0  0.936875  0  0  0.108524  0  0.988262  0  0  0.111489  0  0.987895  0  0  0.100654  0.106331  0  0.988775  0
H  H12  1  0.31936669  0.91333724  0.25872012  1  0  0.088168  0  0.962632  0  0  0.096002  0  1.028266  0  0  0.0994  0  1.026349  0  0  0.089538  0.093547  0  1.029669  0
H  H13  1  0.18060415  0.58665893  0.75872763  1  0  0.088135  0  0.962515  0  0  0.096048  0  1.028097  0  0  0.099448  0  1.026175  0  0  0.089565  0.093592  0  1.029504  0
H  H14  1  0.68061776  0.08663477  0.74126797  1  0  0.088109  0  0.962588  0  0  0.096082  0  1.028118  0  0  0.099448  0  1.026235  0  0  0.089576  0.093623  0  1.029525  0
H  H15  1  0.81939388  0.41332999  0.24127519  1  0  0.088113  0  0.962522  0  0  0.095996  0  1.028141  0  0  0.099396  0  1.026219  0  0  0.0895  0.09354  0  1.029547  0
H  H16  1  0.99808820  0.83449140  0.17249656  1  0  0.098111  0  0.960406  0  0  0.106113  0  1.024138  0  0  0.109767  0  1.022479  0  0  0.091282  0.103317  0  1.025673  0
H  H17  1  0.50186075  0.66550767  0.67250366  1  0  0.098104  0  0.960345  0  0  0.106152  0  1.024034  0  0  0.109806  0  1.022372  0  0  0.091331  0.103357  0  1.025573  0
H  H18  1  0.00193534  0.16547194  0.82749493  1  0  0.09789  0  0.960752  0  0  0.106016  0  1.02434  0  0  0.109664  0  1.022689  0  0  0.091287  0.103221  0  1.025873  0
H  H19  1  0.49816591  0.33447627  0.32750652  1  0  0.098118  0  0.960182  0  0  0.106188  0  1.023868  0  0  0.109845  0  1.022204  0  0  0.091338  0.103391  0  1.02541  0
H  H20  1  0.65250860  0.71965430  0.22247065  1  0  0.087897  0  0.959771  0  0  0.09934  0  1.020369  0  0  0.102873  0  1.017838  0  0  0.098272  0.096722  0  1.022327  0
H  H21  1  0.84748072  0.78035309  0.72245771  1  0  0.088138  0  0.959622  0  0  0.099497  0  1.020292  0  0  0.103035  0  1.017754  0  0  0.098314  0.096875  0  1.022257  0
H  H22  1  0.34749427  0.28031814  0.77752424  1  0  0.087908  0  0.959814  0  0  0.099397  0  1.020335  0  0  0.102928  0  1.017808  0  0  0.098242  0.096775  0  1.022301  0
H  H23  1  0.15256959  0.21964149  0.27753831  1  0  0.087895  0  0.959708  0  0  0.09939  0  1.020244  0  0  0.102924  0  1.017714  0  0  0.098259  0.096767  0  1.022212  0
H  H24  1  0.50027651  0.57568869  0.26807652  1  0  0.323566  0  0.873608  0  0  0.314044  0  0.9225  0  0  0.321034  0  0.917181  0  0  0.317932  0.30923  0  0.926219  0
H  H25  1  0.99975757  0.92428193  0.76806559  1  0  0.323609  0  0.87352  0  0  0.314085  0  0.922393  0  0  0.321077  0  0.91707  0  0  0.317926  0.309272  0  0.926113  0
H  H26  1  0.49971657  0.42429173  0.73194159  1  0  0.323419  0  0.873495  0  0  0.31397  0  0.922318  0  0  0.320963  0  0.916994  0  0  0.317856  0.309155  0  0.926037  0
H  H27  1  0.00022948  0.07570724  0.23192987  1  0  0.323636  0  0.873457  0  0  0.314128  0  0.922339  0  0  0.321117  0  0.917025  0  0  0.317944  0.309317  0  0.926056  0
H  H28  1  0.30739932  0.53547983  0.34342269  1  0  0.315874  0  0.934557  0  0  0.294267  0  1.010511  0  0  0.303901  0  1.001707  0  0  0.274832  0.287393  0  1.016834  0
H  H29  1  0.19262382  0.96449245  0.84341748  1  0  0.315786  0  0.934307  0  0  0.294104  0  1.010319  0  0  0.303733  0  1.001525  0  0  0.27475  0.287233  0  1.016632  0
H  H30  1  0.69257060  0.46451750  0.65659599  1  0  0.315807  0  0.934338  0  0  0.294148  0  1.010376  0  0  0.303779  0  1.001579  0  0  0.274808  0.28727  0  1.016705  0
H  H31  1  0.80738480  0.03549364  0.15658024  1  0  0.315836  0  0.934447  0  0  0.294236  0  1.010392  0  0  0.303864  0  1.001602  0  0  0.274802  0.287359  0  1.016721  0
C  C32  1  0.58312784  0.65039807  0.37021520  1  0  0.348569  0  3.741001  0  0  0.324611  0  4.019065  0  0  0.351054  0  4.026247  0  0  0.145669  0.307015  0  4.013486  0
C  C33  1  0.91686140  0.84960343  0.87020978  1  0  0.349091  0  3.740901  0  0  0.324938  0  4.019041  0  0  0.351397  0  4.026175  0  0  0.145687  0.307266  0  4.013592  0
C  C34  1  0.41683880  0.34961397  0.62978988  1  0  0.34862  0  3.741126  0  0  0.324635  0  4.019296  0  0  0.351056  0  4.026502  0  0  0.145636  0.306974  0  4.01382  0
C  C35  1  0.08312864  0.15040548  0.12978681  1  0  0.348565  0  3.740862  0  0  0.324576  0  4.018995  0  0  0.351056  0  4.026047  0  0  0.145596  0.306907  0  4.013538  0
C  C36  1  0.78222317  0.72375084  0.33954962  1  0  -0.020601  0  3.782734  0  0  0.005341  0  4.011658  0  0  -0.003855  0  4.037123  0  0  -0.017911  0.010806  0  3.995089  0
C  C37  1  0.71776240  0.77625445  0.83955226  1  0  -0.020838  0  3.782351  0  0  0.005055  0  4.01145  0  0  -0.004134  0  4.036886  0  0  -0.017958  0.010542  0  3.994902  0
C  C38  1  0.21774190  0.27626296  0.66045206  1  0  -0.020623  0  3.782897  0  0  0.005168  0  4.012012  0  0  -0.003952  0  4.037352  0  0  -0.017896  0.01065  0  3.995456  0
C  C39  1  0.28225614  0.22376068  0.16044885  1  0  -0.020696  0  3.783013  0  0  0.005232  0  4.011931  0  0  -0.003897  0  4.037274  0  0  -0.017881  0.010722  0  3.99537  0
C  C40  1  0.96342227  0.76994766  0.38820985  1  0  -0.069895  0  3.709304  0  0  -0.092347  0  3.950607  0  0  -0.09018  0  3.969453  0  0  -0.085121  -0.093824  0  3.938329  0
C  C41  1  0.53659312  0.73004805  0.88821407  1  0  -0.06982  0  3.709107  0  0  -0.092251  0  3.950506  0  0  -0.090085  0  3.969318  0  0  -0.085182  -0.093734  0  3.938232  0
C  C42  1  0.03656189  0.23005880  0.61178674  1  0  -0.069824  0  3.709632  0  0  -0.092264  0  3.950833  0  0  -0.090113  0  3.969651  0  0  -0.085057  -0.093738  0  3.938566  0
C  C43  1  0.46343536  0.26995996  0.11178818  1  0  -0.069818  0  3.709623  0  0  -0.092226  0  3.950919  0  0  -0.090078  0  3.969763  0  0  -0.085241  -0.093709  0  3.938642  0
C  C44  1  0.15261807  0.83942060  0.35965345  1  0  -0.07355  0  3.77611  0  0  -0.082661  0  4.020629  0  0  -0.087336  0  4.042318  0  0  -0.095398  -0.079662  0  4.006141  0
C  C45  1  0.34736932  0.66057826  0.85965742  1  0  -0.073667  0  3.775774  0  0  -0.082772  0  4.02034  0  0  -0.087458  0  4.042029  0  0  -0.095447  -0.079771  0  4.005855  0
C  C46  1  0.84735405  0.16059131  0.64034427  1  0  -0.073365  0  3.775797  0  0  -0.082396  0  4.020345  0  0  -0.087063  0  4.042023  0  0  -0.095311  -0.0794  0  4.005855  0
C  C47  1  0.65266621  0.33942786  0.14033803  1  0  -0.073661  0  3.77593  0  0  -0.082708  0  4.020434  0  0  -0.087398  0  4.042139  0  0  -0.095285  -0.079708  0  4.005947  0
C  C48  1  0.16759269  0.86181779  0.28197585  1  0  -0.062582  0  3.754102  0  0  -0.079432  0  4.006513  0  0  -0.078008  0  4.025022  0  0  -0.095208  -0.080367  0  3.994181  0
C  C49  1  0.33237910  0.63818721  0.78198023  1  0  -0.06239  0  3.753731  0  0  -0.07933  0  4.006202  0  0  -0.077907  0  4.024708  0  0  -0.095141  -0.080268  0  3.993876  0
C  C50  1  0.83240679  0.13815645  0.71801507  1  0  -0.062665  0  3.753982  0  0  -0.079677  0  4.00646  0  0  -0.078229  0  4.024981  0  0  -0.095306  -0.080609  0  3.99413  0
C  C51  1  0.66761683  0.36181208  0.21801975  1  0  -0.062494  0  3.753956  0  0  -0.079406  0  4.006399  0  0  -0.077986  0  4.024918  0  0  -0.095171  -0.08034  0  3.994066  0
C  C52  1  0.98859609  0.81633008  0.23303314  1  0  -0.076004  0  3.773512  0  0  -0.087313  0  4.022918  0  0  -0.090955  0  4.043107  0  0  -0.099942  -0.085088  0  4.009682  0
C  C53  1  0.51137795  0.68368333  0.73303635  1  0  -0.075993  0  3.773675  0  0  -0.087351  0  4.023111  0  0  -0.090991  0  4.043302  0  0  -0.10005  -0.085125  0  4.009873  0
C  C54  1  0.01138455  0.18365321  0.76696004  1  0  -0.075725  0  3.773734  0  0  -0.08711  0  4.023152  0  0  -0.090752  0  4.043349  0  0  -0.099942  -0.084887  0  4.009914  0
C  C55  1  0.48864988  0.31632038  0.26696590  1  0  -0.075967  0  3.773496  0  0  -0.087354  0  4.022979  0  0  -0.091001  0  4.043176  0  0  -0.10001  -0.085125  0  4.009738  0
C  C56  1  0.79598478  0.74882097  0.26153960  1  0  -0.088105  0  3.724299  0  0  -0.111863  0  3.96934  0  0  -0.110437  0  3.988821  0  0  -0.091138  -0.112621  0  3.956334  0
C  C57  1  0.70402715  0.75117741  0.76152722  1  0  -0.088266  0  3.723975  0  0  -0.111899  0  3.969071  0  0  -0.110483  0  3.988521  0  0  -0.091043  -0.112653  0  3.95606  0
C  C58  1  0.20401823  0.25115233  0.73845699  1  0  -0.088224  0  3.724508  0  0  -0.111981  0  3.969575  0  0  -0.110573  0  3.989043  0  0  -0.09113  -0.112736  0  3.956563  0
C  C59  1  0.29601845  0.24882244  0.23846313  1  0  -0.088065  0  3.724548  0  0  -0.111842  0  3.969589  0  0  -0.110439  0  3.989067  0  0  -0.091093  -0.112598  0  3.956574  0
S  S60  1  0.52086766  0.65116859  0.46490731  1  0  -0.329204  0  2.59099  0  0  -0.306938  0  3.021394  0  0  -0.319101  0  2.997295  0  0  -0.203031  -0.29951  0  3.037076  0
S  S61  1  0.97914411  0.84884205  0.96490422  1  0  -0.329397  0  2.590886  0  0  -0.306958  0  3.021218  0  0  -0.319155  0  2.997115  0  0  -0.202985  -0.299504  0  3.036936  0
S  S62  1  0.47907659  0.34887756  0.53509607  1  0  -0.329187  0  2.591101  0  0  -0.306883  0  3.02152  0  0  -0.319056  0  2.997441  0  0  -0.202975  -0.299432  0  3.037226  0
S  S63  1  0.02087431  0.15114811  0.03509633  1  0  -0.329046  0  2.59078  0  0  -0.306741  0  3.021151  0  0  -0.318948  0  2.997031  0  0  -0.202919  -0.299296  0  3.03688  0
Br  Br64  1  0.00803851  0.58500108  0.60344051  1  0  -0.474122  0  1.290775  0  0  -0.408161  0  1.632219  0  0  -0.42959  0  1.604046  0  0  -0.252962  -0.392383  0  1.650431  0
Br  Br65  1  0.49198050  0.91498571  0.10343077  1  0  -0.474077  0  1.290531  0  0  -0.408099  0  1.631901  0  0  -0.429545  0  1.603724  0  0  -0.252949  -0.392328  0  1.650109  0
Br  Br66  1  0.99194067  0.41503305  0.39657137  1  0  -0.474145  0  1.290731  0  0  -0.40816  0  1.63211  0  0  -0.429592  0  1.603944  0  0  -0.252975  -0.392385  0  1.650315  0
Br  Br67  1  0.50806329  0.08499007  0.89656185  1  0  -0.474026  0  1.290513  0  0  -0.408096  0  1.631949  0  0  -0.429532  0  1.603757  0  0  -0.252947  -0.392317  0  1.650137  0
N  N68  1  0.45107832  0.58521226  0.32311691  1  0  -0.564029  0  3.203358  0  0  -0.521665  0  3.42977  0  0  -0.54091  0  3.426828  0  0  -0.540211  -0.508902  0  3.431867  0
N  N69  1  0.04892682  0.91476464  0.82311194  1  0  -0.564227  0  3.202987  0  0  -0.521649  0  3.429452  0  0  -0.5409  0  3.426497  0  0  -0.540122  -0.508871  0  3.431584  0
N  N70  1  0.54889278  0.41478073  0.67689497  1  0  -0.563782  0  3.202856  0  0  -0.521415  0  3.429259  0  0  -0.540664  0  3.426331  0  0  -0.540023  -0.508629  0  3.43138  0
N  N71  1  0.95108023  0.08522320  0.17688521  1  0  -0.56413  0  3.20307  0  0  -0.521775  0  3.429461  0  0  -0.541043  0  3.426524  0  0  -0.54016  -0.508992  0  3.431592  0
