# generated using pymatgen
data_Zn3H7C43N13O12
_symmetry_space_group_name_H-M   'P 1'
_cell_length_a   21.83672128
_cell_length_b   21.69477144
_cell_length_c   22.06267820
_cell_angle_alpha   61.00144152
_cell_angle_beta   60.32091717
_cell_angle_gamma   89.96704248
_symmetry_Int_Tables_number   1
_chemical_formula_structural   Zn3H7C43N13O12
_chemical_formula_sum   'Zn6 H14 C86 N26 O24'
_cell_volume   7537.73187654
_cell_formula_units_Z   2
loop_
 _symmetry_equiv_pos_site_id
 _symmetry_equiv_pos_as_xyz
  1  'x, y, z'
loop_
 _atom_site_type_symbol
 _atom_site_label
 _atom_site_symmetry_multiplicity
 _atom_site_fract_x
 _atom_site_fract_y
 _atom_site_fract_z
 _atom_site_occupancy
 _atom_site_pbe_bader_charge
 _atom_site_pbe_bader_spin_density
 _atom_site_pbe_cm5_charge
 _atom_site_pbe_ddec_charge
 _atom_site_pbe_ddec_spin_density
 _atom_site_pbe_ddec_sum_bond_order
 _atom_site_pbe_magmom
Zn  Zn0  1  0.06006383  0.00005092  0.00001555  1  1.342142  0  0.764618  1.006076  0  2.079548  0
Zn  Zn1  1  0.96283743  0.45852316  0.08287682  1  1.309781  0  0.764929  1.004276  0  2.010215  0
Zn  Zn2  1  0.04568363  0.54147985  0.91710445  1  1.319887  0  0.765157  1.004529  0  2.009838  0
Zn  Zn3  1  0.93188628  0.00009984  0.99990992  1  1.329364  0  0.751229  0.987915  0  2.047992  0
Zn  Zn4  1  0.50382469  0.43907954  0.00083990  1  1.316448  0  0.760721  0.995751  0  2.021343  0
Zn  Zn5  1  0.50463304  0.56090291  0.99916766  1  1.316038  0  0.760695  0.995224  0  2.021559  0
H  H6  1  0.63703687  0.77464797  0.56653339  1  0.168333  0  0.141795  0.148336  0  0.930289  0
H  H7  1  0.21689533  0.11836089  0.57131425  1  0.13185  0  0.13981  0.141726  0  0.926179  0
H  H8  1  0.78779532  0.88164791  0.42859172  1  0.149418  0  0.139579  0.14132  0  0.927284  0
H  H9  1  0.79667734  0.74798620  0.57884423  1  0.137567  0  0.140599  0.142915  0  0.926611  0
H  H10  1  0.37557112  0.25249435  0.42103559  1  0.154154  0  0.140658  0.143227  0  0.925462  0
H  H11  1  0.92385280  0.83295381  0.93838406  1  0.140156  0  0.134851  0.149121  0  0.949719  0
H  H12  1  0.86194977  0.16714696  0.06142544  1  0.134609  0  0.134347  0.148468  0  0.950659  0
H  H13  1  0.20368913  0.22503349  0.43353685  1  0.142104  0  0.141946  0.148361  0  0.930004  0
H  H14  1  0.87823217  0.73916199  0.43073048  1  0.13914  0  0.140791  0.145128  0  0.932138  0
H  H15  1  0.30866456  0.26127851  0.56917976  1  0.145093  0  0.140825  0.145586  0  0.930641  0
H  H16  1  0.26343264  0.58088845  0.86589959  1  0.14249  0  0.129602  0.142885  0  0.961377  0
H  H17  1  0.12961696  0.41936113  0.13330862  1  0.154787  0  0.129583  0.14327  0  0.961012  0
H  H18  1  0.66962368  0.56404034  0.05397738  1  0.137479  0  0.129336  0.142751  0  0.961168  0
H  H19  1  0.72379136  0.43548423  0.94592788  1  0.138883  0  0.129216  0.14243  0  0.961502  0
C  C20  1  0.96957756  0.88257010  0.00467131  1  1.582468  0  0.229727  0.609598  0  4.147228  0
C  C21  1  0.19631799  0.16609147  0.55232992  1  0.057702  0  -0.035169  -0.072726  0  3.827407  0
C  C22  1  0.19126933  0.28359470  0.55813960  1  0.171445  0  0.068104  0.035469  0  3.808934  0
C  C23  1  0.68766515  0.66910515  0.54281452  1  0.188761  0  0.068035  0.03504  0  3.808935  0
C  C24  1  0.22992120  0.33067841  0.45736959  1  0.192723  0  0.068119  0.034697  0  3.809397  0
C  C25  1  0.62357644  0.62265681  0.74794117  1  0.056171  0  0.002217  -0.079291  0  3.869729  0
C  C26  1  0.37114073  0.37779408  0.25201991  1  -0.111687  0  0.002879  -0.078626  0  3.868145  0
C  C27  1  0.79822756  0.79119661  0.41420786  1  0.121767  0  0.034833  0.098094  0  3.839071  0
C  C28  1  0.74840859  0.83375688  0.44767039  1  0.043285  0  -0.035139  -0.073274  0  3.832043  0
C  C29  1  0.21237796  0.20875913  0.58579758  1  0.133447  0  0.034291  0.09753  0  3.837562  0
C  C30  1  0.78994816  0.71843393  0.55254107  1  0.084628  0  -0.035289  -0.074971  0  3.835012  0
C  C31  1  0.34234170  0.28196672  0.44736575  1  0.038039  0  -0.035648  -0.075471  0  3.833856  0
C  C32  1  0.70710397  0.70584338  0.58113987  1  0.142969  0  0.034786  0.099076  0  3.839056  0
C  C33  1  0.28805579  0.29425409  0.41884840  1  0.16251  0  0.034964  0.099923  0  3.838594  0
C  C34  1  0.80784204  0.65027807  0.58714921  1  0.851662  0  0.16829  0.224115  0  3.960133  0
C  C35  1  0.39463075  0.35023307  0.41276782  1  0.837345  0  0.168847  0.224775  0  3.96042  0
C  C36  1  0.89310913  0.83607973  0.42676184  1  0.842473  0  0.17633  0.237823  0  3.957619  0
C  C37  1  0.32019913  0.16448114  0.57300870  1  0.858292  0  0.176401  0.237735  0  3.956274  0
C  C38  1  0.93948623  0.72469644  0.91301229  1  0.828359  0  0.182266  0.235721  0  3.999088  0
C  C39  1  0.65951700  0.65978875  0.67190450  1  -0.324873  0  -0.029651  -0.07861  0  4.038311  0
C  C40  1  0.85184850  0.27510040  0.08749465  1  0.875907  0  0.182126  0.23475  0  3.998779  0
C  C41  1  0.04905728  0.65675110  0.07669156  1  0.880773  0  0.180582  0.234843  0  4.005003  0
C  C42  1  0.12506886  0.34305105  0.92423905  1  0.87076  0  0.180507  0.234322  0  4.006051  0
C  C43  1  0.02734314  0.77709198  0.09087352  1  0.831112  0  0.176873  0.229601  0  4.013218  0
C  C44  1  0.11793745  0.22297370  0.90952672  1  0.876993  0  0.178006  0.231132  0  4.015716  0
C  C45  1  0.33115688  0.34037719  0.32807973  1  -0.111924  0  -0.029949  -0.079428  0  4.037973  0
C  C46  1  0.78488547  0.56988371  0.06615499  1  0.821155  0  0.184831  0.245208  0  3.996597  0
C  C47  1  0.85157310  0.43014730  0.93322561  1  0.859326  0  0.184284  0.243591  0  3.99854  0
C  C48  1  0.39501342  0.59381283  0.84780169  1  0.878927  0  0.184458  0.242867  0  3.991243  0
C  C49  1  0.24290090  0.40613164  0.15169448  1  0.809613  0  0.185016  0.24246  0  3.991533  0
C  C50  1  0.71508346  0.73102275  0.39595535  1  0.873944  0  0.177427  0.193093  0  3.94363  0
C  C51  1  0.11045770  0.26827364  0.60429645  1  0.85637  0  0.17727  0.192117  0  3.94454  0
C  C52  1  0.79967492  0.67416765  0.41971406  1  0.881988  0  0.181317  0.19398  0  3.944184  0
C  C53  1  0.21850600  0.32567096  0.58053137  1  0.874922  0  0.181954  0.193905  0  3.943925  0
C  C54  1  0.68407332  0.59075811  0.58259636  1  0.865133  0  0.178647  0.194251  0  3.942085  0
C  C55  1  0.26571382  0.40907462  0.41771980  1  0.853647  0  0.177612  0.194289  0  3.940053  0
C  C56  1  0.61357462  0.67121082  0.56068628  1  0.857991  0  0.182189  0.194755  0  3.931282  0
C  C57  1  0.17375658  0.32826537  0.43952350  1  0.86277  0  0.182094  0.195222  0  3.931775  0
C  C58  1  0.70790853  0.86417798  0.40956012  1  0.838541  0  0.168056  0.223777  0  3.963232  0
C  C59  1  0.11776793  0.13539678  0.59044358  1  0.819775  0  0.16814  0.223045  0  3.963145  0
C  C60  1  0.70767966  0.82002164  0.58220713  1  0.834563  0  0.176196  0.237167  0  3.956356  0
C  C61  1  0.84877583  0.83783114  0.32357466  1  -0.018391  0  -0.028414  -0.076491  0  4.045117  0
C  C62  1  0.29040102  0.18017617  0.41765269  1  0.857947  0  0.176399  0.237261  0  3.957297  0
C  C63  1  0.17242258  0.16217242  0.67641328  1  0.100442  0  -0.028736  -0.076536  0  4.044186  0
C  C64  1  0.97416277  0.11757687  0.99527888  1  1.587091  0  0.229501  0.608458  0  4.147324  0
C  C65  1  0.89318594  0.87729922  0.24806600  1  -0.17526  0  -0.00168  -0.0902  0  3.865194  0
C  C66  1  0.14144056  0.12277015  0.75190439  1  -0.278136  0  -0.001281  -0.09023  0  3.863497  0
C  C67  1  0.94934242  0.79665792  0.96668249  1  0.055784  0  -0.039529  -0.089302  0  3.85619  0
C  C68  1  0.91563168  0.20332075  0.03347763  1  0.059764  0  -0.038671  -0.088874  0  3.853638  0
C  C69  1  0.96068056  0.73619886  0.95942067  1  0.103061  0  0.035437  0.073207  0  4.026915  0
C  C70  1  0.91947580  0.26353737  0.04116596  1  0.075259  0  0.034877  0.074837  0  4.022774  0
C  C71  1  0.99217269  0.68838998  0.99758205  1  0.074053  0  0.030056  -0.047485  0  3.832435  0
C  C72  1  0.98901529  0.31117734  0.00343994  1  0.061929  0  0.030999  -0.046007  0  3.831827  0
C  C73  1  0.01373273  0.70267282  0.04113309  1  0.113316  0  0.040211  0.035077  0  3.985808  0
C  C74  1  0.05426551  0.29710882  0.95968305  1  0.100351  0  0.039591  0.034527  0  3.986979  0
C  C75  1  0.00482838  0.76527661  0.04562930  1  0.140639  0  0.042018  0.043157  0  3.970481  0
C  C76  1  0.05008322  0.23469678  0.95482723  1  0.106942  0  0.042515  0.043783  0  3.970314  0
C  C77  1  0.93959763  0.92381907  0.15722113  1  1.661389  0  0.237471  0.674046  0  4.199852  0
C  C78  1  0.09703596  0.07627294  0.84275913  1  1.645133  0  0.238448  0.674841  0  4.198684  0
C  C79  1  0.97246208  0.81229557  0.00764749  1  0.01557  0  0.014125  -0.032425  0  3.905891  0
C  C80  1  0.69532462  0.78391394  0.54638716  1  0.078791  0  -0.035747  -0.083245  0  3.82747  0
C  C81  1  0.97982976  0.18776011  0.99251278  1  0.03877  0  0.013397  -0.033766  0  3.903399  0
C  C82  1  0.31829892  0.49988642  0.99970103  1  0.032156  0  0.029476  -0.041843  0  3.836127  0
C  C83  1  0.62172102  0.49970146  0.99999816  1  1.576976  0  0.229603  0.604281  0  4.156521  0
C  C84  1  0.58163361  0.57813930  0.83866985  1  1.751957  0  0.237466  0.669335  0  4.224548  0
C  C85  1  0.42004259  0.42251187  0.16128303  1  1.713882  0  0.236778  0.669485  0  4.224203  0
C  C86  1  0.24187700  0.21602377  0.45361450  1  0.106413  0  -0.036205  -0.084113  0  3.827597  0
C  C87  1  0.38691746  0.49974491  0.99978641  1  1.62522  0  0.228648  0.599676  0  4.199965  0
C  C88  1  0.12174557  0.50016278  0.99946113  1  1.583954  0  0.23328  0.608774  0  4.147174  0
C  C89  1  0.00192155  0.62159417  0.99370044  1  1.613403  0  0.229875  0.602709  0  4.183175  0
C  C90  1  0.99473806  0.37773464  0.00773617  1  1.615943  0  0.227596  0.598549  0  4.18647  0
C  C91  1  0.88744567  0.50042016  0.99918060  1  1.611643  0  0.229541  0.598489  0  4.185936  0
C  C92  1  0.70653916  0.53574324  0.03071416  1  0.018088  0  -0.04152  -0.084411  0  3.850163  0
C  C93  1  0.73752704  0.46399717  0.96892300  1  0.029592  0  -0.041484  -0.084924  0  3.849108  0
C  C94  1  0.76977313  0.53444794  0.03256077  1  0.131789  0  0.027197  0.055588  0  4.040387  0
C  C95  1  0.80278085  0.46562841  0.96670158  1  0.114119  0  0.026444  0.057948  0  4.0367  0
C  C96  1  0.84375244  0.76944393  0.45426446  1  0.090678  0  -0.036741  -0.082381  0  3.837499  0
C  C97  1  0.29794744  0.23091340  0.54562789  1  0.07961  0  -0.037187  -0.083637  0  3.835185  0
C  C98  1  0.81880791  0.50020150  0.99944554  1  0.026072  0  0.031297  -0.044333  0  3.832212  0
C  C99  1  0.69025673  0.49982780  0.99985633  1  -0.022818  0  -0.001369  -0.017779  0  3.966177  0
C  C100  1  0.32369351  0.54656930  0.92425488  1  0.068759  0  0.024694  0.050258  0  4.046877  0
C  C101  1  0.24819793  0.45336629  0.07510544  1  0.124335  0  0.024545  0.04992  0  4.045275  0
C  C102  1  0.25953924  0.54586640  0.92424866  1  0.019667  0  -0.039365  -0.079333  0  3.847394  0
C  C103  1  0.18410366  0.45425959  0.07495895  1  0.026211  0  -0.039457  -0.080055  0  3.845422  0
C  C104  1  0.19011559  0.50009063  0.99956084  1  0.023762  0  -0.000478  -0.019238  0  3.958368  0
C  C105  1  0.74977193  0.71612911  0.44200478  1  0.149292  0  0.068448  0.035192  0  3.808323  0
N  N106  1  0.82535991  0.59784062  0.61344642  1  -1.055035  0  -0.273947  -0.29452  0  2.658821  0
N  N107  1  0.79526585  0.28245541  0.12577990  1  -1.083496  0  -0.291688  -0.324432  0  2.662511  0
N  N108  1  0.92137405  0.71754778  0.87450692  1  -1.061649  0  -0.292163  -0.324829  0  2.662458  0
N  N109  1  0.08088037  0.62126924  0.10236617  1  -1.065269  0  -0.28221  -0.308756  0  2.643277  0
N  N110  1  0.18258531  0.37851970  0.89846913  1  -1.054173  0  -0.282096  -0.30838  0  2.644055  0
N  N111  1  0.04473378  0.78178238  0.13111816  1  -1.043297  0  -0.28003  -0.304005  0  2.646981  0
N  N112  1  0.17559389  0.21829536  0.86925330  1  -1.055869  0  -0.280792  -0.305009  0  2.648911  0
N  N113  1  0.43828287  0.40273653  0.38652702  1  -1.040752  0  -0.274281  -0.294872  0  2.658809  0
N  N114  1  0.79713941  0.59997401  0.09260999  1  -1.080723  0  -0.300489  -0.344974  0  2.696903  0
N  N115  1  0.89023832  0.39985999  0.90704972  1  -1.110273  0  -0.300117  -0.344842  0  2.698668  0
N  N116  1  0.45369474  0.63208142  0.78602768  1  -1.118078  0  -0.294222  -0.339512  0  2.710541  0
N  N117  1  0.23971987  0.36797231  0.21355183  1  -1.098695  0  -0.294574  -0.339111  0  2.711329  0
N  N118  1  0.68910935  0.74088967  0.35820017  1  -0.989693  0  -0.241528  -0.23818  0  2.637087  0
N  N119  1  0.04667000  0.25810729  0.64216004  1  -0.982556  0  -0.241226  -0.237417  0  2.638073  0
N  N120  1  0.84123157  0.64319467  0.39990348  1  -1.006224  0  -0.241669  -0.242271  0  2.636914  0
N  N121  1  0.24001539  0.35671766  0.60040728  1  -1.005732  0  -0.241961  -0.242076  0  2.635504  0
N  N122  1  0.67871134  0.52792196  0.61429504  1  -0.995195  0  -0.241149  -0.23736  0  2.635902  0
N  N123  1  0.29189827  0.47192035  0.38607572  1  -0.998611  0  -0.24008  -0.237131  0  2.634081  0
N  N124  1  0.55472963  0.67367547  0.57586871  1  -0.989709  0  -0.238403  -0.237571  0  2.642869  0
N  N125  1  0.13012486  0.32559353  0.42437178  1  -0.983268  0  -0.238568  -0.238177  0  2.643171  0
N  N126  1  0.67488486  0.89056430  0.38061495  1  -1.038131  0  -0.274045  -0.2945  0  2.661539  0
N  N127  1  0.05589316  0.10876736  0.61932819  1  -1.03213  0  -0.273956  -0.293942  0  2.662614  0
N  N128  1  0.72024287  0.84980577  0.60865649  1  -1.047895  0  -0.278754  -0.306363  0  2.651991  0
N  N129  1  0.93053391  0.88991818  0.40619077  1  -1.068637  0  -0.27959  -0.308116  0  2.652706  0
N  N130  1  0.32965726  0.15056165  0.39110191  1  -1.063619  0  -0.278608  -0.306011  0  2.650996  0
N  N131  1  0.33733037  0.11078850  0.59357109  1  -1.063385  0  -0.279461  -0.307861  0  2.65283  0
O  O132  1  0.02120532  0.91132837  0.00305073  1  -1.169038  0  -0.297311  -0.57197  0  2.403404  0
O  O133  1  0.03927427  0.43878116  0.93787016  1  -1.140277  0  -0.292413  -0.532553  0  2.306344  0
O  O134  1  0.97655032  0.56060480  0.06365185  1  -1.144987  0  -0.293497  -0.532727  0  2.301198  0
O  O135  1  0.94862615  0.52901827  0.92793930  1  -1.128434  0  -0.293068  -0.521584  0  2.285846  0
O  O136  1  0.87758309  0.47190402  0.07031486  1  -1.126991  0  -0.292841  -0.522904  0  2.290607  0
O  O137  1  0.91792102  0.90930934  0.00187293  1  -1.115423  0  -0.29936  -0.506846  0  2.202501  0
O  O138  1  0.91987633  0.09096831  0.99778753  1  -1.117214  0  -0.2994  -0.506157  0  2.202093  0
O  O139  1  0.02410591  0.08873190  0.99709067  1  -1.170387  0  -0.297233  -0.571693  0  2.403694  0
O  O140  1  0.01008380  0.94283446  0.12143380  1  -1.070929  0  -0.291242  -0.498814  0  2.2002  0
O  O141  1  0.13167473  0.05723812  0.87862061  1  -1.097852  0  -0.291279  -0.498629  0  2.199504  0
O  O142  1  0.90491680  0.94077447  0.12228700  1  -1.13509  0  -0.294737  -0.550374  0  2.262595  0
O  O143  1  0.02742986  0.05934624  0.87763389  1  -1.110941  0  -0.295691  -0.551141  0  2.262419  0
O  O144  1  0.60147917  0.45398910  0.98774060  1  -1.141284  0  -0.305339  -0.542206  0  2.279914  0
O  O145  1  0.58907885  0.54532301  0.01238395  1  -1.142484  0  -0.305332  -0.542515  0  2.281739  0
O  O146  1  0.55629144  0.50851944  0.87465162  1  -1.111465  0  -0.295057  -0.524557  0  2.218808  0
O  O147  1  0.43065548  0.49214547  0.12538175  1  -1.120971  0  -0.294801  -0.523773  0  2.217023  0
O  O148  1  0.57516354  0.61324227  0.87296547  1  -1.117763  0  -0.297995  -0.529615  0  2.217106  0
O  O149  1  0.44799809  0.38746900  0.12693470  1  -1.129346  0  -0.297295  -0.530217  0  2.219893  0
O  O150  1  0.40620424  0.44174552  0.01222262  1  -1.130304  0  -0.295267  -0.524673  0  2.269099  0
O  O151  1  0.41864709  0.55766180  0.98742307  1  -1.134206  0  -0.294948  -0.525268  0  2.269399  0
O  O152  1  0.13062757  0.54306698  0.92870520  1  -1.144616  0  -0.305111  -0.541735  0  2.284858  0
O  O153  1  0.05986172  0.45729358  0.07016814  1  -1.149521  0  -0.305077  -0.543299  0  2.290977  0
O  O154  1  0.03417219  0.63251919  0.92149268  1  -1.124884  0  -0.295093  -0.521486  0  2.265093  0
O  O155  1  0.95484262  0.36670422  0.08001261  1  -1.128145  0  -0.294192  -0.5187  0  2.260168  0
