# generated using pymatgen
data_AgH4(C3N)2
_symmetry_space_group_name_H-M   'P 1'
_cell_length_a   9.07044805
_cell_length_b   8.84123610
_cell_length_c   16.00630000
_cell_angle_alpha   90.00000000
_cell_angle_beta   90.00000000
_cell_angle_gamma   111.26703693
_symmetry_Int_Tables_number   1
_chemical_formula_structural   AgH4(C3N)2
_chemical_formula_sum   'Ag8 H32 C48 N16'
_cell_volume   1196.19510064
_cell_formula_units_Z   8
loop_
 _symmetry_equiv_pos_site_id
 _symmetry_equiv_pos_as_xyz
  1  'x, y, z'
loop_
 _atom_site_type_symbol
 _atom_site_label
 _atom_site_symmetry_multiplicity
 _atom_site_fract_x
 _atom_site_fract_y
 _atom_site_fract_z
 _atom_site_occupancy
 _atom_site_hle17_bader_spin_density
 _atom_site_hle17_ddec_charge
 _atom_site_hle17_ddec_spin_density
 _atom_site_hle17_ddec_sum_bond_order
 _atom_site_hle17_magmom
 _atom_site_hse06_10hf_bader_spin_density
 _atom_site_hse06_10hf_ddec_charge
 _atom_site_hse06_10hf_ddec_spin_density
 _atom_site_hse06_10hf_ddec_sum_bond_order
 _atom_site_hse06_10hf_magmom
 _atom_site_hse06_bader_spin_density
 _atom_site_hse06_ddec_charge
 _atom_site_hse06_ddec_spin_density
 _atom_site_hse06_ddec_sum_bond_order
 _atom_site_hse06_magmom
 _atom_site_pbe_bader_charge
 _atom_site_pbe_bader_spin_density
 _atom_site_pbe_cm5_charge
 _atom_site_pbe_ddec_charge
 _atom_site_pbe_ddec_spin_density
 _atom_site_pbe_ddec_sum_bond_order
 _atom_site_pbe_magmom
Ag  Ag0  1  0.44487383  0.22305218  0.14103572  1  0  0.284004  0  2.059974  0  0  0.179025  0  2.546158  0  0  0.192568  0  2.506577  0  0.4464  0  0.348337  0.170644  0  2.572653  0
Ag  Ag1  1  0.55512390  0.27694852  0.64103572  1  0  0.284023  0  2.059982  0  0  0.179042  0  2.546173  0  0  0.192585  0  2.506592  0  0.446369  0  0.348309  0.170656  0  2.572678  0
Ag  Ag2  1  0.55512324  0.77694194  0.85896366  1  0  0.283954  0  2.059945  0  0  0.178944  0  2.546137  0  0  0.192489  0  2.506557  0  0.446394  0  0.348305  0.170574  0  2.572607  0
Ag  Ag3  1  0.44487465  0.72305288  0.35896428  1  0  0.284005  0  2.059933  0  0  0.179011  0  2.546129  0  0  0.192557  0  2.506547  0  0.446406  0  0.348315  0.170628  0  2.572626  0
Ag  Ag4  1  0.75486107  0.03301312  0.39106977  1  0  0.535013  0  1.643224  0  0  0.402343  0  2.115407  0  0  0.426263  0  2.072748  0  0.607737  0  0.494903  0.386827  0  2.144268  0
Ag  Ag5  1  0.24514652  0.46699365  0.89106852  1  0  0.535045  0  1.643241  0  0  0.402362  0  2.115453  0  0  0.426284  0  2.072792  0  0.607708  0  0.494923  0.386846  0  2.144313  0
Ag  Ag6  1  0.24514580  0.96699314  0.60893023  1  0  0.53505  0  1.643221  0  0  0.40238  0  2.115439  0  0  0.426299  0  2.072779  0  0.607724  0  0.49492  0.386866  0  2.144297  0
Ag  Ag7  1  0.75484896  0.53300533  0.10893148  1  0  0.535021  0  1.643256  0  0  0.402337  0  2.115487  0  0  0.426256  0  2.072828  0  0.607707  0  0.494923  0.386823  0  2.144345  0
H  H8  1  0.32911710  0.76139179  0.19219120  1  0  0.095888  0  0.987593  0  0  0.101177  0  1.062448  0  0  0.104771  0  1.060465  0  0.083733  0  0.096018  0.098582  0  1.063999  0
H  H9  1  0.67088275  0.73860546  0.69219057  1  0  0.095897  0  0.987623  0  0  0.101187  0  1.062466  0  0  0.104784  0  1.06049  0  0.083318  0  0.096014  0.09859  0  1.064021  0
H  H10  1  0.67088304  0.23860476  0.80781005  1  0  0.095894  0  0.987659  0  0  0.101177  0  1.062513  0  0  0.10477  0  1.060536  0  0.0833  0  0.096025  0.098583  0  1.064065  0
H  H11  1  0.32911757  0.26139473  0.30781067  1  0  0.095889  0  0.987671  0  0  0.101171  0  1.062521  0  0  0.104765  0  1.060542  0  0.083316  0  0.096004  0.098576  0  1.064075  0
H  H12  1  0.06538695  0.93187665  0.38744120  1  0  0.081475  0  0.945878  0  0  0.088792  0  1.011972  0  0  0.091074  0  1.010415  0  0.109102  0  0.112355  0.087089  0  1.013204  0
H  H13  1  0.93461376  0.56812303  0.88744244  1  0  0.081458  0  0.945861  0  0  0.088776  0  1.011956  0  0  0.091058  0  1.0104  0  0.109091  0  0.112344  0.087074  0  1.013187  0
H  H14  1  0.93461270  0.06812476  0.61255756  1  0  0.081464  0  0.945875  0  0  0.08878  0  1.011971  0  0  0.091062  0  1.010415  0  0.10908  0  0.112332  0.087078  0  1.013202  0
H  H15  1  0.06538766  0.43187716  0.11255818  1  0  0.081468  0  0.945866  0  0  0.088784  0  1.011964  0  0  0.091066  0  1.010408  0  0.109094  0  0.112344  0.087082  0  1.013195  0
H  H16  1  0.06252157  0.91393062  0.00735585  1  0  0.095884  0  0.978776  0  0  0.107152  0  1.040286  0  0  0.109749  0  1.040057  0  0.063977  0  0.101589  0.105357  0  1.040519  0
H  H17  1  0.93747913  0.58606906  0.50735648  1  0  0.095863  0  0.978765  0  0  0.107128  0  1.04028  0  0  0.109725  0  1.040052  0  0.063975  0  0.101593  0.105335  0  1.04051  0
H  H18  1  0.93747544  0.08606957  0.99264352  1  0  0.095851  0  0.978842  0  0  0.10712  0  1.040346  0  0  0.109717  0  1.040114  0  0.064099  0  0.101571  0.105323  0  1.040584  0
H  H19  1  0.06252492  0.41393234  0.49264352  1  0  0.095878  0  0.978798  0  0  0.10715  0  1.0403  0  0  0.109747  0  1.04007  0  0.064104  0  0.101579  0.105353  0  1.040537  0
H  H20  1  0.23422110  0.87191171  0.28278115  1  0  0.100627  0  0.990357  0  0  0.105856  0  1.064164  0  0  0.109162  0  1.062546  0  0.101448  0  0.097827  0.103478  0  1.065446  0
H  H21  1  0.76577960  0.62808797  0.78278178  1  0  0.100618  0  0.990376  0  0  0.105842  0  1.064191  0  0  0.109147  0  1.062575  0  0.101451  0  0.09783  0.103463  0  1.065474  0
H  H22  1  0.76577811  0.12808848  0.71721885  1  0  0.10058  0  0.990441  0  0  0.105804  0  1.064252  0  0  0.10911  0  1.062636  0  0.101437  0  0.097809  0.103427  0  1.065534  0
H  H23  1  0.23422617  0.37191829  0.21721885  1  0  0.100605  0  0.990404  0  0  0.105801  0  1.064241  0  0  0.109106  0  1.062626  0  0.101644  0  0.097821  0.103425  0  1.06552  0
H  H24  1  0.89905778  0.89478665  0.09440595  1  0  0.102973  0  0.979833  0  0  0.113665  0  1.040682  0  0  0.11629  0  1.040184  0  0.067776  0  0.104049  0.111765  0  1.04128  0
H  H25  1  0.10094097  0.60521060  0.59440595  1  0  0.102976  0  0.97982  0  0  0.113663  0  1.040676  0  0  0.116289  0  1.040177  0  0.067783  0  0.104032  0.111762  0  1.041271  0
H  H26  1  0.10094058  0.10521112  0.90559467  1  0  0.102973  0  0.979775  0  0  0.113642  0  1.040649  0  0  0.116268  0  1.04015  0  0.067778  0  0.104036  0.111742  0  1.041245  0
H  H27  1  0.89905806  0.39478595  0.40559405  1  0  0.102978  0  0.979832  0  0  0.113673  0  1.040675  0  0  0.116299  0  1.040175  0  0.067777  0  0.104053  0.111773  0  1.041273  0
H  H28  1  0.48099588  0.70650263  0.07572393  1  0  0.084439  0  0.94256  0  0  0.091039  0  1.006562  0  0  0.092814  0  1.006669  0  0.102995  0  0.111314  0.089762  0  1.006527  0
H  H29  1  0.51900568  0.79349948  0.57572393  1  0  0.084431  0  0.942584  0  0  0.091036  0  1.006583  0  0  0.092811  0  1.006689  0  0.102979  0  0.111325  0.089764  0  1.006542  0
H  H30  1  0.51900707  0.29349878  0.92427482  1  0  0.084459  0  0.942564  0  0  0.091072  0  1.006552  0  0  0.092847  0  1.006658  0  0.103036  0  0.111332  0.089799  0  1.006508  0
H  H31  1  0.48099311  0.20649950  0.42427669  1  0  0.084429  0  0.942574  0  0  0.091027  0  1.006579  0  0  0.092802  0  1.006685  0  0.102994  0  0.11131  0.089755  0  1.006537  0
H  H32  1  0.23011447  0.85703760  0.89924530  1  0  0.069979  0  0.954047  0  0  0.077108  0  1.022184  0  0  0.078992  0  1.021412  0  0.072816  0  0.107832  0.075734  0  1.022822  0
H  H33  1  0.76988667  0.64296329  0.39924467  1  0  0.069988  0  0.954024  0  0  0.07712  0  1.022163  0  0  0.079006  0  1.02139  0  0.072808  0  0.107833  0.075747  0  1.0228  0
H  H34  1  0.76988518  0.14296380  0.10075533  1  0  0.069928  0  0.953988  0  0  0.077056  0  1.022139  0  0  0.078941  0  1.021367  0  0.07282  0  0.107806  0.075682  0  1.022778  0
H  H35  1  0.23011212  0.35703568  0.60075533  1  0  0.069963  0  0.954045  0  0  0.077089  0  1.022185  0  0  0.078975  0  1.021411  0  0.072805  0  0.107815  0.075716  0  1.022821  0
H  H36  1  0.74798984  0.96155811  0.20759076  1  0  0.079968  0  0.95887  0  0  0.088963  0  1.021705  0  0  0.090692  0  1.020885  0  0.096931  0  0.11268  0.087711  0  1.022272  0
H  H37  1  0.25200867  0.53844157  0.70759139  1  0  0.079988  0  0.958848  0  0  0.088984  0  1.021682  0  0  0.090708  0  1.020871  0  0.096954  0  0.112696  0.087731  0  1.02225  0
H  H38  1  0.25201005  0.03844087  0.79240986  1  0  0.079979  0  0.958848  0  0  0.088971  0  1.021692  0  0  0.090703  0  1.020864  0  0.096907  0  0.112681  0.087714  0  1.022269  0
H  H39  1  0.74798951  0.46155255  0.29240861  1  0  0.079976  0  0.958862  0  0  0.088968  0  1.021697  0  0  0.090691  0  1.02089  0  0.096952  0  0.112693  0.087715  0  1.022264  0
C  C40  1  0.31454767  0.30566387  0.06046994  1  0  -0.032413  0  3.407193  0  0  -0.018065  0  3.744682  0  0  -0.011334  0  3.751156  0  0.779924  0  -0.023342  -0.022816  0  3.740213  0
C  C41  1  0.68544767  0.19433319  0.56047056  1  0  -0.032416  0  3.407282  0  0  -0.018069  0  3.744778  0  0  -0.011338  0  3.751251  0  0.779879  0  -0.023339  -0.022821  0  3.74031  0
C  C42  1  0.68545737  0.69434967  0.93953256  1  0  -0.032382  0  3.407204  0  0  -0.018022  0  3.744665  0  0  -0.011289  0  3.751135  0  0.779853  0  -0.023313  -0.022777  0  3.740207  0
C  C43  1  0.31454781  0.80566579  0.43952944  1  0  -0.032408  0  3.407308  0  0  -0.018063  0  3.744798  0  0  -0.011333  0  3.751275  0  0.779731  0  -0.023324  -0.022815  0  3.740332  0
C  C44  1  0.30171986  0.78568193  0.12841319  1  0  -0.14694  0  3.695277  0  0  -0.160224  0  3.933453  0  0  -0.16804  0  3.956097  0  -0.069561  0  -0.08135  -0.15506  0  3.918226  0
C  C45  1  0.69828041  0.71431654  0.62841319  1  0  -0.146951  0  3.69528  0  0  -0.160233  0  3.93342  0  0  -0.168058  0  3.956072  0  -0.069122  0  -0.081325  -0.155069  0  3.918199  0
C  C46  1  0.69828027  0.21431462  0.87158619  1  0  -0.146938  0  3.695291  0  0  -0.160223  0  3.93346  0  0  -0.168043  0  3.956107  0  -0.069177  0  -0.081352  -0.155053  0  3.918217  0
C  C47  1  0.30172143  0.28568486  0.37158744  1  0  -0.146918  0  3.695359  0  0  -0.160199  0  3.933498  0  0  -0.168019  0  3.956146  0  -0.069123  0  -0.081312  -0.15503  0  3.918258  0
C  C48  1  0.18035862  0.84424380  0.11085073  1  0  0.073184  0  3.778136  0  0  0.085129  0  4.010308  0  0  0.088568  0  4.030617  0  0.010045  0  0.003686  0.082895  0  3.996579  0
C  C49  1  0.81964055  0.65575466  0.61085010  1  0  0.073151  0  3.778181  0  0  0.08513  0  4.010304  0  0  0.088569  0  4.030613  0  0.010027  0  0.003654  0.082893  0  3.99658  0
C  C50  1  0.81964194  0.15575396  0.88914927  1  0  0.073207  0  3.778147  0  0  0.085178  0  4.010294  0  0  0.088617  0  4.030601  0  0.009938  0  0.003703  0.082943  0  3.996572  0
C  C51  1  0.18036130  0.34424674  0.38915052  1  0  0.073264  0  3.7781  0  0  0.085271  0  4.010197  0  0  0.08871  0  4.030505  0  0.009848  0  0.003771  0.083037  0  3.99647  0
C  C52  1  0.53306562  0.12852299  0.23737091  1  0  -0.053189  0  3.444001  0  0  -0.035116  0  3.787389  0  0  -0.030339  0  3.793847  0  0.75201  0  -0.031948  -0.038433  0  3.782906  0
C  C53  1  0.46693627  0.37148014  0.73737091  1  0  -0.053314  0  3.444127  0  0  -0.035236  0  3.787509  0  0  -0.030459  0  3.793969  0  0.751689  0  -0.032024  -0.038553  0  3.783024  0
C  C54  1  0.46692484  0.87147113  0.76262784  1  0  -0.053146  0  3.444088  0  0  -0.035045  0  3.787429  0  0  -0.03027  0  3.793892  0  0.752082  0  -0.031941  -0.038362  0  3.782944  0
C  C55  1  0.53306601  0.62852248  0.26262847  1  0  -0.053296  0  3.444078  0  0  -0.035219  0  3.787457  0  0  -0.030444  0  3.793919  0  0.751691  0  -0.032007  -0.038535  0  3.782971  0
C  C56  1  0.03290833  0.92473392  0.32157401  1  0  0.122316  0  3.704382  0  0  0.095848  0  3.948302  0  0  0.102262  0  3.968482  0  0.466728  0  0.042188  0.091703  0  3.934529  0
C  C57  1  0.96709085  0.57526455  0.82157401  1  0  0.122387  0  3.704316  0  0  0.09591  0  3.948238  0  0  0.102324  0  3.968415  0  0.466741  0  0.042211  0.091765  0  3.934465  0
C  C58  1  0.96709199  0.07526627  0.67842537  1  0  0.122275  0  3.704429  0  0  0.095815  0  3.948356  0  0  0.102229  0  3.968535  0  0.466753  0  0.042182  0.091671  0  3.934581  0
C  C59  1  0.03290904  0.42473443  0.17842599  1  0  0.122318  0  3.704344  0  0  0.095861  0  3.94825  0  0  0.102276  0  3.968428  0  0.466752  0  0.042185  0.091717  0  3.934476  0
C  C60  1  0.15439979  0.86924396  0.02630339  1  0  -0.151409  0  3.720966  0  0  -0.170861  0  3.969214  0  0  -0.177583  0  3.990278  0  -0.020649  0  -0.085282  -0.166487  0  3.955039  0
C  C61  1  0.84559981  0.63075572  0.52630339  1  0  -0.151294  0  3.720887  0  0  -0.170748  0  3.969116  0  0  -0.177469  0  3.990178  0  -0.020665  0  -0.085246  -0.166374  0  3.954941  0
C  C62  1  0.84560163  0.13075623  0.97369848  1  0  -0.151355  0  3.72101  0  0  -0.170818  0  3.969247  0  0  -0.177539  0  3.990315  0  -0.020684  0  -0.085269  -0.166444  0  3.955074  0
C  C63  1  0.15440007  0.36924326  0.47369723  1  0  -0.151416  0  3.721036  0  0  -0.170886  0  3.969267  0  0  -0.177607  0  3.990331  0  -0.020643  0  -0.085314  -0.166511  0  3.95509  0
C  C64  1  0.08423625  0.87967950  0.17721397  1  0  0.091756  0  3.762624  0  0  0.103044  0  3.993811  0  0  0.107628  0  4.013987  0  -0.01737  0  0.009547  0.100068  0  3.980191  0
C  C65  1  0.91576225  0.62032018  0.67721397  1  0  0.091694  0  3.762591  0  0  0.102957  0  3.993808  0  0  0.107543  0  4.013981  0  -0.017365  0  0.009518  0.099983  0  3.980187  0
C  C66  1  0.91576321  0.12031826  0.82278665  1  0  0.091647  0  3.762652  0  0  0.102909  0  3.993871  0  0  0.107492  0  4.01405  0  -0.01735  0  0.009503  0.099933  0  3.980252  0
C  C67  1  0.08423849  0.37968123  0.32278603  1  0  0.09172  0  3.762584  0  0  0.102962  0  3.993805  0  0  0.107548  0  4.013979  0  -0.017349  0  0.009505  0.099986  0  3.980186  0
C  C68  1  0.12722581  0.88949120  0.26191999  1  0  -0.148616  0  3.687574  0  0  -0.163067  0  3.927361  0  0  -0.171683  0  3.950275  0  -0.033733  0  -0.081797  -0.157505  0  3.912081  0
C  C69  1  0.87277422  0.61050970  0.76192062  1  0  -0.148592  0  3.687505  0  0  -0.163028  0  3.927278  0  0  -0.171644  0  3.95019  0  -0.033756  0  -0.081779  -0.157467  0  3.911999  0
C  C70  1  0.87277163  0.11051021  0.73807876  1  0  -0.148496  0  3.687452  0  0  -0.162929  0  3.927219  0  0  -0.171544  0  3.950132  0  -0.033576  0  -0.081749  -0.157369  0  3.911942  0
C  C71  1  0.12722873  0.38949171  0.23808001  1  0  -0.148564  0  3.687473  0  0  -0.162985  0  3.927289  0  0  -0.171601  0  3.950202  0  -0.033804  0  -0.08177  -0.157425  0  3.91201  0
C  C72  1  0.94418936  0.90566763  0.15795968  1  0  -0.166911  0  3.719196  0  0  -0.183197  0  3.967617  0  0  -0.190294  0  3.986954  0  0.025305  0  -0.089364  -0.178748  0  3.954845  0
C  C73  1  0.05580871  0.59433084  0.65795968  1  0  -0.16692  0  3.7192  0  0  -0.183208  0  3.967635  0  0  -0.190305  0  3.986971  0  0.024873  0  -0.089357  -0.178755  0  3.954859  0
C  C74  1  0.05580900  0.09433014  0.84204032  1  0  -0.166866  0  3.719103  0  0  -0.183123  0  3.967523  0  0  -0.190222  0  3.986862  0  0.025303  0  -0.089349  -0.178672  0  3.95475  0
C  C75  1  0.94419160  0.40566935  0.34204095  1  0  -0.166961  0  3.719306  0  0  -0.183247  0  3.967754  0  0  -0.190345  0  3.987091  0  0.025294  0  -0.089384  -0.178798  0  3.954983  0
C  C76  1  0.38855135  0.75522854  0.06306392  1  0  0.1371  0  3.68886  0  0  0.111829  0  3.935654  0  0  0.116977  0  3.955254  0  0.535092  0  0.046102  0.10853  0  3.922219  0
C  C77  1  0.61144825  0.74477114  0.56306329  1  0  0.137137  0  3.688847  0  0  0.111856  0  3.935643  0  0  0.117005  0  3.955243  0  0.535136  0  0.046109  0.108555  0  3.922211  0
C  C78  1  0.61144896  0.24477166  0.93693671  1  0  0.13705  0  3.688876  0  0  0.111768  0  3.935663  0  0  0.116917  0  3.955261  0  0.535096  0  0.046092  0.108469  0  3.922234  0
C  C79  1  0.38855274  0.25522783  0.43693733  1  0  0.137059  0  3.688799  0  0  0.111784  0  3.935601  0  0  0.116933  0  3.955201  0  0.535125  0  0.046046  0.108482  0  3.922173  0
C  C80  1  0.24784558  0.83743242  0.96521807  1  0  0.113319  0  3.750531  0  0  0.087879  0  4.004666  0  0  0.093371  0  4.022704  0  0.4838  0  0.036169  0.084298  0  3.992386  0
C  C81  1  0.75215470  0.66256605  0.46521807  1  0  0.113282  0  3.750465  0  0  0.087832  0  4.004611  0  0  0.093323  0  4.022647  0  0.483792  0  0.036154  0.084252  0  3.99233  0
C  C82  1  0.75215254  0.16256777  0.03478068  1  0  0.113337  0  3.750485  0  0  0.087901  0  4.00462  0  0  0.093391  0  4.022658  0  0.48382  0  0.036169  0.084321  0  3.992339  0
C  C83  1  0.24784586  0.33743172  0.53478318  1  0  0.113387  0  3.75047  0  0  0.087947  0  4.004613  0  0  0.093438  0  4.022649  0  0.483779  0  0.036229  0.084367  0  3.992331  0
C  C84  1  0.85743592  0.94186433  0.22101672  1  0  0.135712  0  3.708609  0  0  0.105553  0  3.954293  0  0  0.112336  0  3.973743  0  0.476834  0  0.040872  0.101166  0  3.941084  0
C  C85  1  0.14256105  0.55813414  0.72101672  1  0  0.135754  0  3.708611  0  0  0.105588  0  3.954289  0  0  0.112371  0  3.973736  0  0.477268  0  0.040892  0.101201  0  3.941081  0
C  C86  1  0.14256397  0.05813465  0.77898328  1  0  0.135703  0  3.708495  0  0  0.105543  0  3.954182  0  0  0.112329  0  3.973633  0  0.476866  0  0.040869  0.101155  0  3.940973  0
C  C87  1  0.85743798  0.44186241  0.27898265  1  0  0.135751  0  3.708636  0  0  0.105605  0  3.95433  0  0  0.112388  0  3.973778  0  0.476867  0  0.040868  0.101218  0  3.941122  0
N  N88  1  0.36315619  0.78062558  0.98243629  1  0  -0.313838  0  3.219681  0  0  -0.252522  0  3.495892  0  0  -0.266113  0  3.508953  0  -1.208892  0  -0.327821  -0.243216  0  3.48686  0
N  N89  1  0.63684408  0.71937289  0.48243567  1  0  -0.31389  0  3.219631  0  0  -0.252572  0  3.495853  0  0  -0.266163  0  3.508916  0  -1.208887  0  -0.327846  -0.243267  0  3.486822  0
N  N90  1  0.63684412  0.21937461  0.01756371  1  0  -0.313809  0  3.219707  0  0  -0.252493  0  3.495919  0  0  -0.266083  0  3.508979  0  -1.208944  0  -0.327811  -0.243189  0  3.486887  0
N  N91  1  0.36315648  0.28062488  0.51756496  1  0  -0.313895  0  3.219612  0  0  -0.25258  0  3.49583  0  0  -0.266171  0  3.508891  0  -1.208931  0  -0.327833  -0.243275  0  3.486798  0
N  N92  1  0.58695034  0.07500897  0.29142025  1  0  -0.442292  0  3.109749  0  0  -0.370979  0  3.401472  0  0  -0.389431  0  3.41358  0  -1.353149  0  -0.387562  -0.358644  0  3.39319  0
N  N93  1  0.41305223  0.42499295  0.79142088  1  0  -0.442178  0  3.109906  0  0  -0.370865  0  3.40163  0  0  -0.389317  0  3.413738  0  -1.352836  0  -0.387489  -0.358532  0  3.393347  0
N  N94  1  0.41304692  0.92498880  0.70857662  1  0  -0.442339  0  3.110017  0  0  -0.371045  0  3.401769  0  0  -0.389497  0  3.413874  0  -1.35322  0  -0.387564  -0.35871  0  3.393488  0
N  N95  1  0.58694987  0.57500603  0.20857975  1  0  -0.442179  0  3.109884  0  0  -0.370859  0  3.401606  0  0  -0.389309  0  3.413716  0  -1.352851  0  -0.387504  -0.358525  0  3.393323  0
N  N96  1  0.90009836  0.95229745  0.30200421  1  0  -0.308031  0  3.317744  0  0  -0.228203  0  3.601292  0  0  -0.24631  0  3.617348  0  -1.211275  0  -0.342918  -0.215997  0  3.590087  0
N  N97  1  0.09990082  0.54770102  0.80200421  1  0  -0.308135  0  3.317769  0  0  -0.228296  0  3.601315  0  0  -0.246403  0  3.617375  0  -1.211287  0  -0.342968  -0.21609  0  3.590112  0
N  N98  1  0.09990172  0.04770517  0.69799516  1  0  -0.308018  0  3.317727  0  0  -0.228213  0  3.601285  0  0  -0.246321  0  3.617344  0  -1.211268  0  -0.34289  -0.216006  0  3.590079  0
N  N99  1  0.90009821  0.45229553  0.19799579  1  0  -0.308076  0  3.317745  0  0  -0.228272  0  3.601306  0  0  -0.246379  0  3.617361  0  -1.211275  0  -0.342928  -0.216067  0  3.590101  0
N  N100  1  0.25965743  0.35837320  0.00657491  1  0  -0.439993  0  3.237761  0  0  -0.362144  0  3.552335  0  0  -0.382365  0  3.563244  0  -1.368048  0  -0.414075  -0.348684  0  3.544815  0
N  N101  1  0.74033987  0.14162629  0.50657491  1  0  -0.439995  0  3.237849  0  0  -0.362147  0  3.55243  0  0  -0.382367  0  3.56334  0  -1.368014  0  -0.414067  -0.348686  0  3.544909  0
N  N102  1  0.74034265  0.64162942  0.99342821  1  0  -0.440005  0  3.237807  0  0  -0.362154  0  3.552382  0  0  -0.382375  0  3.563291  0  -1.36797  0  -0.414088  -0.348695  0  3.544863  0
N  N103  1  0.25965451  0.85837269  0.49342446  1  0  -0.440008  0  3.237869  0  0  -0.362157  0  3.552442  0  0  -0.382377  0  3.563354  0  -1.367884  0  -0.414097  -0.348699  0  3.544921  0
