# generated using pymatgen
data_ZnH6C9N5Cl
_symmetry_space_group_name_H-M   'P 1'
_cell_length_a   8.91517759
_cell_length_b   11.18142732
_cell_length_c   11.31912246
_cell_angle_alpha   95.10684491
_cell_angle_beta   108.19473349
_cell_angle_gamma   92.03461131
_symmetry_Int_Tables_number   1
_chemical_formula_structural   ZnH6C9N5Cl
_chemical_formula_sum   'Zn4 H24 C36 N20 Cl4'
_cell_volume   1065.27732281
_cell_formula_units_Z   4
loop_
 _symmetry_equiv_pos_site_id
 _symmetry_equiv_pos_as_xyz
  1  'x, y, z'
loop_
 _atom_site_type_symbol
 _atom_site_label
 _atom_site_symmetry_multiplicity
 _atom_site_fract_x
 _atom_site_fract_y
 _atom_site_fract_z
 _atom_site_occupancy
 _atom_site_hle17_bader_spin_density
 _atom_site_hle17_ddec_charge
 _atom_site_hle17_ddec_spin_density
 _atom_site_hle17_ddec_sum_bond_order
 _atom_site_hle17_magmom
 _atom_site_hse06_10hf_bader_spin_density
 _atom_site_hse06_10hf_ddec_charge
 _atom_site_hse06_10hf_ddec_spin_density
 _atom_site_hse06_10hf_ddec_sum_bond_order
 _atom_site_hse06_10hf_magmom
 _atom_site_hse06_bader_spin_density
 _atom_site_hse06_ddec_charge
 _atom_site_hse06_ddec_spin_density
 _atom_site_hse06_ddec_sum_bond_order
 _atom_site_hse06_magmom
 _atom_site_pbe_bader_spin_density
 _atom_site_pbe_cm5_charge
 _atom_site_pbe_ddec_charge
 _atom_site_pbe_ddec_spin_density
 _atom_site_pbe_ddec_sum_bond_order
 _atom_site_pbe_magmom
Zn  Zn0  1  0.31037389  0.80539591  0.14859326  1  0  0.844843  0  2.077898  0  0  0.649925  0  2.569306  0  0  0.688943  0  2.524912  0  0  0.652622  0.623192  0  2.599681  0
Zn  Zn1  1  0.68962678  0.19460508  0.85140596  1  0  0.844838  0  2.077914  0  0  0.649919  0  2.569325  0  0  0.688938  0  2.524925  0  0  0.652624  0.623187  0  2.599705  0
Zn  Zn2  1  0.32992382  0.31071793  0.34345413  1  0  0.811726  0  2.117179  0  0  0.610617  0  2.61114  0  0  0.648897  0  2.566711  0  0  0.661033  0.584368  0  2.641664  0
Zn  Zn3  1  0.67007566  0.68928307  0.65654568  1  0  0.811721  0  2.117183  0  0  0.610644  0  2.611118  0  0  0.648918  0  2.566704  0  0  0.661034  0.58439  0  2.641641  0
H  H4  1  0.06474767  0.87721056  0.89630929  1  0  0.097492  0  0.945568  0  0  0.106954  0  1.009516  0  0  0.109673  0  1.00826  0  0  0.100015  0.104913  0  1.010464  0
H  H5  1  0.93525289  0.12278952  0.10369071  1  0  0.097511  0  0.945531  0  0  0.106972  0  1.009486  0  0  0.10969  0  1.008226  0  0  0.100021  0.104923  0  1.010444  0
H  H6  1  0.00568410  0.83354910  0.66802245  1  0  0.090536  0  0.980004  0  0  0.092819  0  1.056198  0  0  0.096356  0  1.05359  0  0  0.092099  0.090317  0  1.058156  0
H  H7  1  0.99431873  0.16645007  0.33197892  1  0  0.090566  0  0.979943  0  0  0.092843  0  1.056148  0  0  0.096379  0  1.053542  0  0  0.092104  0.090347  0  1.058099  0
H  H8  1  0.14107745  0.95818342  0.55381595  1  0  0.095656  0  0.950436  0  0  0.107516  0  1.01092  0  0  0.110153  0  1.009721  0  0  0.103167  0.105688  0  1.011438  0
H  H9  1  0.85892539  0.04181574  0.44618454  1  0  0.095648  0  0.95044  0  0  0.10751  0  1.010921  0  0  0.110148  0  1.00972  0  0  0.103167  0.105686  0  1.011435  0
H  H10  1  0.39716837  0.16886522  0.90207467  1  0  0.096658  0  0.986277  0  0  0.101998  0  1.061889  0  0  0.105571  0  1.059084  0  0  0.093631  0.099482  0  1.063938  0
H  H11  1  0.60283456  0.83113486  0.09792680  1  0  0.096683  0  0.986223  0  0  0.101986  0  1.061893  0  0  0.105581  0  1.059066  0  0  0.093626  0.099476  0  1.063937  0
H  H12  1  0.19540050  0.82100662  0.37316008  1  0  0.080918  0  0.93389  0  0  0.088649  0  0.998202  0  0  0.091399  0  0.995217  0  0  0.119945  0.086616  0  1.000413  0
H  H13  1  0.80459997  0.17899257  0.62683983  1  0  0.080909  0  0.933913  0  0  0.088639  0  0.998226  0  0  0.09139  0  0.995241  0  0  0.119941  0.08661  0  1.000439  0
H  H14  1  0.97836268  0.72124806  0.43299360  1  0  0.11655  0  0.942927  0  0  0.128008  0  1.000689  0  0  0.130978  0  1.00024  0  0  0.112923  0.125858  0  1.001223  0
H  H15  1  0.02163779  0.27875113  0.56700719  1  0  0.11654  0  0.943008  0  0  0.127998  0  1.00077  0  0  0.130969  0  1.00032  0  0  0.112923  0.125846  0  1.001309  0
H  H16  1  0.79901055  0.54797359  0.05478164  1  0  0.11103  0  0.958916  0  0  0.120138  0  1.022495  0  0  0.123054  0  1.021646  0  0  0.105461  0.117963  0  1.023352  0
H  H17  1  0.20098992  0.45202559  0.94521738  1  0  0.111042  0  0.958932  0  0  0.120151  0  1.022511  0  0  0.123067  0  1.02166  0  0  0.105483  0.117972  0  1.02337  0
H  H18  1  0.02200457  0.65569122  0.00927063  1  0  0.082663  0  0.955082  0  0  0.086846  0  1.026634  0  0  0.08958  0  1.024146  0  0  0.110043  0.084885  0  1.028388  0
H  H19  1  0.97799383  0.34431069  0.99072898  1  0  0.082646  0  0.955071  0  0  0.086842  0  1.026614  0  0  0.089576  0  1.024126  0  0  0.110044  0.084877  0  1.028368  0
H  H20  1  0.56226968  0.57703944  0.10182712  1  0  0.110347  0  0.973976  0  0  0.118661  0  1.038853  0  0  0.121721  0  1.037998  0  0  0.09981  0.11642  0  1.039627  0
H  H21  1  0.43773080  0.42295975  0.89817191  1  0  0.110375  0  0.973939  0  0  0.11868  0  1.038816  0  0  0.121741  0  1.03796  0  0  0.099821  0.116439  0  1.03959  0
H  H22  1  0.35925692  0.45234916  0.15228324  1  0  0.078241  0  0.943314  0  0  0.085972  0  1.011924  0  0  0.088693  0  1.008935  0  0  0.115243  0.083879  0  1.014298  0
H  H23  1  0.64074239  0.54765003  0.84771461  1  0  0.078269  0  0.943317  0  0  0.086008  0  1.011915  0  0  0.08873  0  1.008924  0  0  0.115249  0.083913  0  1.014295  0
H  H24  1  0.88589750  0.52380464  0.46530654  1  0  0.105809  0  0.977983  0  0  0.114299  0  1.044299  0  0  0.117582  0  1.042726  0  0  0.101746  0.111937  0  1.045562  0
H  H25  1  0.11410052  0.47619367  0.53469268  1  0  0.105814  0  0.978019  0  0  0.114311  0  1.044329  0  0  0.117593  0  1.042758  0  0  0.101745  0.111949  0  1.045593  0
H  H26  1  0.67143479  0.39777593  0.49889552  1  0  0.076842  0  0.965348  0  0  0.07771  0  1.043456  0  0  0.080485  0  1.041015  0  0  0.11173  0.075532  0  1.045437  0
H  H27  1  0.32856224  0.60222419  0.50110361  1  0  0.076875  0  0.965373  0  0  0.07775  0  1.043456  0  0  0.080526  0  1.041012  0  0  0.111742  0.075573  0  1.045434  0
C  C28  1  0.23584038  0.02570230  0.91321884  1  0  0.005718  0  3.798411  0  0  0.028091  0  4.029612  0  0  0.025313  0  4.052605  0  0  -0.006624  0.029686  0  4.014311  0
C  C29  1  0.76416136  0.97429778  0.08678234  1  0  0.005573  0  3.798359  0  0  0.027956  0  4.029566  0  0  0.025177  0  4.052562  0  0  -0.006698  0.029555  0  4.014266  0
C  C30  1  0.12593305  0.93098494  0.84756924  1  0  -0.069186  0  3.707285  0  0  -0.098169  0  3.957999  0  0  -0.0982  0  3.977751  0  0  -0.082339  -0.096886  0  3.943701  0
C  C31  1  0.87406860  0.06901424  0.15243184  1  0  -0.069157  0  3.707276  0  0  -0.098149  0  3.957986  0  0  -0.098177  0  3.977732  0  0  -0.082324  -0.09686  0  3.943698  0
C  C32  1  0.09240914  0.90645435  0.71853165  1  0  -0.053505  0  3.758943  0  0  -0.065703  0  4.012988  0  0  -0.068532  0  4.034171  0  0  -0.087977  -0.064117  0  3.998064  0
C  C33  1  0.90759370  0.09354481  0.28146796  1  0  -0.053566  0  3.758995  0  0  -0.065742  0  4.013022  0  0  -0.068573  0  4.034207  0  0  -0.087983  -0.064157  0  3.998095  0
C  C34  1  0.16821486  0.97555446  0.65488024  1  0  -0.085779  0  3.710214  0  0  -0.110478  0  3.952946  0  0  -0.111474  0  3.973427  0  0  -0.082896  -0.108476  0  3.937907  0
C  C35  1  0.83178916  0.02444470  0.34512142  1  0  -0.085706  0  3.710193  0  0  -0.110394  0  3.952938  0  0  -0.111388  0  3.973416  0  0  -0.082875  -0.108392  0  3.937895  0
C  C36  1  0.28016497  0.06965048  0.72034261  1  0  -0.000293  0  3.820031  0  0  0.020299  0  4.055154  0  0  0.017269  0  4.079127  0  0  -0.010264  0.022176  0  4.039065  0
C  C37  1  0.71983786  0.93034868  0.27965700  1  0  -0.000315  0  3.820121  0  0  0.020222  0  4.055303  0  0  0.017188  0  4.079282  0  0  -0.010269  0.022108  0  4.039209  0
C  C38  1  0.31332652  0.09462547  0.84951646  1  0  -0.113993  0  3.686739  0  0  -0.145972  0  3.930128  0  0  -0.147406  0  3.950361  0  0  -0.084538  -0.145841  0  3.917514  0
C  C39  1  0.68667631  0.90537370  0.15048492  1  0  -0.113948  0  3.686712  0  0  -0.145901  0  3.93014  0  0  -0.147354  0  3.950358  0  0  -0.084519  -0.145781  0  3.917532  0
C  C40  1  0.26867709  0.05917987  0.04725834  1  0  0.287392  0  3.770977  0  0  0.265195  0  4.032511  0  0  0.275539  0  4.049262  0  0  0.224314  0.258304  0  4.021209  0
C  C41  1  0.73132366  0.94082203  0.95274363  1  0  0.287444  0  3.770878  0  0  0.26526  0  4.032403  0  0  0.275603  0  4.049154  0  0  0.224357  0.258377  0  4.021094  0
C  C42  1  0.35364437  0.14487324  0.65172290  1  0  0.282037  0  3.770372  0  0  0.255508  0  4.039521  0  0  0.266202  0  4.055535  0  0  0.223991  0.248276  0  4.028799  0
C  C43  1  0.64635737  0.85512685  0.34827917  1  0  0.281982  0  3.770399  0  0  0.255498  0  4.039538  0  0  0.266193  0  4.055551  0  0  0.224022  0.248261  0  4.028819  0
C  C44  1  0.10479915  0.75972724  0.30573881  1  0  0.138348  0  3.694117  0  0  0.104235  0  3.948076  0  0  0.111415  0  3.96618  0  0  0.050963  0.099583  0  3.935891  0
C  C45  1  0.89520015  0.24027196  0.69425992  1  0  0.138315  0  3.694176  0  0  0.104207  0  3.948127  0  0  0.111388  0  3.966232  0  0  0.050956  0.099544  0  3.935956  0
C  C46  1  0.98478244  0.70332035  0.33852064  1  0  -0.146233  0  3.685967  0  0  -0.165134  0  3.933151  0  0  -0.173143  0  3.955181  0  0  -0.076107  -0.159951  0  3.918364  0
C  C47  1  0.01521686  0.29667884  0.66147721  1  0  -0.146257  0  3.686023  0  0  -0.165162  0  3.933217  0  0  -0.173171  0  3.955247  0  0  -0.07612  -0.159972  0  3.918428  0
C  C48  1  0.87104422  0.62534395  0.24802673  1  0  0.112294  0  3.727944  0  0  0.12259  0  3.958807  0  0  0.12713  0  3.979165  0  0  0.019181  0.119636  0  3.944779  0
C  C49  1  0.12895634  0.37465614  0.75197327  1  0  0.112372  0  3.727777  0  0  0.122663  0  3.95868  0  0  0.127203  0  3.979037  0  0  0.019204  0.119711  0  3.944646  0
C  C50  1  0.88212923  0.61024250  0.12691415  1  0  -0.123758  0  3.663723  0  0  -0.143295  0  3.910796  0  0  -0.150323  0  3.930552  0  0  -0.071175  -0.138554  0  3.897428  0
C  C51  1  0.11787252  0.38975759  0.87308703  1  0  -0.123847  0  3.663733  0  0  -0.143386  0  3.910837  0  0  -0.150414  0  3.930592  0  0  -0.071219  -0.138644  0  3.897463  0
C  C52  1  0.00693961  0.66822916  0.10157374  1  0  0.138681  0  3.683535  0  0  0.106187  0  3.932719  0  0  0.113853  0  3.949645  0  0  0.051878  0.1012  0  3.92124  0
C  C53  1  0.99305860  0.33177094  0.89842391  1  0  0.138688  0  3.683591  0  0  0.106178  0  3.932791  0  0  0.113844  0  3.949717  0  0  0.051852  0.101204  0  3.921296  0
C  C54  1  0.74506865  0.55736338  0.27753541  1  0  0.110106  0  3.717787  0  0  0.120315  0  3.948572  0  0  0.124557  0  3.969026  0  0  0.018559  0.117656  0  3.934571  0
C  C55  1  0.25492956  0.44263672  0.72246313  1  0  0.110131  0  3.717654  0  0  0.120313  0  3.948484  0  0  0.124555  0  3.968938  0  0  0.018552  0.117652  0  3.934486  0
C  C56  1  0.59370898  0.53696759  0.18982704  1  0  -0.135248  0  3.690309  0  0  -0.155193  0  3.939321  0  0  -0.162122  0  3.959887  0  0  -0.078609  -0.150779  0  3.925657  0
C  C57  1  0.40629041  0.46303250  0.81017091  1  0  -0.135275  0  3.690344  0  0  -0.155171  0  3.939321  0  0  -0.1621  0  3.959889  0  0  -0.078603  -0.150757  0  3.925661  0
C  C58  1  0.47896396  0.46842885  0.21750421  1  0  0.145078  0  3.681816  0  0  0.108075  0  3.937222  0  0  0.115616  0  3.953722  0  0  0.049629  0.103176  0  3.926113  0
C  C59  1  0.52103534  0.53157035  0.78249540  1  0  0.144981  0  3.681855  0  0  0.107995  0  3.937276  0  0  0.115534  0  3.953774  0  0  0.049596  0.103087  0  3.926165  0
C  C60  1  0.77263221  0.50837425  0.39161386  1  0  -0.13623  0  3.691402  0  0  -0.157678  0  3.939273  0  0  -0.16459  0  3.960066  0  0  -0.076682  -0.153287  0  3.925408  0
C  C61  1  0.22736590  0.49162495  0.60838458  1  0  -0.136224  0  3.691308  0  0  -0.157685  0  3.939194  0  0  -0.164597  0  3.959987  0  0  -0.076648  -0.153292  0  3.925332  0
C  C62  1  0.65301305  0.43838848  0.41175945  1  0  0.125575  0  3.691097  0  0  0.096664  0  3.93684  0  0  0.103023  0  3.955361  0  0  0.045611  0.092572  0  3.924736  0
C  C63  1  0.34698643  0.56161252  0.58824036  1  0  0.125534  0  3.691169  0  0  0.096666  0  3.936935  0  0  0.103026  0  3.955453  0  0  0.045594  0.092564  0  3.924826  0
N  N64  1  0.28928572  0.98318656  0.13740006  1  0  -0.325149  0  3.238898  0  0  -0.252518  0  3.543275  0  0  -0.270055  0  3.554734  0  0  -0.238577  -0.240898  0  3.535713  0
N  N65  1  0.71071494  0.01681443  0.86260093  1  0  -0.325184  0  3.238869  0  0  -0.252588  0  3.543286  0  0  -0.270125  0  3.554742  0  0  -0.238599  -0.240978  0  3.535736  0
N  N66  1  0.31764614  0.05111389  0.24679242  1  0  -0.0674  0  2.909695  0  0  -0.077389  0  3.188498  0  0  -0.073465  0  3.201128  0  0  -0.100177  -0.079882  0  3.180225  0
N  N67  1  0.68235580  0.94888798  0.75320807  1  0  -0.067333  0  2.909665  0  0  -0.077313  0  3.188467  0  0  -0.073388  0  3.201098  0  0  -0.100158  -0.079805  0  3.180198  0
N  N68  1  0.31358997  0.16370544  0.22142223  1  0  -0.099128  0  3.313675  0  0  -0.03063  0  3.623824  0  0  -0.039254  0  3.635396  0  0  -0.118314  -0.025008  0  3.616436  0
N  N69  1  0.68641187  0.83629554  0.77857816  1  0  -0.0992  0  3.313796  0  0  -0.030687  0  3.623935  0  0  -0.039311  0  3.635506  0  0  -0.11832  -0.025062  0  3.616549  0
N  N70  1  0.28372634  0.17331745  0.09901616  1  0  -0.283425  0  2.88752  0  0  -0.271498  0  3.155573  0  0  -0.280261  0  3.16999  0  0  -0.214638  -0.265703  0  3.146023  0
N  N71  1  0.71627532  0.82668173  0.90098404  1  0  -0.283411  0  2.887434  0  0  -0.271494  0  3.155484  0  0  -0.280256  0  3.169901  0  0  -0.214646  -0.265701  0  3.145932  0
N  N72  1  0.50180733  0.20021911  0.69373132  1  0  -0.312415  0  3.217146  0  0  -0.240974  0  3.520268  0  0  -0.257544  0  3.531261  0  0  -0.229621  -0.229838  0  3.512778  0
N  N73  1  0.49819333  0.79978188  0.30626878  1  0  -0.31232  0  3.217009  0  0  -0.240907  0  3.520141  0  0  -0.257477  0  3.531136  0  0  -0.229596  -0.229765  0  3.512642  0
N  N74  1  0.51849067  0.26307053  0.60274661  1  0  -0.075367  0  2.935754  0  0  -0.07638  0  3.215881  0  0  -0.073928  0  3.229392  0  0  -0.090749  -0.077657  0  3.206771  0
N  N75  1  0.48151018  0.73693226  0.39725458  1  0  -0.075392  0  2.935643  0  0  -0.076405  0  3.215786  0  0  -0.073954  0  3.229294  0  0  -0.090772  -0.077681  0  3.206673  0
N  N76  1  0.38411391  0.24524334  0.50997719  1  0  -0.101915  0  3.325965  0  0  -0.033948  0  3.641128  0  0  -0.042165  0  3.652247  0  0  -0.11879  -0.02845  0  3.633918  0
N  N77  1  0.61588566  0.75475857  0.49002360  1  0  -0.101971  0  3.325947  0  0  -0.034001  0  3.641103  0  0  -0.042217  0  3.652219  0  0  -0.118788  -0.028504  0  3.633898  0
N  N78  1  0.27858710  0.17261997  0.53609437  1  0  -0.280342  0  2.901468  0  0  -0.267949  0  3.178124  0  0  -0.276358  0  3.191001  0  0  -0.20941  -0.262521  0  3.169654  0
N  N79  1  0.72141120  0.82738104  0.46390515  1  0  -0.280321  0  2.901562  0  0  -0.267944  0  3.178229  0  0  -0.276351  0  3.191105  0  0  -0.209459  -0.262517  0  3.169766  0
N  N80  1  0.11776211  0.74079959  0.18996574  1  0  -0.318062  0  3.314443  0  0  -0.229627  0  3.587753  0  0  -0.24823  0  3.602676  0  0  -0.332843  -0.217164  0  3.577653  0
N  N81  1  0.88223728  0.25920051  0.81003397  1  0  -0.31797  0  3.314468  0  0  -0.229531  0  3.587771  0  0  -0.248134  0  3.602694  0  0  -0.332804  -0.217071  0  3.577673  0
N  N82  1  0.50832182  0.41801699  0.32561438  1  0  -0.312526  0  3.326373  0  0  -0.222377  0  3.598246  0  0  -0.240692  0  3.613322  0  0  -0.333961  -0.210142  0  3.588093  0
N  N83  1  0.49167639  0.58198312  0.67438416  1  0  -0.312461  0  3.326389  0  0  -0.222419  0  3.598354  0  0  -0.240736  0  3.613441  0  0  -0.333969  -0.210159  0  3.588175  0
Cl  Cl84  1  0.32669405  0.69712693  0.98027078  1  0  -0.546579  0  0.969293  0  0  -0.481244  0  1.247028  0  0  -0.497474  0  1.226663  0  0  -0.298795  -0.469271  0  1.260916  0
Cl  Cl85  1  0.67331043  0.30287672  0.01972872  1  0  -0.54659  0  0.969297  0  0  -0.48126  0  1.247026  0  0  -0.497493  0  1.226657  0  0  -0.298806  -0.469288  0  1.260913  0
Cl  Cl86  1  0.10552649  0.39996142  0.28372559  1  0  -0.558014  0  0.940029  0  0  -0.491106  0  1.21929  0  0  -0.507777  0  1.19985  0  0  -0.3205  -0.478891  0  1.232347  0
Cl  Cl87  1  0.89446897  0.60003512  0.71627639  1  0  -0.558001  0  0.940031  0  0  -0.491082  0  1.219263  0  0  -0.507752  0  1.199827  0  0  -0.320492  -0.478865  0  1.232321  0
