# generated using pymatgen
data_CoH10C11N2O5
_symmetry_space_group_name_H-M   'P 1'
_cell_length_a   11.34472093
_cell_length_b   11.34044549
_cell_length_c   24.68819867
_cell_angle_alpha   90.00101992
_cell_angle_beta   89.99674487
_cell_angle_gamma   90.00184577
_symmetry_Int_Tables_number   1
_chemical_formula_structural   CoH10C11N2O5
_chemical_formula_sum   'Co8 H80 C88 N16 O40'
_cell_volume   3176.24018052
_cell_formula_units_Z   8
loop_
 _symmetry_equiv_pos_site_id
 _symmetry_equiv_pos_as_xyz
  1  'x, y, z'
loop_
 _atom_site_type_symbol
 _atom_site_label
 _atom_site_symmetry_multiplicity
 _atom_site_fract_x
 _atom_site_fract_y
 _atom_site_fract_z
 _atom_site_occupancy
 _atom_site_pbe_bader_charge
 _atom_site_pbe_bader_spin_density
 _atom_site_pbe_cm5_charge
 _atom_site_pbe_ddec_charge
 _atom_site_pbe_ddec_spin_density
 _atom_site_pbe_ddec_sum_bond_order
 _atom_site_pbe_magmom
Co  Co0  1  0.40207963  0.59773943  0.12504153  1  1.294586  2.609951  0.636012  1.018812  2.797416  2.33397  2.595
Co  Co1  1  0.40254842  0.40182525  0.37508207  1  1.297655  2.611906  0.637547  1.021734  2.799244  2.331178  2.597
Co  Co2  1  0.59749850  0.40188358  0.62495074  1  1.296784  2.611409  0.63712  1.02106  2.798769  2.331698  2.596
Co  Co3  1  0.59768889  0.59799721  0.87496855  1  1.294984  2.60992  0.636359  1.019416  2.797465  2.334619  2.595
Co  Co4  1  0.29030116  0.50014604  0.24983056  1  1.391144  2.635782  0.679805  1.090631  2.834945  2.413125  2.623
Co  Co5  1  0.50000447  0.29016436  0.49999874  1  1.39084  2.636151  0.680449  1.090496  2.836343  2.420895  2.623
Co  Co6  1  0.70971015  0.50009299  0.75007707  1  1.390412  2.635729  0.679601  1.090804  2.834608  2.412953  2.623
Co  Co7  1  0.50006749  0.70967096  0.99988987  1  1.391117  2.635844  0.679954  1.090451  2.835191  2.415792  2.623
H  H8  1  0.44241404  0.44488841  0.94854397  1  0.506209  -0.000254  0.318818  0.298155  -0.00048  0.9597  0.0
H  H9  1  0.55507060  0.44250694  0.19864129  1  0.505402  -0.000251  0.318729  0.298241  -0.000484  0.959319  0.0
H  H10  1  0.55755852  0.55506921  0.44856841  1  0.507206  -0.000265  0.318833  0.298186  -0.000468  0.959745  0.0
H  H11  1  0.44492680  0.55756252  0.69851076  1  0.507189  -0.000241  0.318782  0.298616  -0.000506  0.959481  0.0
H  H12  1  0.44244486  0.55504557  0.55142553  1  0.507283  -0.000264  0.318792  0.298153  -0.000471  0.959709  0.0
H  H13  1  0.44495294  0.44250117  0.80140966  1  0.507803  -0.000243  0.319015  0.298843  -0.000496  0.959085  0.0
H  H14  1  0.55759636  0.44497576  0.05141505  1  0.508172  -0.00025  0.318917  0.298609  -0.000495  0.958738  0.0
H  H15  1  0.55502465  0.55758204  0.30151560  1  0.506972  -0.000242  0.318833  0.298816  -0.000509  0.958997  0.0
H  H16  1  0.19264387  0.51331482  0.06086345  1  0.531751  0.000139  0.310892  0.294245  -2.5e-05  0.987168  0.0
H  H17  1  0.48682259  0.19255402  0.31094665  1  0.529439  0.000103  0.310938  0.294181  -5.7e-05  0.987386  0.0
H  H18  1  0.80726483  0.48645909  0.56088454  1  0.532471  0.000189  0.311076  0.295154  1.5e-05  0.986741  0.0
H  H19  1  0.51327371  0.80737525  0.81084673  1  0.530593  0.00013  0.310926  0.294319  -3.4e-05  0.987594  0.0
H  H20  1  0.19271165  0.48643621  0.43911856  1  0.532803  0.000194  0.311102  0.295351  1.9e-05  0.98658  0.0
H  H21  1  0.51317440  0.19258395  0.68908163  1  0.530162  0.00011  0.311022  0.294324  -5.2e-05  0.98719  0.0
H  H22  1  0.80736610  0.51340817  0.93910625  1  0.531055  0.000169  0.311124  0.294898  -1e-06  0.986264  0.0
H  H23  1  0.48666816  0.80734405  0.18916584  1  0.531499  0.00016  0.311043  0.294699  -8e-06  0.986964  0.0
H  H24  1  0.41771755  0.25638749  0.05367549  1  0.082207  0.000284  0.097672  0.101165  8.5e-05  1.036318  0.0
H  H25  1  0.74364832  0.41771496  0.30370999  1  0.08337  0.000273  0.097378  0.100616  7.9e-05  1.036113  0.0
H  H26  1  0.58221321  0.74371506  0.55363159  1  0.08134  0.000304  0.097685  0.101158  9.7e-05  1.036527  0.0
H  H27  1  0.25633869  0.58226870  0.80361940  1  0.081219  0.000281  0.097569  0.101105  8.5e-05  1.036227  0.0
H  H28  1  0.41781387  0.74373234  0.44639019  1  0.08149  0.000307  0.097642  0.101123  9.9e-05  1.036255  0.0
H  H29  1  0.25633036  0.41771925  0.69631079  1  0.083048  0.000274  0.097457  0.100808  8.1e-05  1.036102  0.0
H  H30  1  0.58225593  0.25634071  0.94632090  1  0.082354  0.000294  0.097527  0.101019  9.2e-05  1.036422  0.0
H  H31  1  0.74367261  0.58227693  0.19635004  1  0.081777  0.000292  0.097593  0.101199  9.1e-05  1.036368  0.0
H  H32  1  0.43133267  0.04254549  0.02704473  1  0.107002  0.000454  0.104001  0.108571  0.000194  1.027184  0.0
H  H33  1  0.95747652  0.43138665  0.27707470  1  0.108147  0.000445  0.103868  0.108297  0.000186  1.027314  0.0
H  H34  1  0.56870188  0.95751456  0.52700776  1  0.106584  0.00046  0.103754  0.108243  0.000199  1.02747  0.0
H  H35  1  0.04252702  0.56867179  0.77700739  1  0.106054  0.00045  0.103885  0.108392  0.00019  1.027334  0.0
H  H36  1  0.43129595  0.95755184  0.47300602  1  0.105365  0.00046  0.103796  0.108316  0.000199  1.027518  0.0
H  H37  1  0.04250701  0.43137894  0.72293971  1  0.107875  0.000446  0.103921  0.108468  0.000187  1.027228  0.0
H  H38  1  0.56869651  0.04250638  0.97292605  1  0.108731  0.000453  0.103978  0.108482  0.000195  1.027304  0.0
H  H39  1  0.95743801  0.56867561  0.22296965  1  0.106504  0.000454  0.103987  0.10858  0.000193  1.027183  0.0
H  H40  1  0.31725866  0.94044714  0.18596219  1  0.080636  0.000357  0.105201  0.109901  0.000116  1.004874  0.0
H  H41  1  0.05947182  0.31731807  0.43598128  1  0.077185  0.000348  0.10512  0.109664  0.000106  1.005538  0.0
H  H42  1  0.68273325  0.05956274  0.68594177  1  0.080998  0.000376  0.105314  0.110071  0.000129  1.004504  0.0
H  H43  1  0.94054814  0.68272282  0.93592635  1  0.076742  0.000357  0.105093  0.109537  0.000113  1.005281  0.0
H  H44  1  0.31726121  0.05953189  0.31406844  1  0.081416  0.000378  0.105237  0.109843  0.00013  1.004822  0.0
H  H45  1  0.94051684  0.31729334  0.56403222  1  0.076873  0.00035  0.105165  0.10973  0.000107  1.005286  0.0
H  H46  1  0.68275008  0.94047422  0.81399515  1  0.076534  0.000372  0.10509  0.109709  0.000123  1.004781  0.0
H  H47  1  0.05949813  0.68272231  0.06405808  1  0.076975  0.000367  0.105238  0.109735  0.00012  1.005117  0.0
H  H48  1  0.29393227  0.15431148  0.21121512  1  0.126727  0.000279  0.106693  0.115259  9.5e-05  1.00011  0.0
H  H49  1  0.84566198  0.29390270  0.46125064  1  0.124986  0.000282  0.106767  0.115443  9.8e-05  0.99952  0.0
H  H50  1  0.70598512  0.84570733  0.71114776  1  0.090021  0.000284  0.106622  0.115309  9.6e-05  1.000062  0.0
H  H51  1  0.15434515  0.70606159  0.96117383  1  0.126231  0.000282  0.106723  0.115498  9.7e-05  1.000036  0.0
H  H52  1  0.29403114  0.84567121  0.28887606  1  0.090831  0.000286  0.106669  0.115346  9.8e-05  1.00007  0.0
H  H53  1  0.15431712  0.29389574  0.53876833  1  0.12576  0.000282  0.106695  0.115319  9.8e-05  0.999733  0.0
H  H54  1  0.70604674  0.15435595  0.78877559  1  0.126505  0.000281  0.106725  0.115362  9.6e-05  1.000234  0.0
H  H55  1  0.84571333  0.70604309  0.03880957  1  0.127512  0.000284  0.106691  0.115288  9.9e-05  1.000129  0.0
H  H56  1  0.28933059  0.26747660  0.94374296  1  0.055495  0.000672  0.109062  0.084782  0.000269  0.964184  0.0
H  H57  1  0.73242229  0.28940372  0.19380650  1  0.056042  0.00068  0.109048  0.084922  0.000273  0.963764  0.0
H  H58  1  0.71055618  0.73247643  0.44378914  1  0.055565  0.000668  0.109061  0.084997  0.000267  0.964116  0.0
H  H59  1  0.26748932  0.71065585  0.69374946  1  0.055998  0.000674  0.108953  0.084659  0.000271  0.964156  0.0
H  H60  1  0.28945908  0.73247803  0.55621027  1  0.055629  0.000668  0.109044  0.085052  0.000267  0.964056  0.0
H  H61  1  0.26756371  0.28939419  0.80621770  1  0.055997  0.000678  0.109089  0.084952  0.000272  0.963789  0.0
H  H62  1  0.71062914  0.26748265  0.05621545  1  0.055664  0.000668  0.109028  0.08493  0.000268  0.964186  0.0
H  H63  1  0.73251201  0.71065129  0.30626233  1  0.055836  0.00067  0.108958  0.084676  0.000269  0.96403  0.0
H  H64  1  0.24194266  0.40026627  0.91119374  1  0.045333  0.000319  0.102625  0.075355  0.000118  0.994429  0.0
H  H65  1  0.59969221  0.24198129  0.16124552  1  0.045836  0.000317  0.102414  0.075347  0.000117  0.99406  0.0
H  H66  1  0.75793228  0.59970663  0.41123559  1  0.046435  0.00034  0.102571  0.075558  0.000127  0.994145  0.0
H  H67  1  0.40023226  0.75808582  0.66118662  1  0.045394  0.000312  0.102514  0.075194  0.000112  0.994416  0.0
H  H68  1  0.24207518  0.59971064  0.58876194  1  0.046442  0.000343  0.102633  0.075585  0.000128  0.994137  0.0
H  H69  1  0.40028962  0.24196056  0.83877709  1  0.045829  0.000314  0.102621  0.075507  0.000114  0.994237  0.0
H  H70  1  0.75801430  0.40028307  0.08876007  1  0.046161  0.000322  0.102479  0.075358  0.000118  0.994044  0.0
H  H71  1  0.59976796  0.75806857  0.33881948  1  0.045445  0.000317  0.10258  0.075236  0.000114  0.994369  0.0
H  H72  1  0.08888768  0.40177298  0.97712481  1  0.065965  0.000722  0.105225  0.077227  0.000291  0.988124  0.0
H  H73  1  0.59820215  0.08884660  0.22716184  1  0.066223  0.000717  0.105303  0.077263  0.000289  0.988034  0.0
H  H74  1  0.91102052  0.59818576  0.47714809  1  0.066613  0.00073  0.105582  0.077678  0.000294  0.987974  0.0
H  H75  1  0.40173089  0.91118342  0.72711791  1  0.065622  0.000724  0.105264  0.077254  0.000292  0.988447  0.0
H  H76  1  0.08898248  0.59819282  0.52285349  1  0.066355  0.000731  0.105599  0.077659  0.000295  0.988066  0.0
H  H77  1  0.40177475  0.08884185  0.77285468  1  0.066023  0.000718  0.105269  0.077327  0.00029  0.988183  0.0
H  H78  1  0.91109666  0.40176478  0.02284643  1  0.065814  0.000727  0.105319  0.077274  0.000293  0.988088  0.0
H  H79  1  0.59826632  0.91117146  0.27288983  1  0.065903  0.000727  0.105314  0.077348  0.000294  0.988507  0.0
H  H80  1  0.16587985  0.30175137  0.02066237  1  0.049594  0.00019  0.104935  0.076528  4.8e-05  0.968455  0.0
H  H81  1  0.69820932  0.16586897  0.27069663  1  0.04904  0.000198  0.104876  0.076411  5.2e-05  0.968282  0.0
H  H82  1  0.83405235  0.69820350  0.52070188  1  0.048577  0.000199  0.104972  0.076824  5.2e-05  0.968246  0.0
H  H83  1  0.30176239  0.83412132  0.77066967  1  0.049628  0.000186  0.104943  0.076581  4.7e-05  0.968456  0.0
H  H84  1  0.16594241  0.69819809  0.47929969  1  0.048644  0.000201  0.104976  0.076818  5.3e-05  0.968316  0.0
H  H85  1  0.30177535  0.16587780  0.72932010  1  0.049513  0.000194  0.10489  0.076508  5e-05  0.968446  0.0
H  H86  1  0.83411978  0.30173693  0.97930037  1  0.049139  0.00019  0.104764  0.076316  4.8e-05  0.968266  0.0
H  H87  1  0.69824733  0.83412586  0.22933947  1  0.049685  0.000187  0.105006  0.07663  4.7e-05  0.968457  0.0
C  C88  1  0.35575447  0.21729966  0.13428470  1  -0.059035  0.007111  -0.020477  -0.032671  0.003541  3.972672  0.006
C  C89  1  0.78273451  0.35566670  0.38428903  1  -0.058777  0.007274  -0.020255  -0.033254  0.003657  3.972796  0.006
C  C90  1  0.64413455  0.78271699  0.63424193  1  -0.059627  0.007033  -0.01992  -0.031773  0.003492  3.971829  0.006
C  C91  1  0.21731743  0.64426193  0.88422912  1  -0.058578  0.007128  -0.020013  -0.032407  0.003554  3.971627  0.006
C  C92  1  0.35588056  0.78271235  0.36578381  1  -0.069642  0.007031  -0.019869  -0.031648  0.003489  3.972054  0.006
C  C93  1  0.21726420  0.35569478  0.61572356  1  -0.058593  0.007229  -0.020423  -0.033549  0.003627  3.972858  0.006
C  C94  1  0.64419924  0.21733283  0.86570004  1  -0.059453  0.007017  -0.02011  -0.031693  0.003477  3.972411  0.006
C  C95  1  0.78269323  0.64421445  0.11573192  1  -0.058918  0.007037  -0.020108  -0.032311  0.003496  3.971805  0.006
C  C96  1  0.39475420  0.18660030  0.08218873  1  -0.063938  -0.000157  -0.094839  -0.11257  -0.000804  3.999043  0.0
C  C97  1  0.81347513  0.39470168  0.33219669  1  -0.064467  -6.4e-05  -0.094518  -0.111569  -0.000709  3.997554  0.0
C  C98  1  0.60517478  0.81343459  0.58215614  1  -0.064282  -0.000149  -0.095149  -0.112976  -0.000803  3.99947  0.0
C  C99  1  0.18656916  0.60525224  0.83213848  1  -0.06439  -0.000118  -0.095006  -0.112663  -0.000767  3.998172  0.0
C  C100  1  0.39483163  0.81344913  0.41786621  1  -0.064601  -0.000135  -0.094981  -0.11259  -0.000788  3.999324  0.0
C  C101  1  0.18652219  0.39472553  0.66781418  1  -0.064571  -6.3e-05  -0.094482  -0.111622  -0.00071  3.997658  0.0
C  C102  1  0.60522232  0.18660428  0.91779050  1  -0.063888  -0.000158  -0.094797  -0.113049  -0.000809  3.999875  0.0
C  C103  1  0.81340498  0.60522367  0.16782305  1  -0.064196  -0.00012  -0.094772  -0.11266  -0.000772  3.999327  0.0
C  C104  1  0.40370539  0.06856775  0.06755038  1  -0.030576  0.000716  -0.088084  -0.101983  -4.1e-05  3.986084  0.001
C  C105  1  0.93149055  0.40374879  0.31758133  1  -0.030688  0.000854  -0.088122  -0.101731  9.1e-05  3.985744  0.001
C  C106  1  0.59633030  0.93145686  0.56750397  1  -0.029407  0.000613  -0.087717  -0.101552  -0.000136  3.986154  0.0
C  C107  1  0.06856614  0.59628127  0.81751437  1  -0.030006  0.000718  -0.08777  -0.101723  -3.4e-05  3.985242  0.001
C  C108  1  0.40365611  0.93146873  0.43251486  1  -0.029471  0.0006  -0.087808  -0.101849  -0.000148  3.985978  0.0
C  C109  1  0.06850883  0.40375442  0.68242922  1  -0.031193  0.000808  -0.088155  -0.101987  5.2e-05  3.985728  0.001
C  C110  1  0.59632991  0.06857026  0.93242871  1  -0.029574  0.000606  -0.088024  -0.101671  -0.00014  3.98548  0.0
C  C111  1  0.93139185  0.59628971  0.18246491  1  -0.03049  0.000609  -0.088074  -0.102087  -0.000134  3.985525  0.0
C  C112  1  0.37812256  0.97949349  0.10518652  1  0.077027  0.007265  -0.018029  -0.030749  0.003578  3.977061  0.006
C  C113  1  0.02049404  0.37823057  0.35523495  1  0.075724  0.007325  -0.018388  -0.031179  0.003634  3.977269  0.006
C  C114  1  0.62197546  0.02054054  0.60512687  1  0.078342  0.007317  -0.018264  -0.031307  0.003604  3.977702  0.006
C  C115  1  0.97954035  0.62185653  0.85516879  1  0.076135  0.00729  -0.018154  -0.030444  0.003596  3.976206  0.006
C  C116  1  0.37799219  0.02054128  0.39489113  1  0.078743  0.007332  -0.018529  -0.031595  0.003613  3.97739  0.006
C  C117  1  0.97951069  0.37821821  0.64477174  1  0.075615  0.007331  -0.018357  -0.031036  0.003632  3.977173  0.006
C  C118  1  0.62193944  0.97950064  0.89478693  1  0.07772  0.007277  -0.018253  -0.030763  0.003579  3.977073  0.006
C  C119  1  0.02044931  0.62188792  0.14482730  1  0.076961  0.00731  -0.018264  -0.030557  0.0036  3.976621  0.006
C  C120  1  0.33871536  0.01018011  0.15720151  1  -0.098164  0.000379  -0.089622  -0.108823  -0.000474  3.987112  0.0
C  C121  1  0.98975157  0.33876992  0.40723488  1  -0.170811  0.000469  -0.089675  -0.108689  -0.000389  3.987594  0.0
C  C122  1  0.66128541  0.98985685  0.65715713  1  -0.098462  0.000355  -0.089703  -0.109148  -0.000495  3.986618  0.0
C  C123  1  0.01027460  0.66125926  0.90717321  1  -0.092159  0.000373  -0.089813  -0.108736  -0.000477  3.987594  0.0
C  C124  1  0.33870464  0.98984282  0.34285853  1  -0.098362  0.000348  -0.089477  -0.108585  -0.000501  3.986658  0.0
C  C125  1  0.01024660  0.33876044  0.59277230  1  -0.170474  0.000428  -0.089795  -0.108918  -0.000424  3.987383  0.0
C  C126  1  0.66129074  0.01019970  0.84276738  1  -0.171891  0.000309  -0.089453  -0.108698  -0.000525  3.987404  0.0
C  C127  1  0.98976040  0.66126869  0.09281267  1  -0.093571  0.000299  -0.089811  -0.109068  -0.000539  3.987159  0.0
C  C128  1  0.32588311  0.12830076  0.17133320  1  -0.108937  0.000197  -0.085828  -0.095573  -0.000491  3.975179  0.0
C  C129  1  0.87166649  0.32581290  0.42135566  1  -0.03298  0.000298  -0.086114  -0.095928  -0.000414  3.975561  0.0
C  C130  1  0.67402248  0.87171206  0.67127660  1  -0.070543  0.000148  -0.085836  -0.095561  -0.000518  3.975387  0.0
C  C131  1  0.12836675  0.67413219  0.92128859  1  -0.109163  0.000228  -0.086085  -0.096313  -0.000464  3.975933  0.0
C  C132  1  0.32597875  0.87169265  0.32874540  1  -0.062281  0.000151  -0.085906  -0.095884  -0.00051  3.975707  0.0
C  C133  1  0.12833479  0.32582430  0.57865749  1  -0.032587  0.000296  -0.085884  -0.095483  -0.000414  3.975502  0.0
C  C134  1  0.67407744  0.12833873  0.82865002  1  -0.032645  0.000176  -0.085998  -0.096088  -0.00051  3.975865  0.0
C  C135  1  0.87166955  0.67407818  0.07868808  1  -0.10977  0.000208  -0.085976  -0.095751  -0.000474  3.975128  0.0
C  C136  1  0.34921144  0.34392984  0.15134932  1  1.535209  -0.006402  0.206096  0.572232  -0.008247  4.205555  -0.004
C  C137  1  0.65607709  0.34924814  0.40128906  1  1.538946  -0.006161  0.20598  0.572904  -0.007983  4.202892  -0.004
C  C138  1  0.65084118  0.65609014  0.65133371  1  1.538807  -0.006129  0.206072  0.572311  -0.007924  4.207424  -0.004
C  C139  1  0.34396040  0.65071467  0.90124696  1  1.53996  -0.006292  0.205994  0.572794  -0.008132  4.203642  -0.004
C  C140  1  0.34916897  0.65607314  0.34869425  1  1.539646  -0.006045  0.205912  0.57185  -0.007821  4.207904  -0.004
C  C141  1  0.34392495  0.34927170  0.59872631  1  1.540902  -0.006168  0.205819  0.572816  -0.007988  4.203072  -0.004
C  C142  1  0.65084331  0.34396519  0.84861781  1  1.537674  -0.006329  0.206084  0.572055  -0.008152  4.206556  -0.004
C  C143  1  0.65606722  0.65079823  0.09867686  1  1.536334  -0.006228  0.205799  0.572091  -0.008036  4.205747  -0.004
C  C144  1  0.39628679  0.85350813  0.08940455  1  1.514509  -0.00524  0.221546  0.59152  -0.007475  4.162284  -0.004
C  C145  1  0.14651691  0.39632417  0.33954572  1  1.523908  -0.004507  0.221056  0.591547  -0.006621  4.163601  -0.003
C  C146  1  0.60384404  0.14645298  0.58927469  1  1.513272  -0.005684  0.221751  0.591294  -0.008035  4.160002  -0.004
C  C147  1  0.85355468  0.60378964  0.83942478  1  1.516679  -0.005138  0.221199  0.591161  -0.007356  4.163069  -0.003
C  C148  1  0.39612325  0.14645052  0.41074958  1  1.511567  -0.005731  0.222011  0.591525  -0.008093  4.159821  -0.004
C  C149  1  0.85349721  0.39631984  0.66047610  1  1.522497  -0.004702  0.220962  0.591118  -0.00685  4.163786  -0.003
C  C150  1  0.60383815  0.85355234  0.91060312  1  1.515524  -0.005664  0.221808  0.591672  -0.007986  4.160172  -0.004
C  C151  1  0.14637093  0.60381425  0.16063274  1  1.513425  -0.005622  0.221316  0.591124  -0.007932  4.161663  -0.004
C  C152  1  0.33771495  0.49721984  0.01274985  1  1.86865  0.006814  0.343573  0.647247  0.004692  4.14498  0.006
C  C153  1  0.50284593  0.33775663  0.26287183  1  1.869949  0.006889  0.343419  0.647474  0.00473  4.145108  0.006
C  C154  1  0.66230462  0.50262360  0.51276107  1  1.869354  0.006796  0.343597  0.648319  0.0047  4.143151  0.006
C  C155  1  0.49717965  0.66228715  0.76273471  1  1.869413  0.006798  0.343682  0.648021  0.004687  4.14422  0.006
C  C156  1  0.33766710  0.50259671  0.48724298  1  1.868977  0.006806  0.343624  0.648192  0.004706  4.143207  0.006
C  C157  1  0.49713369  0.33776323  0.73717139  1  1.870862  0.006854  0.343533  0.647476  0.004714  4.144639  0.006
C  C158  1  0.66234386  0.49727338  0.98720878  1  1.870012  0.006769  0.343632  0.647772  0.004683  4.145079  0.006
C  C159  1  0.50278840  0.66231833  0.23729371  1  1.868461  0.006771  0.343803  0.648033  0.004678  4.143758  0.006
C  C160  1  0.26954454  0.36126548  0.94999921  1  0.31584  0.000575  -0.047384  -0.014681  0.000386  3.862188  0.0
C  C161  1  0.63866873  0.26958477  0.20005597  1  0.316202  0.000561  -0.047264  -0.014711  0.000378  3.861993  0.0
C  C162  1  0.73035292  0.63869748  0.45004818  1  0.315498  0.000602  -0.047269  -0.015117  0.000403  3.862759  0.0
C  C163  1  0.36125181  0.73045476  0.69999584  1  0.314941  0.000566  -0.047339  -0.014552  0.00038  3.862255  0.0
C  C164  1  0.26964786  0.63870173  0.54995008  1  0.314888  0.000605  -0.047274  -0.015121  0.000405  3.862532  0.0
C  C165  1  0.36131752  0.26957978  0.79996969  1  0.31534  0.000561  -0.047273  -0.014727  0.000377  3.862615  0.0
C  C166  1  0.73041381  0.36127281  0.04995388  1  0.315472  0.000586  -0.047177  -0.014735  0.000392  3.862284  0.0
C  C167  1  0.63875105  0.73044871  0.30000882  1  0.314893  0.000578  -0.047235  -0.014433  0.000387  3.862065  0.0
C  C168  1  0.17515368  0.38019267  0.99465140  1  0.310002  0.000133  -0.046016  -0.011662  2.9e-05  3.877812  0.0
C  C169  1  0.61978694  0.17513667  0.24469296  1  0.309941  0.000129  -0.045871  -0.010953  2.8e-05  3.877314  0.0
C  C170  1  0.82475763  0.61978793  0.49467670  1  0.310494  0.000152  -0.04628  -0.012199  4.8e-05  3.877948  0.0
C  C171  1  0.38017125  0.82488081  0.74464970  1  0.3089  0.000129  -0.046072  -0.011673  2.4e-05  3.87873  0.0
C  C172  1  0.17524342  0.61978561  0.50532140  1  0.310843  0.000155  -0.046222  -0.01213  5.1e-05  3.878097  0.0
C  C173  1  0.38019362  0.17513582  0.75532750  1  0.309738  0.000128  -0.046036  -0.011521  2.7e-05  3.878285  0.0
C  C174  1  0.82483261  0.38018276  0.00531277  1  0.309687  0.00014  -0.04583  -0.011187  3.5e-05  3.877821  0.0
C  C175  1  0.61983993  0.82487856  0.25535572  1  0.309518  0.000136  -0.046155  -0.011808  3e-05  3.879118  0.0
N  N176  1  0.37155814  0.42363901  0.97204065  1  -1.227914  0.007614  -0.432243  -0.414052  0.003478  3.443266  0.006
N  N177  1  0.57629638  0.37159959  0.22212239  1  -1.227838  0.007659  -0.432061  -0.414295  0.003496  3.44316  0.006
N  N178  1  0.62835950  0.57627368  0.47210027  1  -1.229416  0.007758  -0.432252  -0.414331  0.003554  3.442923  0.006
N  N179  1  0.42364258  0.62841788  0.72202661  1  -1.228248  0.007631  -0.432099  -0.414208  0.00348  3.442779  0.006
N  N180  1  0.37163839  0.57626359  0.52789667  1  -1.227948  0.007784  -0.432228  -0.414276  0.003566  3.442851  0.006
N  N181  1  0.42370020  0.37160368  0.77792151  1  -1.230314  0.007645  -0.432255  -0.414576  0.003486  3.443283  0.006
N  N182  1  0.62842073  0.42367569  0.02790119  1  -1.229832  0.007656  -0.432308  -0.414676  0.003495  3.442489  0.006
N  N183  1  0.57634113  0.62840454  0.27798250  1  -1.227965  0.007656  -0.432183  -0.4145  0.003492  3.442378  0.006
N  N184  1  0.22330035  0.47940765  0.02484652  1  -1.257242  0.008288  -0.426387  -0.399299  0.00368  3.46503  0.006
N  N185  1  0.52063752  0.22327047  0.27492386  1  -1.257416  0.008325  -0.426722  -0.400513  0.003699  3.466185  0.006
N  N186  1  0.77663046  0.52056325  0.52488123  1  -1.256861  0.008447  -0.425773  -0.399541  0.003754  3.464334  0.006
N  N187  1  0.47936717  0.77673675  0.77483227  1  -1.254856  0.008235  -0.426492  -0.399915  0.003648  3.466088  0.006
N  N188  1  0.22335858  0.52056218  0.47511809  1  -1.257798  0.008474  -0.42563  -0.399365  0.003767  3.464352  0.006
N  N189  1  0.47935340  0.22327955  0.72510751  1  -1.256781  0.008284  -0.426951  -0.400384  0.003677  3.465764  0.006
N  N190  1  0.77672175  0.47939032  0.97510873  1  -1.256992  0.00832  -0.426322  -0.399922  0.003691  3.465241  0.006
N  N191  1  0.52064423  0.77673275  0.22517398  1  -1.256169  0.008268  -0.426212  -0.399626  0.003664  3.465816  0.006
O  O192  1  0.28878729  0.36718804  0.19311225  1  -1.155774  0.055075  -0.307708  -0.562387  0.027648  2.386045  0.05
O  O193  1  0.63260005  0.28878888  0.44300703  1  -1.15607  0.055715  -0.307398  -0.562278  0.027976  2.385355  0.051
O  O194  1  0.71139414  0.63296851  0.69306370  1  -1.157166  0.052944  -0.308242  -0.563112  0.026582  2.382905  0.048
O  O195  1  0.36732472  0.71112796  0.94300005  1  -1.157375  0.055234  -0.307745  -0.562539  0.027736  2.384757  0.051
O  O196  1  0.28861527  0.63292499  0.30697096  1  -1.157549  0.052682  -0.308265  -0.562946  0.026462  2.382839  0.048
O  O197  1  0.36738857  0.28881155  0.55700705  1  -1.157581  0.055561  -0.307408  -0.562266  0.027896  2.385276  0.051
O  O198  1  0.71135371  0.36711876  0.80686964  1  -1.155902  0.053995  -0.308336  -0.563101  0.027108  2.38485  0.049
O  O199  1  0.63281415  0.71125498  0.05692871  1  -1.156257  0.054241  -0.307812  -0.562377  0.027246  2.383445  0.05
O  O200  1  0.40757989  0.41786999  0.12255696  1  -1.163349  0.06615  -0.323865  -0.58327  0.034825  2.396232  0.057
O  O201  1  0.58246232  0.40805449  0.37249917  1  -1.168497  0.065704  -0.324049  -0.584398  0.034398  2.393726  0.056
O  O202  1  0.59268344  0.58196104  0.62261518  1  -1.16419  0.065961  -0.324341  -0.584154  0.034868  2.397805  0.057
O  O203  1  0.41778942  0.59225198  0.87243524  1  -1.167317  0.066013  -0.323797  -0.583912  0.034712  2.394901  0.057
O  O204  1  0.40735782  0.58195586  0.37739395  1  -1.163834  0.065807  -0.324426  -0.584076  0.034792  2.396914  0.057
O  O205  1  0.41756805  0.40802158  0.62753045  1  -1.169288  0.06577  -0.323784  -0.584076  0.034457  2.393484  0.056
O  O206  1  0.59264032  0.41805010  0.87736377  1  -1.164662  0.066078  -0.323938  -0.58325  0.034899  2.397498  0.057
O  O207  1  0.58208471  0.59252388  0.12746381  1  -1.163755  0.066058  -0.324058  -0.583699  0.034838  2.395578  0.057
O  O208  1  0.40160106  0.77756222  0.12802992  1  -1.14333  0.063922  -0.311179  -0.579425  0.033868  2.411342  0.055
O  O209  1  0.22220531  0.40145382  0.37824827  1  -1.147454  0.062128  -0.311003  -0.579795  0.032908  2.40969  0.054
O  O210  1  0.59787975  0.22258998  0.62781089  1  -1.140623  0.066076  -0.310585  -0.578621  0.034924  2.414243  0.057
O  O211  1  0.77764465  0.59850896  0.87804825  1  -1.143983  0.063497  -0.311025  -0.579625  0.033634  2.41134  0.055
O  O212  1  0.40219489  0.22260295  0.37222614  1  -1.139996  0.0663  -0.311046  -0.579012  0.035028  2.414719  0.058
O  O213  1  0.77776315  0.40145522  0.62178696  1  -1.146222  0.062431  -0.310854  -0.5793  0.033071  2.409595  0.054
O  O214  1  0.59818382  0.77744690  0.87203709  1  -1.143857  0.065265  -0.311272  -0.579436  0.034541  2.412419  0.057
O  O215  1  0.22245796  0.59829995  0.12207079  1  -1.141974  0.06477  -0.310633  -0.579181  0.034274  2.412048  0.056
O  O216  1  0.40658858  0.83090061  0.03952058  1  -1.120135  0.085201  -0.298097  -0.530346  0.043714  2.386442  0.072
O  O217  1  0.16934753  0.40631170  0.28966941  1  -1.125747  0.083613  -0.298362  -0.531521  0.042908  2.384208  0.071
O  O218  1  0.59362865  0.16904618  0.53938994  1  -1.123149  0.086815  -0.2978  -0.529265  0.044506  2.387215  0.074
O  O219  1  0.83097795  0.59366171  0.78952751  1  -1.122266  0.084727  -0.298032  -0.530488  0.043448  2.386818  0.072
O  O220  1  0.40628736  0.16903544  0.46063937  1  -1.122316  0.086787  -0.29749  -0.529016  0.044483  2.38728  0.074
O  O221  1  0.83073391  0.40634651  0.71036059  1  -1.124944  0.083922  -0.298337  -0.531399  0.043064  2.386013  0.071
O  O222  1  0.59355237  0.83103376  0.96048813  1  -1.121383  0.085712  -0.297588  -0.529649  0.043953  2.387655  0.073
O  O223  1  0.16885213  0.59356644  0.21053033  1  -1.121331  0.085578  -0.297859  -0.529814  0.043881  2.387238  0.073
O  O224  1  0.40465412  0.57006775  0.03703091  1  -1.186462  0.075324  -0.304913  -0.629726  0.040273  2.570047  0.063
O  O225  1  0.43009096  0.40474007  0.28719965  1  -1.186659  0.075094  -0.304626  -0.629461  0.04018  2.568922  0.062
O  O226  1  0.59546997  0.42957826  0.53703195  1  -1.187781  0.076775  -0.305125  -0.630309  0.041095  2.57006  0.064
O  O227  1  0.56999331  0.59531436  0.78701513  1  -1.187966  0.07561  -0.304947  -0.630242  0.040402  2.57224  0.063
O  O228  1  0.40448088  0.42952434  0.46297030  1  -1.188084  0.07701  -0.305264  -0.63043  0.041228  2.56983  0.064
O  O229  1  0.56989700  0.40474366  0.71284979  1  -1.187241  0.075183  -0.304684  -0.629737  0.040221  2.570089  0.063
O  O230  1  0.59549518  0.57020723  0.96292061  1  -1.187857  0.07613  -0.305057  -0.629865  0.040693  2.571908  0.064
O  O231  1  0.42989942  0.59539073  0.21302287  1  -1.186914  0.076106  -0.305178  -0.630394  0.040659  2.572676  0.064
