# generated using pymatgen
data_ZnH10C15NO4
_symmetry_space_group_name_H-M   'P 1'
_cell_length_a   10.32661206
_cell_length_b   13.27808389
_cell_length_c   13.19530000
_cell_angle_alpha   101.12331634
_cell_angle_beta   105.89572764
_cell_angle_gamma   105.67954914
_symmetry_Int_Tables_number   1
_chemical_formula_structural   ZnH10C15NO4
_chemical_formula_sum   'Zn4 H40 C60 N4 O16'
_cell_volume   1604.24346786
_cell_formula_units_Z   4
loop_
 _symmetry_equiv_pos_site_id
 _symmetry_equiv_pos_as_xyz
  1  'x, y, z'
loop_
 _atom_site_type_symbol
 _atom_site_label
 _atom_site_symmetry_multiplicity
 _atom_site_fract_x
 _atom_site_fract_y
 _atom_site_fract_z
 _atom_site_occupancy
 _atom_site_hle17_bader_spin_density
 _atom_site_hle17_ddec_charge
 _atom_site_hle17_ddec_spin_density
 _atom_site_hle17_ddec_sum_bond_order
 _atom_site_hle17_magmom
 _atom_site_hse06_10hf_bader_spin_density
 _atom_site_hse06_10hf_ddec_charge
 _atom_site_hse06_10hf_ddec_spin_density
 _atom_site_hse06_10hf_ddec_sum_bond_order
 _atom_site_hse06_10hf_magmom
 _atom_site_hse06_bader_spin_density
 _atom_site_hse06_ddec_charge
 _atom_site_hse06_ddec_spin_density
 _atom_site_hse06_ddec_sum_bond_order
 _atom_site_hse06_magmom
 _atom_site_pbe_bader_charge
 _atom_site_pbe_bader_spin_density
 _atom_site_pbe_cm5_charge
 _atom_site_pbe_ddec_charge
 _atom_site_pbe_ddec_spin_density
 _atom_site_pbe_ddec_sum_bond_order
 _atom_site_pbe_magmom
Zn  Zn0  1  0.90591918  0.27810566  0.83040786  1  0  1.045376  0  1.867259  0  0  0.872396  0  2.340099  0  0  0.924755  0  2.274067  0  1.299544  0  0.672876  0.836045  0  2.385211  0
Zn  Zn1  1  0.59463701  0.17099729  0.72153271  1  0  1.045009  0  1.869644  0  0  0.872368  0  2.342633  0  0  0.924732  0  2.27653  0  1.296664  0  0.672981  0.83602  0  2.387794  0
Zn  Zn2  1  0.09407964  0.72189460  0.16959308  1  0  1.045386  0  1.867262  0  0  0.872423  0  2.3401  0  0  0.924781  0  2.274065  0  1.299638  0  0.672896  0.836072  0  2.385215  0
Zn  Zn3  1  0.40536319  0.82900379  0.27847019  1  0  1.045046  0  1.869632  0  0  0.872403  0  2.342627  0  0  0.924766  0  2.276522  0  1.29669  0  0.67301  0.836055  0  2.387789  0
H  H4  1  0.59272339  0.84046014  0.66936796  1  0  0.094394  0  0.972481  0  0  0.10413  0  1.03659  0  0  0.106932  0  1.034703  0  0.074584  0  0.102963  0.101933  0  1.038508  0
H  H5  1  0.90584185  0.33054231  0.16035976  1  0  0.094734  0  0.971805  0  0  0.104495  0  1.035402  0  0  0.107367  0  1.033461  0  0.071664  0  0.103805  0.102251  0  1.037344  0
H  H6  1  0.40727369  0.15953849  0.33063001  1  0  0.094415  0  0.972507  0  0  0.10417  0  1.036583  0  0  0.106977  0  1.034695  0  0.074628  0  0.102974  0.101971  0  1.038506  0
H  H7  1  0.09416274  0.66945958  0.83964576  1  0  0.094761  0  0.971829  0  0  0.10452  0  1.035419  0  0  0.10739  0  1.033481  0  0.071666  0  0.10382  0.102276  0  1.037362  0
H  H8  1  0.59614171  0.66048664  0.68895247  1  0  0.095662  0  0.942722  0  0  0.109153  0  0.994967  0  0  0.112463  0  0.993316  0  0.061753  0  0.105136  0.106826  0  0.996148  0
H  H9  1  0.90243995  0.30966045  0.34119209  1  0  0.095747  0  0.943784  0  0  0.109818  0  0.995368  0  0  0.113039  0  0.993802  0  0.071196  0  0.105725  0.107535  0  0.996515  0
H  H10  1  0.40385674  0.33951280  0.31104822  1  0  0.095683  0  0.942717  0  0  0.109174  0  0.994962  0  0  0.112484  0  0.99331  0  0.061765  0  0.105143  0.106846  0  0.996143  0
H  H11  1  0.09756016  0.69033818  0.65881108  1  0  0.09574  0  0.943763  0  0  0.109804  0  0.995354  0  0  0.113023  0  0.993788  0  0.071146  0  0.105754  0.107521  0  0.9965  0
H  H12  1  0.01400378  0.99555545  0.91274143  1  0  0.096362  0  0.956636  0  0  0.105828  0  1.018143  0  0  0.10904  0  1.016242  0  0.110981  0  0.101129  0.103589  0  1.019332  0
H  H13  1  0.48587863  0.08767326  0.00208189  1  0  0.095788  0  0.957015  0  0  0.105608  0  1.018182  0  0  0.108709  0  1.016417  0  0.105  0  0.101261  0.10342  0  1.019315  0
H  H14  1  0.98599541  0.00444563  0.08725519  1  0  0.096329  0  0.956559  0  0  0.1058  0  1.018069  0  0  0.109012  0  1.016168  0  0.110986  0  0.101117  0.103563  0  1.019258  0
H  H15  1  0.51412367  0.91233027  0.99791967  1  0  0.095812  0  0.956955  0  0  0.105627  0  1.018123  0  0  0.108727  0  1.01636  0  0.104974  0  0.101305  0.103437  0  1.019255  0
H  H16  1  0.35886591  0.61385414  0.99301913  1  0  0.104232  0  0.985566  0  0  0.114049  0  1.047939  0  0  0.116299  0  1.048319  0  0.073513  0  0.108561  0.112413  0  1.047745  0
H  H17  1  0.13955561  0.00587358  0.38426676  1  0  0.104784  0  0.986473  0  0  0.114503  0  1.048942  0  0  0.116773  0  1.049214  0  0.075008  0  0.108781  0.112845  0  1.048763  0
H  H18  1  0.64113446  0.38614286  0.00697771  1  0  0.104244  0  0.985592  0  0  0.114108  0  1.047909  0  0  0.11636  0  1.048289  0  0.073508  0  0.108598  0.112472  0  1.047715  0
H  H19  1  0.86045018  0.99413321  0.61573238  1  0  0.104779  0  0.986369  0  0  0.114471  0  1.048861  0  0  0.116747  0  1.049128  0  0.075141  0  0.108735  0.112815  0  1.048676  0
H  H20  1  0.09871581  0.50895633  0.92227127  1  0  0.099344  0  0.944034  0  0  0.105642  0  1.00995  0  0  0.108966  0  1.006457  0  0.117057  0  0.123189  0.103223  0  1.012345  0
H  H21  1  0.40008299  0.07749537  0.48919015  1  0  0.099022  0  0.942841  0  0  0.105181  0  1.009039  0  0  0.108312  0  1.005785  0  0.15015  0  0.12377  0.10293  0  1.011195  0
H  H22  1  0.90128438  0.49104475  0.07772632  1  0  0.099291  0  0.943967  0  0  0.10558  0  1.009911  0  0  0.108902  0  1.00642  0  0.11714  0  0.123155  0.103161  0  1.012306  0
H  H23  1  0.59991969  0.92250897  0.51081316  1  0  0.098969  0  0.942851  0  0  0.105165  0  1.009025  0  0  0.108297  0  1.005771  0  0.149872  0  0.123765  0.102915  0  1.011179  0
H  H24  1  0.16905355  0.21415139  0.88444861  1  0  0.086827  0  0.939113  0  0  0.096856  0  0.999965  0  0  0.099417  0  0.997731  0  0.131956  0  0.121032  0.094885  0  1.001724  0
H  H25  1  0.33329930  0.11700115  0.78701382  1  0  0.087834  0  0.94101  0  0  0.097518  0  1.002143  0  0  0.100186  0  0.999768  0  0.102883  0  0.121161  0.095483  0  1.003949  0
H  H26  1  0.83094152  0.78584724  0.11555120  1  0  0.086799  0  0.939131  0  0  0.096824  0  0.999998  0  0  0.099382  0  0.997775  0  0.131988  0  0.121014  0.094855  0  1.001749  0
H  H27  1  0.66669403  0.88299584  0.21298530  1  0  0.087833  0  0.941021  0  0  0.097508  0  1.00217  0  0  0.100181  0  0.999789  0  0.102838  0  0.121149  0.095472  0  1.003978  0
H  H28  1  0.43270636  0.30474592  0.95039682  1  0  0.11359  0  0.961236  0  0  0.122427  0  1.02331  0  0  0.125706  0  1.022196  0  0.094444  0  0.110897  0.120102  0  1.024124  0
H  H29  1  0.06920266  0.05008967  0.69647972  1  0  0.113365  0  0.95966  0  0  0.122883  0  1.02089  0  0  0.126206  0  1.01971  0  0.109258  0  0.111208  0.120473  0  1.021795  0
H  H30  1  0.56728963  0.69525026  0.04960120  1  0  0.113539  0  0.961281  0  0  0.122392  0  1.023325  0  0  0.12567  0  1.022216  0  0.094457  0  0.110892  0.120069  0  1.024138  0
H  H31  1  0.93079314  0.94991059  0.30351526  1  0  0.113365  0  0.959627  0  0  0.122878  0  1.020872  0  0  0.126202  0  1.01969  0  0.109263  0  0.111173  0.120499  0  1.021733  0
H  H32  1  0.01592371  0.81452569  0.93923873  1  0  0.106862  0  0.972699  0  0  0.114417  0  1.037443  0  0  0.117649  0  1.036474  0  0.122767  0  0.10056  0.111733  0  1.039123  0
H  H33  1  0.48450276  0.05987135  0.18422102  1  0  0.108003  0  0.970751  0  0  0.115179  0  1.035721  0  0  0.118492  0  1.034694  0  0.113787  0  0.100845  0.112418  0  1.03748  0
H  H34  1  0.98407713  0.18547457  0.06075884  1  0  0.106892  0  0.972643  0  0  0.114436  0  1.037403  0  0  0.117666  0  1.036433  0  0.122654  0  0.100579  0.111729  0  1.039113  0
H  H35  1  0.51549835  0.94012727  0.81577781  1  0  0.107956  0  0.970758  0  0  0.115144  0  1.035713  0  0  0.118457  0  1.034685  0  0.113778  0  0.100831  0.112383  0  1.037472  0
H  H36  1  0.60154137  0.51327696  0.72747801  1  0  0.115014  0  0.941553  0  0  0.126259  0  0.996251  0  0  0.130611  0  0.993983  0  0.064418  0  0.104403  0.123188  0  0.998042  0
H  H37  1  0.89830637  0.27073713  0.48638938  1  0  0.114809  0  0.942904  0  0  0.126332  0  0.997073  0  0  0.130669  0  0.994821  0  0.067983  0  0.104987  0.123182  0  0.99897  0
H  H38  1  0.39845983  0.48672411  0.27252132  1  0  0.114989  0  0.941553  0  0  0.126239  0  0.996249  0  0  0.13059  0  0.993982  0  0.064417  0  0.104382  0.123167  0  0.99804  0
H  H39  1  0.10169209  0.72926232  0.51361207  1  0  0.114823  0  0.942917  0  0  0.126343  0  0.997091  0  0  0.130681  0  0.99484  0  0.067931  0  0.105012  0.123205  0  0.998976  0
H  H40  1  0.91546539  0.62076601  0.88395550  1  0  0.099694  0  0.956131  0  0  0.107169  0  1.026312  0  0  0.110563  0  1.022798  0  0.089051  0  0.104316  0.10464  0  1.02898  0
H  H41  1  0.58471589  0.11482981  0.37938663  1  0  0.099754  0  0.957906  0  0  0.107339  0  1.027532  0  0  0.110757  0  1.023925  0  0.107838  0  0.104916  0.104801  0  1.030269  0
H  H42  1  0.08453618  0.37923588  0.11604559  1  0  0.099681  0  0.956074  0  0  0.107162  0  1.026252  0  0  0.110556  0  1.022738  0  0.089145  0  0.104305  0.104633  0  1.028919  0
H  H43  1  0.41528347  0.88516719  0.62061454  1  0  0.099768  0  0.957874  0  0  0.107356  0  1.027487  0  0  0.110787  0  1.023858  0  0.107889  0  0.104921  0.1048  0  1.03027  0
C  C44  1  0.79498732  0.03886369  0.78242410  1  0  0.648177  0  3.902953  0  0  0.597226  0  4.194748  0  0  0.632706  0  4.186866  0  1.546492  0  0.209214  0.573239  0  4.199172  0
C  C45  1  0.70454228  0.21898586  0.96073888  1  0  0.649003  0  3.906569  0  0  0.597277  0  4.198672  0  0  0.632881  0  4.190654  0  1.539268  0  0.209632  0.573185  0  4.203206  0
C  C46  1  0.20501050  0.96113657  0.21757435  1  0  0.64822  0  3.902951  0  0  0.597249  0  4.194762  0  0  0.632734  0  4.186879  0  1.546413  0  0.209199  0.573262  0  4.199186  0
C  C47  1  0.29546232  0.78101603  0.03926588  1  0  0.649088  0  3.906405  0  0  0.59732  0  4.198575  0  0  0.632921  0  4.190557  0  1.539417  0  0.20968  0.573227  0  4.203112  0
C  C48  1  0.80247668  0.92973291  0.79098057  1  0  -0.07695  0  3.772846  0  0  -0.054401  0  4.007169  0  0  -0.06311  0  4.03084  0  -0.078913  0  -0.023821  -0.048579  0  3.991103  0
C  C49  1  0.69674534  0.20941167  0.06985744  1  0  -0.078454  0  3.77855  0  0  -0.055687  0  4.012907  0  0  -0.064458  0  4.036454  0  -0.112617  0  -0.024028  -0.049776  0  3.996841  0
C  C50  1  0.19752140  0.07026572  0.20901610  1  0  -0.076893  0  3.772902  0  0  -0.054327  0  4.007228  0  0  -0.063045  0  4.030914  0  -0.078812  0  -0.023772  -0.048507  0  3.991164  0
C  C51  1  0.30326053  0.79058858  0.93014728  1  0  -0.078395  0  3.778375  0  0  -0.055657  0  4.012784  0  0  -0.064416  0  4.036317  0  -0.111928  0  -0.024078  -0.049745  0  3.996719  0
C  C52  1  0.68532270  0.83434720  0.72812770  1  0  -0.071508  0  3.769933  0  0  -0.096289  0  4.019726  0  0  -0.096278  0  4.041306  0  -0.028811  0  -0.086905  -0.096253  0  4.005835  0
C  C53  1  0.81369454  0.27171170  0.16610688  1  0  -0.068714  0  3.774202  0  0  -0.093408  0  4.023978  0  0  -0.093394  0  4.045369  0  0.017412  0  -0.085842  -0.093377  0  4.010197  0
C  C54  1  0.31467539  0.16565143  0.27186973  1  0  -0.07152  0  3.770001  0  0  -0.09632  0  4.019773  0  0  -0.096313  0  4.041359  0  -0.028838  0  -0.086916  -0.096284  0  4.005885  0
C  C55  1  0.18630905  0.72829019  0.83389842  1  0  -0.068876  0  3.77423  0  0  -0.093553  0  4.024012  0  0  -0.093545  0  4.045401  0  0.017098  0  -0.085886  -0.093525  0  4.010235  0
C  C56  1  0.68749682  0.73342774  0.73998581  1  0  -0.105542  0  3.727437  0  0  -0.120753  0  3.965844  0  0  -0.124232  0  3.986675  0  -0.027714  0  -0.085298  -0.118459  0  3.951629  0
C  C57  1  0.81155973  0.25913455  0.26728792  1  0  -0.105232  0  3.733342  0  0  -0.121293  0  3.971523  0  0  -0.124741  0  3.992382  0  -0.04445  0  -0.085476  -0.119019  0  3.957297  0
C  C58  1  0.31250365  0.26657170  0.26001305  1  0  -0.105575  0  3.727421  0  0  -0.12079  0  3.965836  0  0  -0.124268  0  3.986669  0  -0.027716  0  -0.085304  -0.118494  0  3.951622  0
C  C59  1  0.18844202  0.74086326  0.73271544  1  0  -0.105138  0  3.733278  0  0  -0.121182  0  3.97144  0  0  -0.124629  0  3.992298  0  -0.044355  0  -0.085466  -0.118912  0  3.957216  0
C  C60  1  0.92281341  0.92145679  0.86499038  1  0  -0.071211  0  3.754417  0  0  -0.092763  0  3.999355  0  0  -0.092265  0  4.019606  0  -0.045445  0  -0.088068  -0.092663  0  3.985136  0
C  C61  1  0.57670653  0.13501811  0.07706321  1  0  -0.069632  0  3.754053  0  0  -0.091738  0  3.999118  0  0  -0.091122  0  4.019363  0  -0.016878  0  -0.087317  -0.091705  0  3.984876  0
C  C62  1  0.07718679  0.07854429  0.13500570  1  0  -0.071202  0  3.754266  0  0  -0.092766  0  3.999221  0  0  -0.092268  0  4.019475  0  -0.045786  0  -0.088076  -0.092665  0  3.984997  0
C  C63  1  0.42329440  0.86498460  0.92293941  1  0  -0.069662  0  3.754015  0  0  -0.091751  0  3.999079  0  0  -0.091138  0  4.019322  0  -0.017352  0  -0.08732  -0.091716  0  3.984834  0
C  C64  1  0.32323800  0.52526022  0.96923249  1  0  -0.139989  0  3.68001  0  0  -0.159363  0  3.925404  0  0  -0.167441  0  3.947861  0  0.041385  0  -0.073335  -0.154014  0  3.910134  0
C  C65  1  0.17593503  0.03033433  0.47352447  1  0  -0.140425  0  3.680875  0  0  -0.159691  0  3.925426  0  0  -0.167686  0  3.947916  0  0.013408  0  -0.074278  -0.154355  0  3.910208  0
C  C66  1  0.67676246  0.47473922  0.03076409  1  0  -0.1401  0  3.680192  0  0  -0.159496  0  3.92557  0  0  -0.167578  0  3.94803  0  0.041418  0  -0.073398  -0.154146  0  3.9103  0
C  C67  1  0.82406901  0.96967083  0.52647247  1  0  -0.140463  0  3.680868  0  0  -0.159645  0  3.925392  0  0  -0.167642  0  3.947885  0  0.01346  0  -0.074249  -0.154308  0  3.910169  0
C  C68  1  0.17717512  0.46760760  0.92988451  1  0  0.149663  0  3.657735  0  0  0.11626  0  3.909152  0  0  0.123585  0  3.926878  0  0.463637  0  0.058991  0.11162  0  3.896833  0
C  C69  1  0.32225171  0.07015789  0.53119765  1  0  0.149107  0  3.659703  0  0  0.115651  0  3.911652  0  0  0.123041  0  3.929461  0  0.485151  0  0.058642  0.110934  0  3.899304  0
C  C70  1  0.82282471  0.53239266  0.07011437  1  0  0.149794  0  3.657644  0  0  0.116398  0  3.909059  0  0  0.123725  0  3.926786  0  0.463507  0  0.059067  0.111758  0  3.896741  0
C  C71  1  0.67774986  0.92984401  0.46880267  1  0  0.149197  0  3.659682  0  0  0.11567  0  3.911664  0  0  0.12306  0  3.929474  0  0.485427  0  0.058633  0.110952  0  3.899318  0
C  C72  1  0.21720231  0.30286049  0.90887701  1  0  0.132553  0  3.693693  0  0  0.100965  0  3.942597  0  0  0.107495  0  3.962246  0  0.547874  0  0.053782  0.096889  0  3.929227  0
C  C73  1  0.28420825  0.09200942  0.69766419  1  0  0.131011  0  3.694801  0  0  0.099707  0  3.943587  0  0  0.106144  0  3.963287  0  0.509028  0  0.053359  0.095699  0  3.930176  0
C  C74  1  0.78279542  0.69713732  0.09111867  1  0  0.132553  0  3.69379  0  0  0.10097  0  3.942692  0  0  0.107499  0  3.962338  0  0.547927  0  0.053779  0.096894  0  3.929323  0
C  C75  1  0.71578783  0.90798921  0.30233508  1  0  0.131045  0  3.694736  0  0  0.099746  0  3.943514  0  0  0.106182  0  3.963212  0  0.509074  0  0.053343  0.095735  0  3.930117  0
C  C76  1  0.36467114  0.35492953  0.94693085  1  0  -0.148644  0  3.681949  0  0  -0.165541  0  3.92508  0  0  -0.173201  0  3.946389  0  -0.041304  0  -0.073556  -0.160563  0  3.910562  0
C  C77  1  0.13659106  0.05356317  0.64565742  1  0  -0.148343  0  3.683942  0  0  -0.165864  0  3.92663  0  0  -0.173539  0  3.947985  0  -0.022733  0  -0.074143  -0.160808  0  3.912092  0
C  C78  1  0.63532796  0.64506909  0.05307134  1  0  -0.148551  0  3.681917  0  0  -0.165439  0  3.925045  0  0  -0.173099  0  3.946353  0  -0.041339  0  -0.073518  -0.160462  0  3.910529  0
C  C79  1  0.86340639  0.94643627  0.35433851  1  0  -0.148371  0  3.683778  0  0  -0.165874  0  3.926482  0  0  -0.173551  0  3.947841  0  -0.022759  0  -0.074102  -0.160837  0  3.911914  0
C  C80  1  0.92381060  0.82045237  0.87919657  1  0  -0.111763  0  3.706115  0  0  -0.130471  0  3.953637  0  0  -0.134833  0  3.975496  0  -0.08013  0  -0.087855  -0.127671  0  3.939556  0
C  C81  1  0.57594581  0.11996981  0.17837582  1  0  -0.111186  0  3.708003  0  0  -0.129773  0  3.955427  0  0  -0.134262  0  3.977161  0  -0.10631  0  -0.086642  -0.126909  0  3.94146  0
C  C82  1  0.07619023  0.17954789  0.12080025  1  0  -0.111793  0  3.706037  0  0  -0.130496  0  3.953556  0  0  -0.134852  0  3.975413  0  -0.079751  0  -0.08788  -0.127679  0  3.939483  0
C  C83  1  0.42405860  0.88002719  0.82162492  1  0  -0.111151  0  3.707907  0  0  -0.129728  0  3.955325  0  0  -0.134219  0  3.977056  0  -0.106315  0  -0.086619  -0.126865  0  3.941354  0
C  C84  1  0.42179125  0.46978303  0.97889800  1  0  0.101289  0  3.729604  0  0  0.113556  0  3.957272  0  0  0.117823  0  3.978389  0  -0.056338  0  0.019821  0.11083  0  3.94278  0
C  C85  1  0.07835284  0.02113592  0.53000993  1  0  0.100946  0  3.734819  0  0  0.11342  0  3.961392  0  0  0.117653  0  3.982597  0  -0.038563  0  0.020476  0.110702  0  3.946866  0
C  C86  1  0.57820885  0.53021560  0.02110062  1  0  0.101307  0  3.729601  0  0  0.113521  0  3.957321  0  0  0.117789  0  3.978439  0  -0.088382  0  0.019821  0.110794  0  3.942829  0
C  C87  1  0.92164772  0.97886597  0.46998563  1  0  0.100954  0  3.734819  0  0  0.113358  0  3.961425  0  0  0.117589  0  3.982633  0  -0.007619  0  0.020498  0.110641  0  3.946902  0
C  C88  1  0.80618332  0.72450381  0.81675138  1  0  0.085193  0  3.814389  0  0  0.103326  0  4.047629  0  0  0.103472  0  4.072332  0  0.002283  0  -0.009383  0.103312  0  4.030689  0
C  C89  1  0.69324428  0.18205662  0.27514527  1  0  0.085421  0  3.820517  0  0  0.104222  0  4.052359  0  0  0.104375  0  4.077034  0  0.001538  0  -0.009112  0.10421  0  4.03543  0
C  C90  1  0.19381752  0.27549645  0.18324771  1  0  0.085205  0  3.814337  0  0  0.103346  0  4.047562  0  0  0.10349  0  4.072268  0  0.002299  0  -0.009366  0.103332  0  4.030617  0
C  C91  1  0.30675710  0.81794037  0.72485634  1  0  0.085465  0  3.820458  0  0  0.104244  0  4.0523  0  0  0.1044  0  4.076974  0  0.001515  0  -0.00913  0.104239  0  4.035366  0
C  C92  1  0.81354511  0.61946223  0.82959341  1  0  -0.046538  0  3.739423  0  0  -0.074667  0  3.998101  0  0  -0.071316  0  4.016904  0  -0.077197  0  -0.076636  -0.076593  0  3.9852  0
C  C93  1  0.68615016  0.16887986  0.38052837  1  0  -0.045781  0  3.744373  0  0  -0.074284  0  4.002886  0  0  -0.070774  0  4.021485  0  -0.060132  0  -0.076066  -0.076337  0  3.990129  0
C  C94  1  0.18645609  0.38053885  0.17040667  1  0  -0.046515  0  3.739371  0  0  -0.074655  0  3.998052  0  0  -0.071305  0  4.016857  0  -0.077279  0  -0.076628  -0.07658  0  3.98515  0
C  C95  1  0.31384921  0.83111714  0.61947508  1  0  -0.045831  0  3.744538  0  0  -0.074332  0  4.003051  0  0  -0.070824  0  4.021653  0  -0.060277  0  -0.076098  -0.076387  0  3.990287  0
C  C96  1  0.70829312  0.52165928  0.77955425  1  0  -0.232359  0  3.673579  0  0  -0.246926  0  3.928959  0  0  -0.25825  0  3.945421  0  -0.014287  0  -0.102246  -0.239544  0  3.917759  0
C  C97  1  0.79214197  0.21900547  0.47860517  1  0  -0.231282  0  3.679427  0  0  -0.246093  0  3.934665  0  0  -0.257519  0  3.951107  0  -0.027143  0  -0.102097  -0.238566  0  3.923513  0
C  C98  1  0.29170771  0.47834098  0.22044560  1  0  -0.23237  0  3.673533  0  0  -0.246924  0  3.928914  0  0  -0.258249  0  3.945376  0  -0.014296  0  -0.102248  -0.239541  0  3.917713  0
C  C99  1  0.20785813  0.78099316  0.52139800  1  0  -0.231322  0  3.679587  0  0  -0.246128  0  3.934822  0  0  -0.25756  0  3.951267  0  -0.026985  0  -0.102113  -0.238608  0  3.923659  0
C  C100  1  0.72934835  0.41725652  0.78792316  1  0  0.697064  0  3.910042  0  0  0.652245  0  4.195253  0  0  0.688413  0  4.187687  0  1.537431  0  0.202262  0.627857  0  4.199458  0
C  C101  1  0.77183450  0.21113699  0.58358707  1  0  0.698187  0  3.911586  0  0  0.652817  0  4.196777  0  0  0.689047  0  4.189185  0  1.536626  0  0.203051  0.628376  0  4.201019  0
C  C102  1  0.27065185  0.58274456  0.21207747  1  0  0.697033  0  3.910057  0  0  0.652181  0  4.195317  0  0  0.68835  0  4.187752  0  1.537465  0  0.202239  0.627794  0  4.19952  0
C  C103  1  0.22816433  0.78886327  0.41641538  1  0  0.698167  0  3.911664  0  0  0.652818  0  4.196813  0  0  0.689051  0  4.189221  0  1.536779  0  0.203022  0.628377  0  4.201055  0
N  N104  1  0.12413418  0.35769804  0.90000839  1  0  -0.308403  0  3.255231  0  0  -0.224051  0  3.524164  0  0  -0.243739  0  3.538969  0  -1.226385  0  -0.321143  -0.21098  0  3.514065  0
N  N105  1  0.37633420  0.10082225  0.64188583  1  0  -0.307044  0  3.256256  0  0  -0.222889  0  3.524988  0  0  -0.242537  0  3.539857  0  -1.269297  0  -0.320863  -0.209817  0  3.514839  0
N  N106  1  0.87586464  0.64230222  0.09999255  1  0  -0.308434  0  3.255257  0  0  -0.224091  0  3.524189  0  0  -0.243778  0  3.538987  0  -1.226414  0  -0.321171  -0.211021  0  3.514091  0
N  N107  1  0.62366362  0.89917801  0.35811337  1  0  -0.307073  0  3.256225  0  0  -0.222904  0  3.524969  0  0  -0.242553  0  3.539837  0  -1.269428  0  -0.320846  -0.209834  0  3.514824  0
O  O108  1  0.91249725  0.11925501  0.81663243  1  0  -0.636612  0  2.051874  0  0  -0.57651  0  2.318837  0  0  -0.604453  0  2.305581  0  -1.178969  0  -0.317318  -0.557005  0  2.32715  0
O  O109  1  0.58716819  0.18545742  0.87959484  1  0  -0.634628  0  2.066589  0  0  -0.573899  0  2.335569  0  0  -0.601879  0  2.321978  0  -1.174862  0  -0.315733  -0.554318  0  2.343984  0
O  O110  1  0.08750221  0.88074443  0.18336696  1  0  -0.636604  0  2.05196  0  0  -0.576486  0  2.318914  0  0  -0.604431  0  2.305658  0  -1.178994  0  -0.317295  -0.556981  0  2.327231  0
O  O111  1  0.41283915  0.81454611  0.12040856  1  0  -0.634714  0  2.066544  0  0  -0.573953  0  2.335542  0  0  -0.601941  0  2.321968  0  -1.175024  0  -0.315771  -0.554371  0  2.343954  0
O  O112  1  0.85464913  0.41884704  0.83881525  1  0  -0.649123  0  2.069015  0  0  -0.581486  0  2.327373  0  0  -0.611588  0  2.315319  0  -1.175294  0  -0.320739  -0.56066  0  2.334568  0
O  O113  1  0.64652867  0.16091907  0.58173294  1  0  -0.648275  0  2.077345  0  0  -0.579606  0  2.336783  0  0  -0.609854  0  2.324624  0  -1.173937  0  -0.320545  -0.558725  0  2.344091  0
O  O114  1  0.14535070  0.58115322  0.16118591  1  0  -0.649125  0  2.069007  0  0  -0.581469  0  2.327355  0  0  -0.611568  0  2.315297  0  -1.175293  0  -0.320742  -0.560647  0  2.334556  0
O  O115  1  0.35347016  0.83908119  0.41826951  1  0  -0.648254  0  2.077298  0  0  -0.579608  0  2.336752  0  0  -0.609865  0  2.324592  0  -1.173978  0  -0.320528  -0.558729  0  2.344073  0
O  O116  1  0.61728035  0.33194168  0.74028348  1  0  -0.644471  0  2.027809  0  0  -0.579027  0  2.280087  0  0  -0.60706  0  2.264354  0  -1.165197  0  -0.328474  -0.559548  0  2.28996  0
O  O117  1  0.88402918  0.25831356  0.66948298  1  0  -0.64198  0  2.037521  0  0  -0.575797  0  2.291164  0  0  -0.603906  0  2.275346  0  -1.164912  0  -0.326577  -0.556263  0  2.301088  0
O  O118  1  0.38271884  0.66805940  0.25971693  1  0  -0.644434  0  2.027828  0  0  -0.578987  0  2.280129  0  0  -0.607016  0  2.264394  0  -1.165225  0  -0.328466  -0.559506  0  2.290001  0
O  O119  1  0.11597065  0.74168670  0.33051893  1  0  -0.641933  0  2.037529  0  0  -0.575764  0  2.291162  0  0  -0.603869  0  2.275339  0  -1.165013  0  -0.326543  -0.556228  0  2.301088  0
O  O120  1  0.66980587  0.04271297  0.74191240  1  0  -0.635863  0  2.088395  0  0  -0.568509  0  2.356152  0  0  -0.596914  0  2.342183  0  -1.172965  0  -0.310612  -0.548678  0  2.365066  0
O  O121  1  0.82979256  0.25944253  0.95751000  1  0  -0.633859  0  2.098956  0  0  -0.565416  0  2.368458  0  0  -0.593909  0  2.35405  0  -1.171729  0  -0.309621  -0.545567  0  2.377746  0
O  O122  1  0.33019323  0.95728566  0.25808676  1  0  -0.635958  0  2.088328  0  0  -0.568615  0  2.356124  0  0  -0.596995  0  2.342097  0  -1.172919  0  -0.31065  -0.548786  0  2.365039  0
O  O123  1  0.17021267  0.74055855  0.04249626  1  0  -0.633881  0  2.098968  0  0  -0.565435  0  2.368484  0  0  -0.59393  0  2.354083  0  -1.171758  0  -0.309638  -0.545588  0  2.377776  0
