# generated using pymatgen
data_CuH5C7BrN2
_symmetry_space_group_name_H-M   'P 1'
_cell_length_a   9.21331633
_cell_length_b   9.93034485
_cell_length_c   9.93045332
_cell_angle_alpha   114.73917492
_cell_angle_beta   102.01769062
_cell_angle_gamma   102.01709965
_symmetry_Int_Tables_number   1
_chemical_formula_structural   CuH5C7BrN2
_chemical_formula_sum   'Cu4 H20 C28 Br4 N8'
_cell_volume   761.16980133
_cell_formula_units_Z   4
loop_
 _symmetry_equiv_pos_site_id
 _symmetry_equiv_pos_as_xyz
  1  'x, y, z'
loop_
 _atom_site_type_symbol
 _atom_site_label
 _atom_site_symmetry_multiplicity
 _atom_site_fract_x
 _atom_site_fract_y
 _atom_site_fract_z
 _atom_site_occupancy
 _atom_site_hle17_bader_spin_density
 _atom_site_hle17_ddec_charge
 _atom_site_hle17_ddec_spin_density
 _atom_site_hle17_ddec_sum_bond_order
 _atom_site_hle17_magmom
 _atom_site_hse06_10hf_bader_spin_density
 _atom_site_hse06_10hf_ddec_charge
 _atom_site_hse06_10hf_ddec_spin_density
 _atom_site_hse06_10hf_ddec_sum_bond_order
 _atom_site_hse06_10hf_magmom
 _atom_site_hse06_bader_spin_density
 _atom_site_hse06_ddec_charge
 _atom_site_hse06_ddec_spin_density
 _atom_site_hse06_ddec_sum_bond_order
 _atom_site_hse06_magmom
 _atom_site_pbe_bader_spin_density
 _atom_site_pbe_cm5_charge
 _atom_site_pbe_ddec_charge
 _atom_site_pbe_ddec_spin_density
 _atom_site_pbe_ddec_sum_bond_order
 _atom_site_pbe_magmom
Cu  Cu0  1  0.87546012  0.81802649  0.13466338  1  0  0.367338  0  2.097394  0  0  0.26666  0  2.599042  0  0  0.264834  0  2.553819  0  0  0.40078  0.27164  0  2.625652  0
Cu  Cu1  1  0.37546211  0.13466644  0.81802689  1  0  0.367332  0  2.097398  0  0  0.266616  0  2.599043  0  0  0.26481  0  2.553813  0  0  0.400792  0.271602  0  2.6258  0
Cu  Cu2  1  0.12454076  0.18197109  0.86533152  1  0  0.367343  0  2.097417  0  0  0.266642  0  2.599048  0  0  0.264818  0  2.553822  0  0  0.400785  0.271641  0  2.625737  0
Cu  Cu3  1  0.62454176  0.86533352  0.18197462  1  0  0.367315  0  2.097411  0  0  0.266638  0  2.59907  0  0  0.26483  0  2.553861  0  0  0.400778  0.271606  0  2.625743  0
H  H4  1  0.69081812  0.55183237  0.18826401  1  0  0.07983  0  0.963395  0  0  0.082212  0  1.038854  0  0  0.086363  0  1.034826  0  0  0.103062  0.078914  0  1.042148  0
H  H5  1  0.19081740  0.18826361  0.55183245  1  0  0.079839  0  0.96335  0  0  0.082211  0  1.038824  0  0  0.086344  0  1.034813  0  0  0.103061  0.078914  0  1.042119  0
H  H6  1  0.30918203  0.44816644  0.81173729  1  0  0.079864  0  0.963351  0  0  0.082244  0  1.038807  0  0  0.086383  0  1.034793  0  0  0.103073  0.078948  0  1.042102  0
H  H7  1  0.80918172  0.81173873  0.44817011  1  0  0.079861  0  0.963382  0  0  0.082252  0  1.038817  0  0  0.086407  0  1.034784  0  0  0.103077  0.078954  0  1.04211  0
H  H8  1  0.75955851  0.34341974  0.24183453  1  0  0.101383  0  0.955721  0  0  0.110659  0  1.018091  0  0  0.113888  0  1.017212  0  0  0.098828  0.107214  0  1.021143  0
H  H9  1  0.25955817  0.24183583  0.34342224  1  0  0.101416  0  0.955691  0  0  0.110706  0  1.01804  0  0  0.113939  0  1.017161  0  0  0.098843  0.107261  0  1.021097  0
H  H10  1  0.24044166  0.65657902  0.75816173  1  0  0.101434  0  0.955649  0  0  0.110689  0  1.018037  0  0  0.113923  0  1.017159  0  0  0.098847  0.107244  0  1.021093  0
H  H11  1  0.74044270  0.75816179  0.65657872  1  0  0.101394  0  0.955671  0  0  0.110696  0  1.018018  0  0  0.113929  0  1.017138  0  0  0.098848  0.107248  0  1.021076  0
H  H12  1  0.02737720  0.32218018  0.25297926  1  0  0.093444  0  0.963772  0  0  0.104027  0  1.025654  0  0  0.107241  0  1.023512  0  0  0.094395  0.100911  0  1.028896  0
H  H13  1  0.52737809  0.25298016  0.32218320  1  0  0.093457  0  0.963732  0  0  0.104006  0  1.025658  0  0  0.107221  0  1.023516  0  0  0.094362  0.100893  0  1.028903  0
H  H14  1  0.97262297  0.67781857  0.74701598  1  0  0.093432  0  0.96375  0  0  0.103987  0  1.025671  0  0  0.107201  0  1.02353  0  0  0.094352  0.100871  0  1.028914  0
H  H15  1  0.47262238  0.74701630  0.67781821  1  0  0.09346  0  0.963767  0  0  0.104015  0  1.025674  0  0  0.107229  0  1.023533  0  0  0.094378  0.100898  0  1.028919  0
H  H16  1  0.21753272  0.51150208  0.21542347  1  0  0.105861  0  0.985999  0  0  0.112892  0  1.052641  0  0  0.116586  0  1.051416  0  0  0.09422  0.110207  0  1.05294  0
H  H17  1  0.71753318  0.21542392  0.51150312  1  0  0.105825  0  0.986023  0  0  0.112873  0  1.052653  0  0  0.116568  0  1.051429  0  0  0.09421  0.110189  0  1.052957  0
H  H18  1  0.78246570  0.48850142  0.78457640  1  0  0.105884  0  0.98609  0  0  0.112901  0  1.052738  0  0  0.116595  0  1.051514  0  0  0.094235  0.110216  0  1.053038  0
H  H19  1  0.28246515  0.78457610  0.48850235  1  0  0.105885  0  0.986023  0  0  0.112899  0  1.052666  0  0  0.116593  0  1.051442  0  0  0.094234  0.110214  0  1.052964  0
H  H20  1  0.11552612  0.98597166  0.01889449  1  0  0.078555  0  0.970421  0  0  0.081008  0  1.049588  0  0  0.086815  0  1.041972  0  0  0.104869  0.076689  0  1.055197  0
H  H21  1  0.61552564  0.01889667  0.98597093  1  0  0.078502  0  0.970512  0  0  0.080978  0  1.049642  0  0  0.086782  0  1.042027  0  0  0.104872  0.076677  0  1.055244  0
H  H22  1  0.88447594  0.01402947  0.98110512  1  0  0.078526  0  0.970474  0  0  0.080991  0  1.04962  0  0  0.086798  0  1.042002  0  0  0.104872  0.076684  0  1.055222  0
H  H23  1  0.38447641  0.98110450  0.01403474  1  0  0.078522  0  0.970501  0  0  0.081003  0  1.049614  0  0  0.086806  0  1.041998  0  0  0.104882  0.076684  0  1.05523  0
C  C24  1  0.80921796  0.54457828  0.20437413  1  0  0.122753  0  3.700268  0  0  0.093187  0  3.955012  0  0  0.098717  0  3.969992  0  0  0.039015  0.088812  0  3.947177  0
C  C25  1  0.30921758  0.20437402  0.54457791  1  0  0.122778  0  3.700211  0  0  0.09322  0  3.954971  0  0  0.098768  0  3.969955  0  0  0.039031  0.088846  0  3.947158  0
C  C26  1  0.19077919  0.45541818  0.79562561  1  0  0.122689  0  3.700279  0  0  0.093158  0  3.954986  0  0  0.098696  0  3.969968  0  0  0.039008  0.088783  0  3.947163  0
C  C27  1  0.69078115  0.79562714  0.45542308  1  0  0.1227  0  3.700257  0  0  0.093158  0  3.954954  0  0  0.098687  0  3.969935  0  0  0.039017  0.088787  0  3.947131  0
C  C28  1  0.84693980  0.42715018  0.23072637  1  0  -0.107329  0  3.721625  0  0  -0.121161  0  3.968954  0  0  -0.125947  0  3.989558  0  0  -0.088352  -0.119725  0  3.959345  0
C  C29  1  0.34694038  0.23072765  0.42715269  1  0  -0.107406  0  3.721636  0  0  -0.121249  0  3.968941  0  0  -0.126037  0  3.98954  0  0  -0.088391  -0.119813  0  3.959356  0
C  C30  1  0.15306218  0.57284743  0.76927279  1  0  -0.107411  0  3.721586  0  0  -0.121228  0  3.968884  0  0  -0.126016  0  3.989485  0  0  -0.088427  -0.119791  0  3.959285  0
C  C31  1  0.65306208  0.76927465  0.57284749  1  0  -0.107347  0  3.721605  0  0  -0.121225  0  3.968916  0  0  -0.126014  0  3.989522  0  0  -0.088407  -0.119788  0  3.959321  0
C  C32  1  0.99713936  0.41684630  0.23851949  1  0  -0.0068  0  3.727671  0  0  -0.025514  0  3.97619  0  0  -0.021891  0  3.992224  0  0  -0.076958  -0.028117  0  3.967042  0
C  C33  1  0.49713944  0.23852193  0.41684901  1  0  -0.006772  0  3.727619  0  0  -0.025453  0  3.976126  0  0  -0.021832  0  3.992162  0  0  -0.076895  -0.028055  0  3.967001  0
C  C34  1  0.00286191  0.58315248  0.76147900  1  0  -0.006712  0  3.727582  0  0  -0.025396  0  3.976073  0  0  -0.021775  0  3.992113  0  0  -0.076857  -0.027996  0  3.966931  0
C  C35  1  0.50286150  0.76147923  0.58315443  1  0  -0.00679  0  3.727697  0  0  -0.025457  0  3.976197  0  0  -0.021836  0  3.992232  0  0  -0.076919  -0.028057  0  3.967058  0
C  C36  1  0.10411866  0.52420430  0.22104498  1  0  -0.135304  0  3.714051  0  0  -0.155392  0  3.964081  0  0  -0.160138  0  3.981732  0  0  -0.085028  -0.151728  0  3.951486  0
C  C37  1  0.60411879  0.22104614  0.52420522  1  0  -0.135281  0  3.714091  0  0  -0.155393  0  3.964099  0  0  -0.160136  0  3.981754  0  0  -0.085034  -0.151733  0  3.951543  0
C  C38  1  0.89588008  0.47579685  0.77895499  1  0  -0.135378  0  3.714145  0  0  -0.155457  0  3.964181  0  0  -0.160212  0  3.98183  0  0  -0.08505  -0.151797  0  3.951605  0
C  C39  1  0.39588255  0.77895620  0.47579878  1  0  -0.13536  0  3.714102  0  0  -0.155457  0  3.964141  0  0  -0.160196  0  3.981796  0  0  -0.085052  -0.151792  0  3.951562  0
C  C40  1  0.06227178  0.64671674  0.20688483  1  0  0.171912  0  3.748036  0  0  0.168513  0  3.989336  0  0  0.17347  0  4.008075  0  0  0.106796  0.165249  0  3.977198  0
C  C41  1  0.56227236  0.20688596  0.64671588  1  0  0.171923  0  3.748018  0  0  0.168546  0  3.989275  0  0  0.173492  0  4.008034  0  0  0.106838  0.165282  0  3.977197  0
C  C42  1  0.93772695  0.35328440  0.79311413  1  0  0.171957  0  3.747955  0  0  0.168543  0  3.989267  0  0  0.17352  0  4.007985  0  0  0.106815  0.165281  0  3.977165  0
C  C43  1  0.43772565  0.79311638  0.35328545  1  0  0.171986  0  3.747879  0  0  0.168609  0  3.989136  0  0  0.173551  0  4.007899  0  0  0.106833  0.165347  0  3.977023  0
C  C44  1  0.16692013  0.76752436  0.18949204  1  0  0.113686  0  3.660987  0  0  0.104197  0  3.904768  0  0  0.111744  0  3.916989  0  0  0.117494  0.098302  0  3.896876  0
C  C45  1  0.66692055  0.18949253  0.76752293  1  0  0.113708  0  3.660942  0  0  0.104232  0  3.904678  0  0  0.111783  0  3.916901  0  0  0.1175  0.098327  0  3.896866  0
C  C46  1  0.83307892  0.23247442  0.81050602  1  0  0.113635  0  3.661063  0  0  0.104197  0  3.904781  0  0  0.111745  0  3.916997  0  0  0.117486  0.098296  0  3.896952  0
C  C47  1  0.33307928  0.81050865  0.23248130  1  0  0.113627  0  3.661026  0  0  0.104173  0  3.904769  0  0  0.111733  0  3.916997  0  0  0.117451  0.098275  0  3.896895  0
C  C48  1  0.17340870  0.92488936  0.06976094  1  0  0.076799  0  3.706349  0  0  0.044853  0  3.967658  0  0  0.051208  0  3.976505  0  0  0.041224  0.039769  0  3.96308  0
C  C49  1  0.67341095  0.06976161  0.92488635  1  0  0.076859  0  3.706487  0  0  0.044899  0  3.967807  0  0  0.05126  0  3.97665  0  0  0.041232  0.039797  0  3.963276  0
C  C50  1  0.82659043  0.07511296  0.93023859  1  0  0.076894  0  3.706498  0  0  0.044961  0  3.967769  0  0  0.051306  0  3.976645  0  0  0.041261  0.039861  0  3.963237  0
C  C51  1  0.32659333  0.93023952  0.07511471  1  0  0.076874  0  3.706273  0  0  0.044928  0  3.967591  0  0  0.05129  0  3.976446  0  0  0.041205  0.039842  0  3.963027  0
Br  Br52  1  0.87896661  0.08132790  0.30794600  1  0  -0.491062  0  1.234922  0  0  -0.418278  0  1.589212  0  0  -0.443276  0  1.563645  0  0  -0.251666  -0.398282  0  1.605252  0
Br  Br53  1  0.37896476  0.30794346  0.08132256  1  0  -0.491075  0  1.234973  0  0  -0.418272  0  1.58926  0  0  -0.443273  0  1.563693  0  0  -0.251669  -0.398285  0  1.605343  0
Br  Br54  1  0.12103235  0.91866741  0.69205766  1  0  -0.491084  0  1.234933  0  0  -0.418269  0  1.589186  0  0  -0.443271  0  1.56362  0  0  -0.251648  -0.398274  0  1.605248  0
Br  Br55  1  0.62103288  0.69205763  0.91866912  1  0  -0.491068  0  1.234914  0  0  -0.418286  0  1.589205  0  0  -0.443282  0  1.563637  0  0  -0.25165  -0.398282  0  1.605235  0
N  N56  1  0.91538724  0.65521246  0.19764241  1  0  -0.307079  0  3.315223  0  0  -0.244037  0  3.603978  0  0  -0.252176  0  3.610605  0  0  -0.353234  -0.239369  0  3.600302  0
N  N57  1  0.41538808  0.19764325  0.65521219  1  0  -0.307105  0  3.315192  0  0  -0.244071  0  3.603936  0  0  -0.25221  0  3.610565  0  0  -0.353272  -0.239408  0  3.600332  0
N  N58  1  0.08460920  0.34478516  0.80235567  1  0  -0.307055  0  3.315221  0  0  -0.244049  0  3.604006  0  0  -0.252193  0  3.610619  0  0  -0.35326  -0.239387  0  3.600368  0
N  N59  1  0.58460994  0.80235907  0.34478712  1  0  -0.3071  0  3.315087  0  0  -0.24408  0  3.603841  0  0  -0.252221  0  3.610484  0  0  -0.353262  -0.239419  0  3.6002  0
N  N60  1  0.09191274  0.83784858  0.11943559  1  0  -0.263975  0  3.344024  0  0  -0.20384  0  3.638393  0  0  -0.207454  0  3.64107  0  0  -0.345448  -0.20049  0  3.635418  0
N  N61  1  0.59191486  0.11943652  0.83784857  1  0  -0.26401  0  3.343974  0  0  -0.203875  0  3.638338  0  0  -0.207491  0  3.641017  0  0  -0.345491  -0.200534  0  3.635475  0
N  N62  1  0.90808409  0.16215021  0.88056103  1  0  -0.264007  0  3.344099  0  0  -0.20388  0  3.638437  0  0  -0.207501  0  3.641117  0  0  -0.345467  -0.200534  0  3.635529  0
N  N63  1  0.40808790  0.88056347  0.16215575  1  0  -0.263969  0  3.343886  0  0  -0.203862  0  3.638275  0  0  -0.207494  0  3.640972  0  0  -0.345423  -0.200518  0  3.635337  0
