# generated using pymatgen
data_Al2H9C20Br2O10F
_symmetry_space_group_name_H-M   'P 1'
_cell_length_a   6.63676679
_cell_length_b   11.21104936
_cell_length_c   10.97517446
_cell_angle_alpha   78.07495983
_cell_angle_beta   74.48387413
_cell_angle_gamma   71.31295989
_symmetry_Int_Tables_number   1
_chemical_formula_structural   Al2H9C20Br2O10F
_chemical_formula_sum   'Al2 H9 C20 Br2 O10 F1'
_cell_volume   738.79769223
_cell_formula_units_Z   1
loop_
 _symmetry_equiv_pos_site_id
 _symmetry_equiv_pos_as_xyz
  1  'x, y, z'
loop_
 _atom_site_type_symbol
 _atom_site_label
 _atom_site_symmetry_multiplicity
 _atom_site_fract_x
 _atom_site_fract_y
 _atom_site_fract_z
 _atom_site_occupancy
 _atom_site_pbe_bader_charge
 _atom_site_pbe_bader_spin_density
 _atom_site_pbe_cm5_charge
 _atom_site_pbe_ddec_charge
 _atom_site_pbe_ddec_spin_density
 _atom_site_pbe_ddec_sum_bond_order
 _atom_site_pbe_magmom
Al  Al0  1  0.50280416  0.49988501  0.50293992  1  2.501163  0  0.390043  1.644394  0  2.569996  0
Al  Al1  1  0.00471555  0.49679355  0.50265299  1  2.500659  0  0.394959  1.637897  0  2.56449  0
H  H2  1  0.30052462  0.34475932  0.59193695  1  0.637281  0  0.330553  0.409849  0  0.900783  0
H  H3  1  0.70467468  0.65664889  0.43506133  1  0.630901  0  0.345739  0.421795  0  0.872968  0
H  H4  1  0.13426091  0.47635229  0.10465489  1  0.085284  0  0.10713  0.111676  0  1.013952  0
H  H5  1  0.73392966  0.52624989  0.13644936  1  0.126068  0  0.119753  0.149531  0  0.986398  0
H  H6  1  0.28400995  0.46689912  0.87022567  1  0.135882  0  0.109621  0.124185  0  1.016653  0
H  H7  1  0.21381924  0.24676763  0.31747169  1  0.089097  0  0.106207  0.11329  0  1.030084  0
H  H8  1  0.54094292  0.14016784  0.16895645  1  0.06132  0  0.104581  0.102712  0  0.990326  0
H  H9  1  0.42194607  0.77763982  0.32241796  1  0.088859  0  0.106664  0.10977  0  1.033547  0
H  H10  1  0.64357383  0.90480059  0.17052246  1  0.069486  0  0.106541  0.104609  0  0.985119  0
C  C11  1  0.86717325  0.27408868  0.49359850  1  1.591652  0  0.268703  0.654868  0  4.102965  0
C  C12  1  0.66766522  0.48626973  0.73080951  1  1.611905  0  0.264983  0.65404  0  4.105229  0
C  C13  1  0.13534768  0.72351032  0.51125832  1  1.630562  0  0.269313  0.660059  0  4.091204  0
C  C14  1  0.34158005  0.50882604  0.27430489  1  1.572163  0  0.269963  0.635991  0  4.08786  0
C  C15  1  0.59024666  0.49078709  0.87109241  1  0.04106  0  -0.019073  -0.149976  0  3.945248  0
C  C16  1  0.42481842  0.50181748  0.13467549  1  -0.104778  0  -0.006792  -0.005981  0  3.977498  0
C  C17  1  0.71365808  0.50745162  0.94895914  1  0.432568  0  0.109047  0.281845  0  4.035597  0
C  C18  1  0.29760080  0.48438415  0.06000181  1  0.100565  0  -0.085023  -0.110236  0  3.975995  0
C  C19  1  0.63448918  0.51319771  0.07857680  1  0.059675  0  -0.091735  -0.226468  0  3.965928  0
C  C20  1  0.38044222  0.47904078  0.93030624  1  -0.096534  0  -0.074809  -0.063341  0  3.958446  0
C  C21  1  0.93652046  0.13219713  0.49781365  1  0.089142  0  -0.008891  -0.111709  0  3.927845  0
C  C22  1  0.12829052  0.07302602  0.41081601  1  -0.015847  0  0.001708  0.06875  0  3.954917  0
C  C23  1  0.81459874  0.05968290  0.58541037  1  -0.079815  0  -0.015517  0.038018  0  3.950293  0
C  C24  1  0.25840598  0.14409947  0.32007903  1  -0.074683  0  -0.088394  -0.126993  0  3.951892  0
C  C25  1  0.44174652  0.08425306  0.23679271  1  -0.036977  0  -0.087741  -0.075345  0  4.024814  0
C  C26  1  0.06207425  0.86557150  0.50610193  1  0.071757  0  -0.009372  -0.112658  0  3.922867  0
C  C27  1  0.87773360  0.92539609  0.59006269  1  -0.05532  0  -0.017823  0.035823  0  3.967689  0
C  C28  1  0.19060580  0.93766076  0.41415090  1  0.008185  0  0.001364  0.069085  0  3.955406  0
C  C29  1  0.37717797  0.87971724  0.32419855  1  -0.04003  0  -0.091304  -0.135379  0  3.965836  0
C  C30  1  0.50060724  0.95125827  0.23821311  1  -0.022971  0  -0.08815  -0.077044  0  4.032826  0
Br  Br31  1  0.71607199  0.82734285  0.71543433  1  -0.008438  0  0.050789  -0.019969  0  1.531357  0
Br  Br32  1  0.56936483  0.13822248  0.70764077  1  -0.028588  0  0.06388  -0.020156  0  1.53237  0
O  O33  1  0.68385596  0.33357717  0.46622620  1  -1.254198  0  -0.229809  -0.57997  0  2.347404  0
O  O34  1  0.85281146  0.50371386  0.67720798  1  -1.250729  0  -0.236165  -0.593552  0  2.392029  0
O  O35  1  0.01032920  0.67055507  0.48692150  1  -1.257403  0  -0.228625  -0.58903  0  2.361024  0
O  O36  1  0.46081719  0.53790854  0.33069694  1  -1.268571  0  -0.237  -0.596605  0  2.373132  0
O  O37  1  0.32262492  0.66762184  0.53511606  1  -1.255794  0  -0.226635  -0.577397  0  2.332844  0
O  O38  1  0.15891968  0.48652777  0.32633649  1  -1.256643  0  -0.232356  -0.57749  0  2.327273  0
O  O39  1  0.99737365  0.32381363  0.51732210  1  -1.249622  0  -0.225872  -0.577707  0  2.337801  0
O  O40  1  0.53969650  0.46420781  0.67529307  1  -1.267409  0  -0.239401  -0.608292  0  2.393862  0
O  O41  1  0.26553300  0.43403371  0.55663569  1  -1.445455  0  -0.449347  -0.983312  0  2.210247  0
O  O42  1  0.74313917  0.56444540  0.44713379  1  -1.434269  0  -0.449678  -0.983086  0  2.178327  0
F  F43  1  0.91813693  0.51888936  0.89978173  1  -0.631159  0  -0.082028  -0.126495  0  1.417227  0
