# generated using pymatgen
data_Al6H14C36O31
_symmetry_space_group_name_H-M   'P 1'
_cell_length_a   12.27171522
_cell_length_b   11.70113120
_cell_length_c   19.44991453
_cell_angle_alpha   90.03480119
_cell_angle_beta   90.58218573
_cell_angle_gamma   57.91628819
_symmetry_Int_Tables_number   1
_chemical_formula_structural   Al6H14C36O31
_chemical_formula_sum   'Al6 H14 C36 O31'
_cell_volume   2366.16375666
_cell_formula_units_Z   1
loop_
 _symmetry_equiv_pos_site_id
 _symmetry_equiv_pos_as_xyz
  1  'x, y, z'
loop_
 _atom_site_type_symbol
 _atom_site_label
 _atom_site_symmetry_multiplicity
 _atom_site_fract_x
 _atom_site_fract_y
 _atom_site_fract_z
 _atom_site_occupancy
 _atom_site_pbe_bader_charge
 _atom_site_pbe_bader_spin_density
 _atom_site_pbe_cm5_charge
 _atom_site_pbe_ddec_charge
 _atom_site_pbe_ddec_spin_density
 _atom_site_pbe_ddec_sum_bond_order
 _atom_site_pbe_magmom
Al  Al0  1  0.77642131  0.47062874  0.49548962  1  2.494866  0  0.402708  1.678591  0  2.559855  0
Al  Al1  1  0.50296992  0.74944085  0.49369611  1  2.480603  0  0.510875  1.668852  0  2.498822  0
Al  Al2  1  0.74269177  0.76022540  0.49286525  1  2.487302  0  0.508021  1.664724  0  2.501461  0
Al  Al3  1  0.22553380  0.54941004  0.97911526  1  2.492693  0  0.397434  1.684458  0  2.556476  0
Al  Al4  1  0.48929662  0.26168058  0.97610944  1  2.475027  0  0.508873  1.661898  0  2.507828  0
Al  Al5  1  0.24137995  0.26736519  0.97400591  1  2.481715  0  0.505098  1.65887  0  2.513374  0
H  H6  1  0.30383379  0.05999212  0.78981009  1  0.099336  0  0.114283  0.108809  0  0.973395  0
H  H7  1  0.65692486  0.98396827  0.63422485  1  0.633839  0  0.337224  0.370206  0  0.886646  0
H  H8  1  0.07931952  0.39145519  0.71494658  1  0.60163  0  0.320498  0.348347  0  0.921569  0
H  H9  1  0.36572167  0.69156819  0.64104170  1  0.622056  0  0.331056  0.36388  0  0.89955  0
H  H10  1  0.01636333  0.67708202  0.79986459  1  0.120906  0  0.12344  0.126398  0  0.955388  0
H  H11  1  0.65358682  0.31645114  0.80185702  1  0.089523  0  0.112633  0.107297  0  0.974121  0
H  H12  1  0.34945215  0.96954124  0.67378533  1  0.106496  0  0.114153  0.126628  0  0.996173  0
H  H13  1  0.89034900  0.74186390  0.68874790  1  0.112647  0  0.11063  0.132426  0  1.004856  0
H  H14  1  0.70208393  0.37076266  0.68911518  1  0.076859  0  0.114947  0.132513  0  0.991152  0
H  H15  1  0.56734576  0.03425693  0.79147845  1  0.108786  0  0.114469  0.142523  0  1.003295  0
H  H16  1  0.98679072  0.43102678  0.79960009  1  0.077336  0  0.114167  0.132693  0  0.99212  0
H  H17  1  0.40110856  0.59570278  0.79796917  1  0.094964  0  0.109993  0.140678  0  1.007126  0
H  H18  1  0.94433771  0.25635243  0.52822560  1  0.589945  0  0.294755  0.384938  0  0.921061  0
H  H19  1  0.16549395  0.77098911  0.95433562  1  0.560768  0  0.291074  0.378153  0  0.93069  0
C  C20  1  0.89310719  0.56838010  0.39631546  1  1.658829  0  0.282028  0.700848  0  4.165557  0
C  C21  1  0.45149794  0.45810858  0.88358668  1  1.518784  0  0.259829  0.675539  0  4.115233  0
C  C22  1  0.43812549  0.11226048  0.87780669  1  1.51613  0  0.266874  0.679601  0  4.103154  0
C  C23  1  0.08654491  0.46969018  0.88064701  1  1.541065  0  0.258962  0.676239  0  4.125662  0
C  C24  1  0.90270549  0.57817485  0.58944692  1  1.577079  0  0.270934  0.6009  0  4.101822  0
C  C25  1  0.56558421  0.55772808  0.59821032  1  1.569351  0  0.260243  0.56625  0  4.148582  0
C  C26  1  0.52963995  0.91971668  0.58506286  1  1.54143  0  0.270543  0.578297  0  4.13392  0
C  C27  1  0.47078177  0.04177481  0.13553379  1  0.268607  0  0.017648  -0.117951  0  3.799354  0
C  C28  1  0.04478758  0.48151164  0.14218714  1  0.310813  0  0.011378  -0.123436  0  3.820273  0
C  C29  1  0.48528947  0.45799516  0.14827371  1  -0.040787  0  0.012334  -0.11862  0  3.814932  0
C  C30  1  0.49783033  0.98301309  0.26448555  1  0.000914  0  0.021217  0.067352  0  4.184384  0
C  C31  1  0.54779718  0.55072720  0.40322469  1  1.678182  0  0.286499  0.701461  0  4.166656  0
C  C32  1  0.98124176  0.52811358  0.26933249  1  0.18992  0  0.009588  0.054886  0  4.209138  0
C  C33  1  0.51327064  0.49455395  0.27599893  1  -0.250644  0  0.011963  0.060408  0  4.206596  0
C  C34  1  0.48280391  0.01332942  0.19677890  1  -0.322522  0  0.014604  0.046131  0  4.182574  0
C  C35  1  0.01510381  0.50465985  0.20271345  1  -0.412662  0  0.003661  0.034539  0  4.21037  0
C  C36  1  0.49968390  0.47377820  0.20912485  1  -0.088794  0  0.001389  0.028863  0  4.211228  0
C  C37  1  0.51261893  0.95646624  0.32600358  1  -0.024989  0  0.00538  -0.147074  0  3.82476  0
C  C38  1  0.94925407  0.54861643  0.32965801  1  -0.213136  0  -0.002299  -0.151728  0  3.83853  0
C  C39  1  0.52353467  0.51639912  0.33650704  1  0.22315  0  -0.000628  -0.154378  0  3.842409  0
C  C40  1  0.51102036  0.97795695  0.65507313  1  0.501974  0  0.086601  0.151982  0  4.03987  0
C  C41  1  0.96511015  0.54192910  0.65887928  1  0.50315  0  0.089227  0.170285  0  4.029634  0
C  C42  1  0.54442432  0.90470366  0.39485718  1  1.66298  0  0.290176  0.71448  0  4.150401  0
C  C43  1  0.52463473  0.54117553  0.66736122  1  0.453924  0  0.081028  0.151732  0  4.042009  0
C  C44  1  0.47436485  0.05549555  0.80859416  1  -0.016171  0  -0.086845  -0.243445  0  3.851664  0
C  C45  1  0.01739344  0.49995742  0.81442417  1  -0.047729  0  -0.101753  -0.293605  0  3.912283  0
C  C46  1  0.47615876  0.49666738  0.81660239  1  0.01573  0  -0.093736  -0.254725  0  3.86718  0
C  C47  1  0.39414326  0.03835474  0.76728732  1  -0.034407  0  -0.064336  0.015472  0  3.988406  0
C  C48  1  0.99340232  0.60771825  0.77568456  1  -0.092862  0  -0.06001  0.027962  0  3.987685  0
C  C49  1  0.58150727  0.41318915  0.77868127  1  -0.045859  0  -0.0677  0.015909  0  3.99986  0
C  C50  1  0.41592374  0.99334016  0.69726886  1  0.053977  0  -0.091813  -0.181657  0  3.979596  0
C  C51  1  0.94287128  0.63749964  0.70646419  1  0.039301  0  -0.108514  -0.233705  0  4.016486  0
C  C52  1  0.60758041  0.43952176  0.71071945  1  0.086509  0  -0.098048  -0.195184  0  3.990938  0
C  C53  1  0.44958564  0.44259032  0.07958006  1  1.705439  0  0.279937  0.69053  0  4.181602  0
C  C54  1  0.44613593  0.10012831  0.06770242  1  1.665161  0  0.290475  0.704041  0  4.165187  0
C  C55  1  0.09654319  0.45431456  0.07381398  1  1.668702  0  0.283475  0.688955  0  4.182501  0
O  O56  1  0.65213252  0.46763161  0.43343076  1  -1.21738  0  -0.194376  -0.525652  0  2.269748  0
O  O57  1  0.85248715  0.70166479  0.56895241  1  -1.274853  0  -0.248566  -0.60973  0  2.280307  0
O  O58  1  0.89779648  0.48773065  0.55718896  1  -1.225813  0  -0.210073  -0.550003  0  2.353046  0
O  O59  1  0.47354391  0.65730785  0.56251151  1  -1.278005  0  -0.252204  -0.626011  0  2.311622  0
O  O60  1  0.62822279  0.90438630  0.55361845  1  -1.253277  0  -0.23184  -0.593524  0  2.324398  0
O  O61  1  0.67170685  0.66343293  0.49521174  1  -1.612275  0  -0.391957  -1.271872  0  2.301057  0
O  O62  1  0.11035733  0.54333575  0.04648674  1  -1.196799  0  -0.191268  -0.511644  0  2.274065  0
O  O63  1  0.53501788  0.34044773  0.04498508  1  -1.247322  0  -0.236808  -0.594867  0  2.233083  0
O  O64  1  0.34393652  0.12330422  0.03694939  1  -1.232797  0  -0.216955  -0.56908  0  2.248635  0
O  O65  1  0.33612176  0.52843400  0.06074461  1  -1.202192  0  -0.196964  -0.530987  0  2.281743  0
O  O66  1  0.52552958  0.13032413  0.04603550  1  -1.223145  0  -0.213609  -0.56229  0  2.24262  0
O  O67  1  0.46584681  0.88296844  0.42591493  1  -1.240304  0  -0.219625  -0.581005  0  2.248821  0
O  O68  1  0.12843970  0.33909745  0.04827316  1  -1.241886  0  -0.234114  -0.590234  0  2.236402  0
O  O69  1  0.12569164  0.54454308  0.90080846  1  -1.246812  0  -0.217538  -0.574766  0  2.346789  0
O  O70  1  0.53337745  0.33899803  0.90801629  1  -1.281059  0  -0.252078  -0.623469  0  2.265809  0
O  O71  1  0.32700061  0.14684194  0.90103937  1  -1.277235  0  -0.240667  -0.613619  0  2.284045  0
O  O72  1  0.34730313  0.54376175  0.91289704  1  -1.256326  0  -0.227577  -0.599376  0  2.32097  0
O  O73  1  0.51986103  0.12990966  0.91010347  1  -1.260084  0  -0.236261  -0.601644  0  2.268157  0
O  O74  1  0.10674630  0.36235541  0.91236356  1  -1.271218  0  -0.255818  -0.623626  0  2.243224  0
O  O75  1  0.60027441  0.00643744  0.67419552  1  -1.126784  0  -0.324163  -0.388221  0  2.299132  0
O  O76  1  0.03887083  0.40693934  0.66925713  1  -1.108448  0  -0.335137  -0.39249  0  2.298316  0
O  O77  1  0.40118169  0.63541287  0.68289512  1  -1.120542  0  -0.331461  -0.395989  0  2.3018  0
O  O78  1  0.87794434  0.66857203  0.43257266  1  -1.254619  0  -0.243105  -0.611135  0  2.227706  0
O  O79  1  0.31990325  0.35679266  0.97771794  1  -1.612954  0  -0.391291  -1.27099  0  2.296735  0
O  O80  1  0.85908547  0.48779264  0.41331627  1  -1.204079  0  -0.197686  -0.538945  0  2.285565  0
O  O81  1  0.46111021  0.66854246  0.42588032  1  -1.250304  0  -0.237137  -0.600009  0  2.223764  0
O  O82  1  0.65304296  0.87858644  0.41880676  1  -1.238717  0  -0.220152  -0.577578  0  2.238725  0
O  O83  1  0.68007139  0.48202543  0.57974682  1  -1.239277  0  -0.206639  -0.532207  0  2.371638  0
O  O84  1  0.45513347  0.88289522  0.56227652  1  -1.264697  0  -0.227824  -0.570047  0  2.310295  0
O  O85  1  0.87005072  0.29450771  0.49792626  1  -1.369284  0  -0.571133  -0.984596  0  1.785776  0
O  O86  1  0.13716903  0.72579927  0.98404587  1  -1.339355  0  -0.572613  -0.984432  0  1.794817  0
