# generated using pymatgen
data_TlH4C7N3O
_symmetry_space_group_name_H-M   'P 1'
_cell_length_a   3.97714163
_cell_length_b   9.24814582
_cell_length_c   12.04202610
_cell_angle_alpha   69.13470779
_cell_angle_beta   87.77585280
_cell_angle_gamma   81.05189142
_symmetry_Int_Tables_number   1
_chemical_formula_structural   TlH4C7N3O
_chemical_formula_sum   'Tl2 H8 C14 N6 O2'
_cell_volume   408.77044485
_cell_formula_units_Z   2
loop_
 _symmetry_equiv_pos_site_id
 _symmetry_equiv_pos_as_xyz
  1  'x, y, z'
loop_
 _atom_site_type_symbol
 _atom_site_label
 _atom_site_symmetry_multiplicity
 _atom_site_fract_x
 _atom_site_fract_y
 _atom_site_fract_z
 _atom_site_occupancy
 _atom_site_hle17_bader_spin_density
 _atom_site_hle17_ddec_charge
 _atom_site_hle17_ddec_spin_density
 _atom_site_hle17_ddec_sum_bond_order
 _atom_site_hle17_magmom
 _atom_site_hse06_10hf_bader_spin_density
 _atom_site_hse06_10hf_ddec_charge
 _atom_site_hse06_10hf_ddec_spin_density
 _atom_site_hse06_10hf_ddec_sum_bond_order
 _atom_site_hse06_10hf_magmom
 _atom_site_hse06_bader_spin_density
 _atom_site_hse06_ddec_charge
 _atom_site_hse06_ddec_spin_density
 _atom_site_hse06_ddec_sum_bond_order
 _atom_site_hse06_magmom
 _atom_site_pbe_bader_spin_density
 _atom_site_pbe_cm5_charge
 _atom_site_pbe_ddec_charge
 _atom_site_pbe_ddec_spin_density
 _atom_site_pbe_ddec_sum_bond_order
 _atom_site_pbe_magmom
Tl  Tl0  1  0.16715603  0.93803765  0.35953669  1  0  0.777416  0  0.834187  0  0  0.650576  0  1.128018  0  0  0.684115  0  1.105816  0  0  0.396156  0.625025  0  1.144484  0
Tl  Tl1  1  0.83284536  0.06195961  0.64046529  1  0  0.777418  0  0.834139  0  0  0.650567  0  1.127963  0  0  0.684108  0  1.105761  0  0  0.396156  0.62501  0  1.144415  0
H  H2  1  0.24644149  0.56936216  0.05573998  1  0  0.098691  0  0.944848  0  0  0.11016  0  1.005341  0  0  0.112876  0  1.004016  0  0  0.103925  0.108212  0  1.006327  0
H  H3  1  0.75357292  0.43063407  0.94426625  1  0  0.098688  0  0.944823  0  0  0.110191  0  1.005278  0  0  0.11291  0  1.003951  0  0  0.103926  0.108239  0  1.006273  0
H  H4  1  0.94874009  0.84016310  0.96241771  1  0  0.100361  0  0.969748  0  0  0.108093  0  1.037082  0  0  0.110893  0  1.036118  0  0  0.102511  0.106151  0  1.037793  0
H  H5  1  0.05128933  0.15983317  0.03758331  1  0  0.100435  0  0.969651  0  0  0.108105  0  1.03708  0  0  0.110901  0  1.036118  0  0  0.102518  0.10617  0  1.03776  0
H  H6  1  0.59995882  0.96920063  0.09175491  1  0  0.065202  0  0.964177  0  0  0.07423  0  1.033182  0  0  0.076199  0  1.032019  0  0  0.107357  0.072833  0  1.034044  0
H  H7  1  0.40007217  0.03080500  0.90823931  1  0  0.065165  0  0.964167  0  0  0.07418  0  1.033195  0  0  0.076144  0  1.032041  0  0  0.10736  0.072785  0  1.034056  0
H  H8  1  0.81625701  0.56965638  0.39116636  1  0  0.080795  0  0.945558  0  0  0.079213  0  1.026458  0  0  0.082822  0  1.022517  0  0  0.113782  0.076567  0  1.029325  0
H  H9  1  0.18371709  0.43034647  0.60882780  1  0  0.080798  0  0.945505  0  0  0.079245  0  1.026378  0  0  0.082847  0  1.022434  0  0  0.113782  0.076594  0  1.029242  0
C  C10  1  0.23182738  0.38643706  0.29198813  1  0  0.019492  0  3.865475  0  0  0.016254  0  4.125919  0  0  0.011294  0  4.145643  0  0  0.08652  0.019552  0  4.112568  0
C  C11  1  0.76816144  0.61356008  0.70801157  1  0  0.01957  0  3.865128  0  0  0.01633  0  4.125591  0  0  0.011371  0  4.145317  0  0  0.086533  0.019633  0  4.112232  0
C  C12  1  0.43942383  0.30614076  0.22666242  1  0  0.268384  0  3.783534  0  0  0.249369  0  4.059744  0  0  0.264529  0  4.075704  0  0  0.186969  0.238921  0  4.049012  0
C  C13  1  0.56054965  0.69385052  0.77334912  1  0  0.268166  0  3.783942  0  0  0.249141  0  4.060177  0  0  0.264295  0  4.076135  0  0  0.186894  0.238697  0  4.04943  0
C  C14  1  0.05836449  0.54602009  0.23225766  1  0  0.007288  0  3.795159  0  0  0.021823  0  4.031817  0  0  0.01935  0  4.057647  0  0  -0.001602  0.023255  0  4.014462  0
C  C15  1  0.94163100  0.45397945  0.76774128  1  0  0.007288  0  3.7951  0  0  0.021817  0  4.03178  0  0  0.019343  0  4.057611  0  0  -0.001519  0.023237  0  4.014432  0
C  C16  1  0.08956371  0.62546951  0.10978009  1  0  -0.054664  0  3.683161  0  0  -0.079263  0  3.928709  0  0  -0.079091  0  3.948422  0  0  -0.073332  -0.079076  0  3.915215  0
C  C17  1  0.91043768  0.37452775  0.89022189  1  0  -0.054647  0  3.683112  0  0  -0.079262  0  3.928639  0  0  -0.079089  0  3.948352  0  0  -0.073382  -0.079072  0  3.915151  0
C  C18  1  0.92289121  0.77810593  0.05719532  1  0  -0.106013  0  3.757402  0  0  -0.117024  0  4.007821  0  0  -0.122016  0  4.029595  0  0  -0.086946  -0.113796  0  3.993034  0
C  C19  1  0.07713611  0.22189624  0.94280740  1  0  -0.106063  0  3.757387  0  0  -0.117028  0  4.007808  0  0  -0.122019  0  4.029582  0  0  -0.086908  -0.113789  0  3.993028  0
C  C20  1  0.72843357  0.84843227  0.12805066  1  0  0.086128  0  3.777635  0  0  0.057974  0  4.031446  0  0  0.062567  0  4.052021  0  0  0.028671  0.05514  0  4.017015  0
C  C21  1  0.27157613  0.15156972  0.87194821  1  0  0.086156  0  3.777574  0  0  0.058012  0  4.031387  0  0  0.06261  0  4.051957  0  0  0.028622  0.055167  0  4.01697  0
C  C22  1  0.85065601  0.62642701  0.29593629  1  0  0.084335  0  3.702615  0  0  0.049101  0  3.961245  0  0  0.053724  0  3.979401  0  0  0.046353  0.046052  0  3.948833  0
C  C23  1  0.14934323  0.37357608  0.70406243  1  0  0.084277  0  3.702601  0  0  0.04901  0  3.961286  0  0  0.053642  0  3.979436  0  0  0.04627  0.045976  0  3.948857  0
N  N24  1  0.19180575  0.31400013  0.40780923  1  0  -0.062931  0  3.105681  0  0  -0.044721  0  3.381305  0  0  -0.038045  0  3.39554  0  0  -0.180547  -0.048239  0  3.370322  0
N  N25  1  0.80818263  0.68600526  0.59219149  1  0  -0.06291  0  3.105636  0  0  -0.044693  0  3.381253  0  0  -0.038018  0  3.395487  0  0  -0.180524  -0.04821  0  3.370267  0
N  N26  1  0.61711783  0.23405156  0.17865897  1  0  -0.450845  0  2.627469  0  0  -0.413928  0  2.864447  0  0  -0.429215  0  2.87751  0  0  -0.304406  -0.403331  0  2.855725  0
N  N27  1  0.38286844  0.76593842  0.82133530  1  0  -0.450641  0  2.628082  0  0  -0.413713  0  2.865033  0  0  -0.428995  0  2.878094  0  0  -0.304356  -0.403117  0  2.856306  0
N  N28  1  0.69208140  0.77335690  0.24533727  1  0  -0.37914  0  3.263413  0  0  -0.307468  0  3.515742  0  0  -0.325213  0  3.540052  0  0  -0.319427  -0.294761  0  3.498672  0
N  N29  1  0.30791281  0.22664614  0.75466070  1  0  -0.379128  0  3.26331  0  0  -0.307443  0  3.515644  0  0  -0.325188  0  3.53995  0  0  -0.319368  -0.294736  0  3.498562  0
O  O30  1  0.33766200  0.16785481  0.45479491  1  0  -0.534505  0  2.006011  0  0  -0.454391  0  2.260699  0  0  -0.484793  0  2.26569  0  0  -0.205972  -0.43251  0  2.256161  0
O  O31  1  0.66232468  0.83214817  0.54520236  1  0  -0.534566  0  2.006033  0  0  -0.454456  0  2.260739  0  0  -0.484859  0  2.265731  0  0  -0.206016  -0.432578  0  2.256202  0
