# generated using pymatgen
data_ZnTeH6C2N
_symmetry_space_group_name_H-M   'P 1'
_cell_length_a   6.89851786
_cell_length_b   6.98357992
_cell_length_c   20.64467499
_cell_angle_alpha   90.00049769
_cell_angle_beta   90.00009117
_cell_angle_gamma   89.99899470
_symmetry_Int_Tables_number   1
_chemical_formula_structural   ZnTeH6C2N
_chemical_formula_sum   'Zn8 Te8 H48 C16 N8'
_cell_volume   994.58510501
_cell_formula_units_Z   8
loop_
 _symmetry_equiv_pos_site_id
 _symmetry_equiv_pos_as_xyz
  1  'x, y, z'
loop_
 _atom_site_type_symbol
 _atom_site_label
 _atom_site_symmetry_multiplicity
 _atom_site_fract_x
 _atom_site_fract_y
 _atom_site_fract_z
 _atom_site_occupancy
 _atom_site_hle17_bader_spin_density
 _atom_site_hle17_ddec_charge
 _atom_site_hle17_ddec_spin_density
 _atom_site_hle17_ddec_sum_bond_order
 _atom_site_hle17_magmom
 _atom_site_hse06_10hf_bader_spin_density
 _atom_site_hse06_10hf_ddec_charge
 _atom_site_hse06_10hf_ddec_spin_density
 _atom_site_hse06_10hf_ddec_sum_bond_order
 _atom_site_hse06_10hf_magmom
 _atom_site_hse06_bader_spin_density
 _atom_site_hse06_ddec_charge
 _atom_site_hse06_ddec_spin_density
 _atom_site_hse06_ddec_sum_bond_order
 _atom_site_hse06_magmom
 _atom_site_pbe_bader_spin_density
 _atom_site_pbe_cm5_charge
 _atom_site_pbe_ddec_charge
 _atom_site_pbe_ddec_spin_density
 _atom_site_pbe_ddec_sum_bond_order
 _atom_site_pbe_magmom
Zn  Zn0  1  0.73974062  0.09423578  0.70712980  1  0  0.571522  0  2.254383  0  0  0.447581  0  2.685476  0  0  0.486256  0  2.657984  0  0  0.308458  0.421626  0  2.703439  0
Zn  Zn1  1  0.26024525  0.40576440  0.20713104  1  0  0.571611  0  2.254379  0  0  0.447645  0  2.685476  0  0  0.486319  0  2.657983  0  0  0.308468  0.421694  0  2.703446  0
Zn  Zn2  1  0.23975069  0.90574609  0.79286330  1  0  0.571467  0  2.254238  0  0  0.447511  0  2.68532  0  0  0.486188  0  2.65783  0  0  0.308403  0.421553  0  2.703293  0
Zn  Zn3  1  0.76025617  0.59426138  0.29286894  1  0  0.571466  0  2.254083  0  0  0.447504  0  2.685149  0  0  0.486183  0  2.657658  0  0  0.308373  0.42155  0  2.703116  0
Zn  Zn4  1  0.26026009  0.90577091  0.29286746  1  0  0.571636  0  2.254438  0  0  0.447683  0  2.685546  0  0  0.486353  0  2.658048  0  0  0.308492  0.421742  0  2.7035  0
Zn  Zn5  1  0.73973807  0.59423370  0.79287301  1  0  0.571459  0  2.254294  0  0  0.447514  0  2.685383  0  0  0.486192  0  2.657893  0  0  0.308423  0.421556  0  2.703349  0
Zn  Zn6  1  0.76025582  0.09425058  0.20713058  1  0  0.571671  0  2.254305  0  0  0.447721  0  2.685396  0  0  0.486392  0  2.6579  0  0  0.308466  0.421774  0  2.70336  0
Zn  Zn7  1  0.23972714  0.40574388  0.70713220  1  0  0.571461  0  2.254388  0  0  0.447503  0  2.685483  0  0  0.486179  0  2.657995  0  0  0.308395  0.421543  0  2.703456  0
Te  Te8  1  0.11566537  0.05209260  0.68389768  1  0  -0.695778  0  2.274986  0  0  -0.599099  0  2.762405  0  0  -0.636436  0  2.736241  0  0  -0.282246  -0.57309  0  2.780233  0
Te  Te9  1  0.88432605  0.44790835  0.18390129  1  0  -0.695886  0  2.275049  0  0  -0.599165  0  2.762459  0  0  -0.636508  0  2.736292  0  0  -0.282238  -0.573152  0  2.780283  0
Te  Te10  1  0.61566828  0.94789224  0.81609871  1  0  -0.695796  0  2.274944  0  0  -0.59912  0  2.762353  0  0  -0.636445  0  2.736162  0  0  -0.282254  -0.57311  0  2.780179  0
Te  Te11  1  0.38433013  0.55211303  0.31609684  1  0  -0.695913  0  2.274954  0  0  -0.599231  0  2.762345  0  0  -0.636561  0  2.736165  0  0  -0.282314  -0.57323  0  2.780177  0
Te  Te12  1  0.88433534  0.94791266  0.31609861  1  0  -0.695847  0  2.274848  0  0  -0.599193  0  2.762284  0  0  -0.636534  0  2.73612  0  0  -0.282256  -0.57319  0  2.78011  0
Te  Te13  1  0.11566307  0.55209547  0.81609985  1  0  -0.695806  0  2.274947  0  0  -0.599131  0  2.762338  0  0  -0.636464  0  2.73617  0  0  -0.282261  -0.573119  0  2.780162  0
Te  Te14  1  0.38433533  0.05210872  0.18389855  1  0  -0.695853  0  2.274951  0  0  -0.599143  0  2.762345  0  0  -0.636481  0  2.736166  0  0  -0.282281  -0.573133  0  2.780165  0
Te  Te15  1  0.61565319  0.44789223  0.68390430  1  0  -0.695749  0  2.274817  0  0  -0.599073  0  2.76221  0  0  -0.63641  0  2.736037  0  0  -0.282256  -0.573065  0  2.780038  0
H  H16  1  0.46673794  0.99120287  0.62901394  1  0  0.26733  0  0.947105  0  0  0.259742  0  1.005292  0  0  0.266123  0  1.001187  0  0  0.259196  0.255037  0  1.008479  0
H  H17  1  0.53327730  0.50878403  0.12902362  1  0  0.267289  0  0.947194  0  0  0.259668  0  1.005442  0  0  0.266057  0  1.001317  0  0  0.259099  0.254961  0  1.008629  0
H  H18  1  0.96675233  0.00877788  0.87097658  1  0  0.267354  0  0.947261  0  0  0.25974  0  1.005435  0  0  0.266117  0  1.001337  0  0  0.259213  0.255043  0  1.008611  0
H  H19  1  0.03323386  0.49122425  0.37098716  1  0  0.267335  0  0.947376  0  0  0.259722  0  1.005522  0  0  0.266095  0  1.001432  0  0  0.259279  0.255028  0  1.008693  0
H  H20  1  0.53329321  0.00879236  0.37097896  1  0  0.26726  0  0.947147  0  0  0.259669  0  1.005368  0  0  0.266054  0  1.001249  0  0  0.259042  0.25496  0  1.008569  0
H  H21  1  0.46672487  0.49119545  0.87098042  1  0  0.267258  0  0.947333  0  0  0.259673  0  1.005482  0  0  0.266049  0  1.00139  0  0  0.259174  0.254969  0  1.008666  0
H  H22  1  0.03331361  0.99123024  0.12902455  1  0  0.267108  0  0.947308  0  0  0.259516  0  1.005515  0  0  0.265899  0  1.001401  0  0  0.258949  0.254814  0  1.008697  0
H  H23  1  0.96671032  0.50878530  0.62901931  1  0  0.267246  0  0.947311  0  0  0.259659  0  1.005486  0  0  0.266045  0  1.001372  0  0  0.2591  0.254956  0  1.008666  0
H  H24  1  0.61237775  0.80465264  0.63594849  1  0  0.266356  0  0.948322  0  0  0.256301  0  1.012836  0  0  0.263177  0  1.007878  0  0  0.255419  0.251033  0  1.01706  0
H  H25  1  0.38762639  0.69535393  0.13595318  1  0  0.26639  0  0.94815  0  0  0.256272  0  1.012732  0  0  0.263148  0  1.007779  0  0  0.255394  0.251007  0  1.01696  0
H  H26  1  0.11237477  0.19530793  0.86405277  1  0  0.266546  0  0.948128  0  0  0.256457  0  1.012618  0  0  0.263328  0  1.007667  0  0  0.255593  0.251194  0  1.016843  0
H  H27  1  0.88762251  0.30470174  0.36405413  1  0  0.266471  0  0.948228  0  0  0.256395  0  1.012679  0  0  0.263264  0  1.007729  0  0  0.255581  0.251135  0  1.016899  0
H  H28  1  0.38762731  0.19537267  0.36405071  1  0  0.266465  0  0.947969  0  0  0.256305  0  1.012593  0  0  0.26318  0  1.007637  0  0  0.255351  0.251038  0  1.016821  0
H  H29  1  0.61236273  0.30465849  0.86405135  1  0  0.266362  0  0.948334  0  0  0.256272  0  1.012846  0  0  0.263148  0  1.007892  0  0  0.255452  0.251007  0  1.017064  0
H  H30  1  0.88763753  0.80465007  0.13594401  1  0  0.266483  0  0.947831  0  0  0.256316  0  1.012461  0  0  0.263193  0  1.007501  0  0  0.25533  0.25105  0  1.016692  0
H  H31  1  0.11235936  0.69533502  0.63594992  1  0  0.266464  0  0.94801  0  0  0.256353  0  1.012558  0  0  0.263229  0  1.007606  0  0  0.255387  0.251085  0  1.016781  0
H  H32  1  0.72695414  0.15563070  0.56608634  1  0  0.04564  0  0.961002  0  0  0.061645  0  1.031291  0  0  0.061909  0  1.031716  0  0  0.089042  0.061414  0  1.030914  0
H  H33  1  0.27306350  0.34435666  0.06609304  1  0  0.045812  0  0.960833  0  0  0.06175  0  1.031207  0  0  0.062013  0  1.031626  0  0  0.089067  0.061516  0  1.030829  0
H  H34  1  0.22690992  0.84431138  0.93390103  1  0  0.045586  0  0.960916  0  0  0.06155  0  1.031363  0  0  0.061821  0  1.031767  0  0  0.088921  0.061321  0  1.030981  0
H  H35  1  0.77305212  0.65566881  0.43391363  1  0  0.045672  0  0.960959  0  0  0.06169  0  1.03129  0  0  0.06196  0  1.0317  0  0  0.089043  0.061461  0  1.030912  0
H  H36  1  0.27308281  0.84436167  0.43391044  1  0  0.045772  0  0.961078  0  0  0.061713  0  1.031398  0  0  0.061976  0  1.03182  0  0  0.089091  0.061478  0  1.031025  0
H  H37  1  0.72690677  0.65563571  0.93391343  1  0  0.045611  0  0.961157  0  0  0.061687  0  1.031482  0  0  0.061956  0  1.031892  0  0  0.089082  0.061454  0  1.031103  0
H  H38  1  0.77317632  0.15569387  0.06608800  1  0  0.045872  0  0.960959  0  0  0.061769  0  1.031355  0  0  0.062042  0  1.031762  0  0  0.089015  0.061539  0  1.030979  0
H  H39  1  0.22691670  0.34435793  0.56608896  1  0  0.045735  0  0.961302  0  0  0.061761  0  1.031487  0  0  0.062028  0  1.031903  0  0  0.089099  0.06153  0  1.03111  0
H  H40  1  0.84859337  0.93414118  0.56657212  1  0  0.050307  0  0.944371  0  0  0.066781  0  1.00974  0  0  0.06772  0  1.009104  0  0  0.089271  0.065917  0  1.010506  0
H  H41  1  0.15142892  0.56583339  0.06657561  1  0  0.050288  0  0.944454  0  0  0.066713  0  1.009816  0  0  0.067661  0  1.009166  0  0  0.089341  0.065852  0  1.010581  0
H  H42  1  0.34860702  0.06574789  0.93341779  1  0  0.05035  0  0.944193  0  0  0.066943  0  1.009454  0  0  0.06782  0  1.008877  0  0  0.089417  0.066082  0  1.010223  0
H  H43  1  0.65138951  0.43421218  0.43342368  1  0  0.050395  0  0.944263  0  0  0.066975  0  1.00951  0  0  0.067882  0  1.008905  0  0  0.089409  0.066111  0  1.01028  0
H  H44  1  0.15145518  0.06583115  0.43343338  1  0  0.050279  0  0.944775  0  0  0.066715  0  1.010076  0  0  0.067661  0  1.009429  0  0  0.08934  0.065857  0  1.010835  0
H  H45  1  0.84855440  0.43417188  0.93343134  1  0  0.050263  0  0.944389  0  0  0.066783  0  1.009771  0  0  0.067701  0  1.009154  0  0  0.089365  0.065923  0  1.010532  0
H  H46  1  0.65145023  0.93428744  0.06657028  1  0  0.050394  0  0.944515  0  0  0.066807  0  1.009883  0  0  0.067719  0  1.009271  0  0  0.089383  0.065954  0  1.010645  0
H  H47  1  0.34852422  0.56580884  0.56656535  1  0  0.05045  0  0.944601  0  0  0.066824  0  1.009951  0  0  0.067756  0  1.009315  0  0  0.089421  0.065969  0  1.01071  0
H  H48  1  0.69029750  0.96026366  0.46333235  1  0  0.059749  0  0.961634  0  0  0.074374  0  1.032746  0  0  0.076174  0  1.03153  0  0  0.080026  0.072945  0  1.03382  0
H  H49  1  0.30972467  0.53974105  0.96334156  1  0  0.059826  0  0.961701  0  0  0.074427  0  1.032851  0  0  0.076225  0  1.031639  0  0  0.08003  0.073  0  1.033922  0
H  H50  1  0.19032750  0.03969505  0.03666134  1  0  0.059661  0  0.961699  0  0  0.074275  0  1.03285  0  0  0.076072  0  1.031642  0  0  0.079995  0.072845  0  1.033921  0
H  H51  1  0.80965611  0.46028785  0.53667236  1  0  0.059688  0  0.961317  0  0  0.074237  0  1.032596  0  0  0.07603  0  1.031382  0  0  0.08  0.072813  0  1.033663  0
H  H52  1  0.30976990  0.03973157  0.53666055  1  0  0.059862  0  0.96185  0  0  0.074456  0  1.032967  0  0  0.076245  0  1.031756  0  0  0.080094  0.073031  0  1.034028  0
H  H53  1  0.69026735  0.46027710  0.03666733  1  0  0.059751  0  0.961815  0  0  0.074408  0  1.032886  0  0  0.076204  0  1.03167  0  0  0.080049  0.07298  0  1.033953  0
H  H54  1  0.80977468  0.96027727  0.96334222  1  0  0.059847  0  0.96194  0  0  0.07446  0  1.033002  0  0  0.076244  0  1.031797  0  0  0.0801  0.073035  0  1.03406  0
H  H55  1  0.19019820  0.53971742  0.46334041  1  0  0.059929  0  0.962023  0  0  0.074575  0  1.03305  0  0  0.076362  0  1.031848  0  0  0.080115  0.073148  0  1.034119  0
H  H56  1  0.55678876  0.78820499  0.50738585  1  0  0.065308  0  0.936217  0  0  0.088262  0  0.991708  0  0  0.088548  0  0.99288  0  0  0.089116  0.087919  0  0.991109  0
H  H57  1  0.44322922  0.71176632  0.00739771  1  0  0.06535  0  0.936405  0  0  0.088377  0  0.991789  0  0  0.088693  0  0.992922  0  0  0.089174  0.088022  0  0.991197  0
H  H58  1  0.05683120  0.21177553  0.99260370  1  0  0.065254  0  0.935907  0  0  0.088286  0  0.99135  0  0  0.088602  0  0.992478  0  0  0.089199  0.087938  0  0.990763  0
H  H59  1  0.94316239  0.28820927  0.49261115  1  0  0.06532  0  0.935893  0  0  0.088341  0  0.991356  0  0  0.088672  0  0.992463  0  0  0.089158  0.087984  0  0.99077  0
H  H60  1  0.44325978  0.21174872  0.49261142  1  0  0.065486  0  0.936574  0  0  0.088391  0  0.992048  0  0  0.088702  0  0.99319  0  0  0.08924  0.088037  0  0.991444  0
H  H61  1  0.55676280  0.28821603  0.99261603  1  0  0.065361  0  0.9362  0  0  0.088308  0  0.9917  0  0  0.088593  0  0.992868  0  0  0.089175  0.087959  0  0.991099  0
H  H62  1  0.94323620  0.78824692  0.00739502  1  0  0.065356  0  0.936346  0  0  0.088349  0  0.991737  0  0  0.088654  0  0.992879  0  0  0.089194  0.087997  0  0.991141  0
H  H63  1  0.05673105  0.71175733  0.50739629  1  0  0.065498  0  0.936227  0  0  0.088489  0  0.991622  0  0  0.088819  0  0.992733  0  0  0.089266  0.088139  0  0.991025  0
C  C64  1  0.70378507  0.99974675  0.56602587  1  0  0.074658  0  3.658128  0  0  0.019475  0  3.91865  0  0  0.023779  0  3.931596  0  0  -0.085168  0.016673  0  3.9096  0
C  C65  1  0.29621543  0.50023632  0.06601649  1  0  0.07468  0  3.658341  0  0  0.019596  0  3.918771  0  0  0.023904  0  3.931711  0  0  -0.085231  0.016801  0  3.909727  0
C  C66  1  0.20378499  0.00017870  0.93395295  1  0  0.074739  0  3.658086  0  0  0.019374  0  3.918809  0  0  0.023725  0  3.931741  0  0  -0.08522  0.016575  0  3.909756  0
C  C67  1  0.79619999  0.49979433  0.43395804  1  0  0.074516  0  3.658924  0  0  0.019148  0  3.919641  0  0  0.02347  0  3.932594  0  0  -0.085376  0.016348  0  3.910596  0
C  C68  1  0.29623449  0.00023417  0.43399852  1  0  0.074644  0  3.658776  0  0  0.019628  0  3.918961  0  0  0.023931  0  3.931891  0  0  -0.08523  0.016822  0  3.909915  0
C  C69  1  0.70375049  0.49976608  0.93397254  1  0  0.074831  0  3.658866  0  0  0.01935  0  3.919723  0  0  0.023675  0  3.93266  0  0  -0.085336  0.016543  0  3.910673  0
C  C70  1  0.79625921  0.99983658  0.06600072  1  0  0.074558  0  3.658243  0  0  0.019454  0  3.918567  0  0  0.023782  0  3.931479  0  0  -0.0852  0.016632  0  3.909547  0
C  C71  1  0.20376739  0.50019804  0.56601597  1  0  0.074577  0  3.659324  0  0  0.019526  0  3.919536  0  0  0.023844  0  3.932473  0  0  -0.085371  0.016712  0  3.910506  0
C  C72  1  0.59250420  0.94205959  0.50526080  1  0  -0.134804  0  3.688029  0  0  -0.17222  0  3.943256  0  0  -0.174161  0  3.95795  0  0  -0.171265  -0.170678  0  3.933011  0
C  C73  1  0.40747304  0.55795436  0.00527468  1  0  -0.134757  0  3.68861  0  0  -0.1722  0  3.943801  0  0  -0.174153  0  3.958491  0  0  -0.171228  -0.170649  0  3.933558  0
C  C74  1  0.09252675  0.05788571  0.99472946  1  0  -0.134583  0  3.687269  0  0  -0.172045  0  3.942614  0  0  -0.173973  0  3.957242  0  0  -0.171292  -0.170513  0  3.932397  0
C  C75  1  0.90744815  0.44208509  0.49472716  1  0  -0.134585  0  3.686906  0  0  -0.172027  0  3.942343  0  0  -0.173965  0  3.957005  0  0  -0.171226  -0.170478  0  3.932105  0
C  C76  1  0.40749506  0.05795713  0.49473259  1  0  -0.134711  0  3.689521  0  0  -0.172087  0  3.944575  0  0  -0.174032  0  3.959258  0  0  -0.171333  -0.170509  0  3.934292  0
C  C77  1  0.59251463  0.44206665  0.99473275  1  0  -0.134958  0  3.688265  0  0  -0.172296  0  3.943549  0  0  -0.174234  0  3.958244  0  0  -0.171379  -0.170737  0  3.93329  0
C  C78  1  0.90749861  0.94205512  0.00526490  1  0  -0.134767  0  3.689286  0  0  -0.17212  0  3.944326  0  0  -0.174063  0  3.959012  0  0  -0.171353  -0.170542  0  3.934055  0
C  C79  1  0.09251632  0.55793305  0.50527446  1  0  -0.135191  0  3.688906  0  0  -0.172617  0  3.944023  0  0  -0.17457  0  3.958698  0  0  -0.171455  -0.171055  0  3.933777  0
N  N80  1  0.61027331  0.95050276  0.62801099  1  0  -0.57036  0  3.175193  0  0  -0.502918  0  3.402767  0  0  -0.523184  0  3.403059  0  0  -0.631824  -0.48888  0  3.402849  0
N  N81  1  0.38972156  0.54948399  0.12801831  1  0  -0.570498  0  3.174618  0  0  -0.502949  0  3.402097  0  0  -0.523225  0  3.402395  0  0  -0.631782  -0.488924  0  3.402195  0
N  N82  1  0.11026672  0.04947648  0.87199368  1  0  -0.570562  0  3.175765  0  0  -0.503013  0  3.403397  0  0  -0.523273  0  3.403682  0  0  -0.631979  -0.488989  0  3.403491  0
N  N83  1  0.88973694  0.45052438  0.37200303  1  0  -0.570397  0  3.175975  0  0  -0.502825  0  3.403582  0  0  -0.523085  0  3.403884  0  0  -0.631982  -0.488804  0  3.403663  0
N  N84  1  0.38972161  0.04947673  0.37198385  1  0  -0.570673  0  3.174133  0  0  -0.50315  0  3.401715  0  0  -0.523408  0  3.401992  0  0  -0.631757  -0.489122  0  3.401826  0
N  N85  1  0.61024871  0.45050265  0.87199591  1  0  -0.570243  0  3.17543  0  0  -0.502671  0  3.403124  0  0  -0.522937  0  3.403421  0  0  -0.631803  -0.488632  0  3.403202  0
N  N86  1  0.88973689  0.95055313  0.12802102  1  0  -0.570655  0  3.17394  0  0  -0.503086  0  3.401514  0  0  -0.523344  0  3.401787  0  0  -0.631659  -0.489057  0  3.401631  0
N  N87  1  0.11025508  0.54946370  0.62800925  1  0  -0.570518  0  3.174826  0  0  -0.503016  0  3.40228  0  0  -0.523293  0  3.402578  0  0  -0.631724  -0.488973  0  3.402366  0
