# generated using pymatgen
data_CdH12C16NO7
_symmetry_space_group_name_H-M   'P 1'
_cell_length_a   7.11640178
_cell_length_b   7.47599280
_cell_length_c   14.95568336
_cell_angle_alpha   80.53936352
_cell_angle_beta   88.78188704
_cell_angle_gamma   68.56044662
_symmetry_Int_Tables_number   1
_chemical_formula_structural   CdH12C16NO7
_chemical_formula_sum   'Cd2 H24 C32 N2 O14'
_cell_volume   729.89038326
_cell_formula_units_Z   2
loop_
 _symmetry_equiv_pos_site_id
 _symmetry_equiv_pos_as_xyz
  1  'x, y, z'
loop_
 _atom_site_type_symbol
 _atom_site_label
 _atom_site_symmetry_multiplicity
 _atom_site_fract_x
 _atom_site_fract_y
 _atom_site_fract_z
 _atom_site_occupancy
 _atom_site_hle17_bader_spin_density
 _atom_site_hle17_ddec_charge
 _atom_site_hle17_ddec_spin_density
 _atom_site_hle17_ddec_sum_bond_order
 _atom_site_hle17_magmom
 _atom_site_hse06_10hf_bader_spin_density
 _atom_site_hse06_10hf_ddec_charge
 _atom_site_hse06_10hf_ddec_spin_density
 _atom_site_hse06_10hf_ddec_sum_bond_order
 _atom_site_hse06_10hf_magmom
 _atom_site_hse06_bader_spin_density
 _atom_site_hse06_ddec_charge
 _atom_site_hse06_ddec_spin_density
 _atom_site_hse06_ddec_sum_bond_order
 _atom_site_hse06_magmom
 _atom_site_pbe_bader_spin_density
 _atom_site_pbe_cm5_charge
 _atom_site_pbe_ddec_charge
 _atom_site_pbe_ddec_spin_density
 _atom_site_pbe_ddec_sum_bond_order
 _atom_site_pbe_magmom
Cd  Cd0  1  0.73305282  0.19168811  0.46427015  1  0  1.244105  0  1.572087  0  0  1.06029  0  2.013382  0  0  1.120293  0  1.955656  0  0  0.793824  1.017129  0  2.053218  0
Cd  Cd1  1  0.26692268  0.80831633  0.53573085  1  0  1.244138  0  1.571983  0  0  1.060257  0  2.013259  0  0  1.120266  0  1.955533  0  0  0.793803  1.017098  0  2.0531  0
H  H2  1  0.98996743  0.05899289  0.06458358  1  0  0.393231  0  0.897086  0  0  0.362563  0  0.974602  0  0  0.375715  0  0.960579  0  0  0.302475  0.353347  0  0.984364  0
H  H3  1  0.01006327  0.94100693  0.93541200  1  0  0.393082  0  0.897424  0  0  0.362484  0  0.974796  0  0  0.375632  0  0.960785  0  0  0.302443  0.353267  0  0.984558  0
H  H4  1  0.65072428  0.92034243  0.38518649  1  0  0.428523  0  0.877763  0  0  0.398065  0  0.941522  0  0  0.408725  0  0.926038  0  0  0.29046  0.39051  0  0.952471  0
H  H5  1  0.34924277  0.07966205  0.61481525  1  0  0.4286  0  0.877616  0  0  0.398155  0  0.941348  0  0  0.408821  0  0.925854  0  0  0.290473  0.390597  0  0.9523  0
H  H6  1  0.89534945  0.82651499  0.40494865  1  0  0.435871  0  0.859118  0  0  0.403507  0  0.924641  0  0  0.414376  0  0.909034  0  0  0.292383  0.395772  0  0.935724  0
H  H7  1  0.10461026  0.17348660  0.59505273  1  0  0.435862  0  0.859179  0  0  0.403454  0  0.924791  0  0  0.414327  0  0.909186  0  0  0.292419  0.395704  0  0.935889  0
H  H8  1  0.70560669  0.15807262  0.25460087  1  0  0.091703  0  0.958722  0  0  0.101023  0  1.020178  0  0  0.103992  0  1.016972  0  0  0.114772  0.09877  0  1.022606  0
H  H9  1  0.29439539  0.84192452  0.74540921  1  0  0.091639  0  0.95861  0  0  0.100972  0  1.020061  0  0  0.103942  0  1.016852  0  0  0.11475  0.098717  0  1.022495  0
H  H10  1  0.64030189  0.36538833  0.10015655  1  0  0.100429  0  0.961436  0  0  0.110553  0  1.023817  0  0  0.113693  0  1.022925  0  0  0.101861  0.108347  0  1.024541  0
H  H11  1  0.35972211  0.63460289  0.89985251  1  0  0.10043  0  0.961432  0  0  0.11054  0  1.023831  0  0  0.113681  0  1.022935  0  0  0.101842  0.108329  0  1.024553  0
H  H12  1  0.58079791  0.85491140  0.23333988  1  0  0.107963  0  0.957753  0  0  0.117441  0  1.020408  0  0  0.120925  0  1.018842  0  0  0.107373  0.114919  0  1.021715  0
H  H13  1  0.41920990  0.14508565  0.76666213  1  0  0.10785  0  0.957875  0  0  0.117375  0  1.020473  0  0  0.120861  0  1.018905  0  0  0.107331  0.114854  0  1.02178  0
H  H14  1  0.64254267  0.62916107  0.37967593  1  0  0.090409  0  0.973531  0  0  0.095925  0  1.04214  0  0  0.099733  0  1.037787  0  0  0.115514  0.093068  0  1.045385  0
H  H15  1  0.35745303  0.37084189  0.62033037  1  0  0.090315  0  0.973504  0  0  0.095845  0  1.042138  0  0  0.099647  0  1.037781  0  0  0.115498  0.092992  0  1.045382  0
H  H16  1  0.58696223  0.67031485  0.00594552  1  0  0.088735  0  0.954964  0  0  0.10054  0  1.019719  0  0  0.103354  0  1.018545  0  0  0.101086  0.098561  0  1.020592  0
H  H17  1  0.41304510  0.32966474  0.99405996  1  0  0.088731  0  0.954891  0  0  0.100512  0  1.019662  0  0  0.103332  0  1.01847  0  0  0.1011  0.098529  0  1.020545  0
H  H18  1  0.49323420  0.02868444  0.10070714  1  0  0.086943  0  0.949384  0  0  0.103017  0  1.00536  0  0  0.105064  0  1.005004  0  0  0.104802  0.101528  0  1.005682  0
H  H19  1  0.50678257  0.97130381  0.89929152  1  0  0.08683  0  0.949619  0  0  0.102974  0  1.00552  0  0  0.105016  0  1.005168  0  0  0.104824  0.101483  0  1.005844  0
H  H20  1  0.17015311  0.12714247  0.20271687  1  0  0.105137  0  0.953564  0  0  0.114997  0  1.014363  0  0  0.118528  0  1.012708  0  0  0.104153  0.112443  0  1.01574  0
H  H21  1  0.82984754  0.87286621  0.79727889  1  0  0.105145  0  0.953539  0  0  0.11496  0  1.014394  0  0  0.118514  0  1.012711  0  0  0.104146  0.112411  0  1.015759  0
H  H22  1  0.09316009  0.41109225  0.07851569  1  0  0.104405  0  0.958569  0  0  0.110825  0  1.027857  0  0  0.114562  0  1.024405  0  0  0.103984  0.108077  0  1.030383  0
H  H23  1  0.90685856  0.58891344  0.92147883  1  0  0.104483  0  0.958624  0  0  0.110849  0  1.027952  0  0  0.114628  0  1.024429  0  0  0.104018  0.108109  0  1.030452  0
H  H24  1  0.13220148  0.76521509  0.27245830  1  0  0.115024  0  0.939539  0  0  0.124279  0  1.001341  0  0  0.128067  0  0.998299  0  0  0.112501  0.12148  0  1.003628  0
H  H25  1  0.86779543  0.23478487  0.72753822  1  0  0.115079  0  0.939486  0  0  0.124327  0  1.001277  0  0  0.128105  0  0.998265  0  0  0.112519  0.121528  0  1.003566  0
C  C26  1  0.67333188  0.31416428  0.24557139  1  0  0.127269  0  3.718753  0  0  0.09643  0  3.970056  0  0  0.103734  0  3.98992  0  0  0.039703  0.09178  0  3.956289  0
C  C27  1  0.32667780  0.68583136  0.75443741  1  0  0.127331  0  3.718483  0  0  0.096503  0  3.969778  0  0  0.103806  0  3.989643  0  0  0.039645  0.091855  0  3.956009  0
C  C28  1  0.63686432  0.43017692  0.16063343  1  0  -0.163298  0  3.707907  0  0  -0.17904  0  3.954915  0  0  -0.188116  0  3.977495  0  0  -0.0853  -0.173103  0  3.939561  0
C  C29  1  0.36315579  0.56981721  0.83937341  1  0  -0.163493  0  3.707747  0  0  -0.179221  0  3.954793  0  0  -0.188304  0  3.977384  0  0  -0.085341  -0.173279  0  3.939436  0
C  C30  1  0.60182686  0.63008443  0.15243420  1  0  0.126791  0  3.829487  0  0  0.141066  0  4.058941  0  0  0.145868  0  4.08337  0  0  0.001958  0.138124  0  4.04224  0
C  C31  1  0.39818289  0.36991117  0.84756926  1  0  0.126967  0  3.829203  0  0  0.14117  0  4.058722  0  0  0.145971  0  4.083154  0  0  0.001973  0.138231  0  4.042021  0
C  C32  1  0.60471892  0.70266033  0.23320849  1  0  -0.152694  0  3.673803  0  0  -0.169314  0  3.919064  0  0  -0.177696  0  3.940642  0  0  -0.082515  -0.163941  0  3.904666  0
C  C33  1  0.39528156  0.29734115  0.76679723  1  0  -0.152585  0  3.673664  0  0  -0.169174  0  3.918954  0  0  -0.177553  0  3.940519  0  0  -0.082386  -0.163803  0  3.904559  0
C  C34  1  0.64177414  0.57736942  0.31566464  1  0  0.134025  0  3.695967  0  0  0.102588  0  3.949991  0  0  0.110204  0  3.968011  0  0  0.043741  0.097615  0  3.937772  0
C  C35  1  0.35822212  0.42263207  0.68434045  1  0  0.134195  0  3.695667  0  0  0.102658  0  3.949818  0  0  0.110287  0  3.967824  0  0  0.043703  0.097682  0  3.937607  0
C  C36  1  0.56778363  0.74911410  0.06308530  1  0  -0.113709  0  3.71315  0  0  -0.133482  0  3.9649  0  0  -0.137804  0  3.985949  0  0  -0.085533  -0.13053  0  3.950445  0
C  C37  1  0.43223138  0.25087128  0.93691763  1  0  -0.1137  0  3.713225  0  0  -0.133452  0  3.965025  0  0  -0.13777  0  3.986075  0  0  -0.085528  -0.130503  0  3.950568  0
C  C38  1  0.51533955  0.94571607  0.04499471  1  0  -0.051465  0  3.787323  0  0  -0.068426  0  4.039453  0  0  -0.068842  0  4.060671  0  0  -0.086528  -0.067915  0  4.024717  0
C  C39  1  0.48468707  0.05427214  0.95500454  1  0  -0.051489  0  3.78766  0  0  -0.068495  0  4.039767  0  0  -0.068906  0  4.060977  0  0  -0.086631  -0.067984  0  4.025037  0
C  C40  1  0.18964360  0.46530984  0.32643511  1  0  -0.083037  0  3.698659  0  0  -0.065963  0  3.93709  0  0  -0.074438  0  3.957496  0  0  -0.011107  -0.060764  0  3.923725  0
C  C41  1  0.81034438  0.53469888  0.67356075  1  0  -0.083064  0  3.698976  0  0  -0.066015  0  3.937339  0  0  -0.074488  0  3.957746  0  0  -0.011123  -0.06082  0  3.923974  0
C  C42  1  0.20085916  0.28347504  0.30702686  1  0  -0.010557  0  3.658907  0  0  -0.001578  0  3.898214  0  0  -0.001149  0  3.914981  0  0  0.009205  -0.00189  0  3.887117  0
C  C43  1  0.79913439  0.71652638  0.69296823  1  0  -0.01053  0  3.658994  0  0  -0.001507  0  3.898235  0  0  -0.001082  0  3.915012  0  0  0.009174  -0.001814  0  3.887137  0
C  C44  1  0.16701613  0.26637773  0.21729645  1  0  -0.098806  0  3.719082  0  0  -0.120547  0  3.976733  0  0  -0.12516  0  3.996214  0  0  -0.089379  -0.117697  0  3.963748  0
C  C45  1  0.83298969  0.73363965  0.78269654  1  0  -0.098777  0  3.718613  0  0  -0.120521  0  3.976256  0  0  -0.125152  0  3.995737  0  0  -0.08936  -0.11767  0  3.96327  0
C  C46  1  0.12328943  0.42555343  0.14758043  1  0  -0.048011  0  3.719791  0  0  -0.078953  0  3.978897  0  0  -0.075218  0  3.996836  0  0  -0.079348  -0.081031  0  3.966659  0
C  C47  1  0.87672792  0.57444067  0.85242176  1  0  -0.048223  0  3.719674  0  0  -0.07911  0  3.978785  0  0  -0.075396  0  3.996703  0  0  -0.079469  -0.081183  0  3.966553  0
C  C48  1  0.10992765  0.60723917  0.16683113  1  0  -0.105435  0  3.804272  0  0  -0.081903  0  4.044381  0  0  -0.093399  0  4.069034  0  0  -0.02628  -0.074495  0  4.027853  0
C  C49  1  0.89007574  0.39276223  0.83316588  1  0  -0.105103  0  3.804326  0  0  -0.081594  0  4.044324  0  0  -0.093091  0  4.068997  0  0  -0.026185  -0.074188  0  4.027796  0
C  C50  1  0.14173110  0.62550230  0.25638998  1  0  -0.043621  0  3.681899  0  0  -0.084423  0  3.936204  0  0  -0.079774  0  3.953619  0  0  -0.069371  -0.087262  0  3.924482  0
C  C51  1  0.85825343  0.37450063  0.74360840  1  0  -0.043828  0  3.681982  0  0  -0.084612  0  3.936284  0  0  -0.079965  0  3.95369  0  0  -0.069424  -0.087448  0  3.924564  0
C  C52  1  0.24117538  0.49236982  0.41919250  1  0  0.683122  0  3.88036  0  0  0.623779  0  4.184117  0  0  0.659893  0  4.175107  0  0  0.214746  0.599205  0  4.189537  0
C  C53  1  0.75880471  0.50763748  0.58080288  1  0  0.683014  0  3.880853  0  0  0.623831  0  4.184434  0  0  0.659944  0  4.175431  0  0  0.214791  0.599258  0  4.189852  0
C  C54  1  0.23712520  0.10771257  0.37983038  1  0  0.670341  0  3.907986  0  0  0.613014  0  4.208851  0  0  0.648574  0  4.199199  0  0  0.210692  0.588702  0  4.214495  0
C  C55  1  0.76286866  0.89229176  0.62016513  1  0  0.670167  0  3.908156  0  0  0.612881  0  4.208936  0  0  0.648442  0  4.199284  0  0  0.210596  0.588568  0  4.214583  0
C  C56  1  0.06192540  0.77679281  0.09284973  1  0  0.661949  0  3.803236  0  0  0.608635  0  4.103366  0  0  0.64328  0  4.094601  0  0  0.238046  0.585018  0  4.109019  0
C  C57  1  0.93809651  0.22320416  0.90714883  1  0  0.66173  0  3.803745  0  0  0.608505  0  4.103747  0  0  0.643147  0  4.094988  0  0  0.237999  0.584886  0  4.109398  0
N  N58  1  0.67629067  0.38611323  0.32218279  1  0  -0.354727  0  3.274476  0  0  -0.275268  0  3.537336  0  0  -0.297857  0  3.559004  0  0  -0.331883  -0.259765  0  3.522148  0
N  N59  1  0.32370839  0.61388826  0.67782428  1  0  -0.354755  0  3.274292  0  0  -0.27526  0  3.537144  0  0  -0.29785  0  3.558809  0  0  -0.331794  -0.259757  0  3.52196  0
O  O60  1  0.37254979  0.35284974  0.47002180  1  0  -0.652604  0  2.023863  0  0  -0.593661  0  2.287628  0  0  -0.621037  0  2.274314  0  0  -0.320686  -0.574433  0  2.296235  0
O  O61  1  0.62744239  0.64715899  0.52997603  1  0  -0.652569  0  2.024147  0  0  -0.593716  0  2.287887  0  0  -0.621091  0  2.274578  0  0  -0.320716  -0.574488  0  2.296493  0
O  O62  1  0.14958163  0.66246441  0.43911964  1  0  -0.653621  0  2.061624  0  0  -0.575031  0  2.31128  0  0  -0.605174  0  2.298255  0  0  -0.314835  -0.553886  0  2.319585  0
O  O63  1  0.85039610  0.33753418  0.56087849  1  0  -0.653389  0  2.061634  0  0  -0.574999  0  2.31141  0  0  -0.605142  0  2.298397  0  0  -0.31483  -0.553844  0  2.319704  0
O  O64  1  0.40061854  0.96225054  0.38392583  1  0  -0.637556  0  2.013819  0  0  -0.576125  0  2.253257  0  0  -0.604973  0  2.243686  0  0  -0.306751  -0.555345  0  2.258863  0
O  O65  1  0.59935301  0.03774221  0.61606749  1  0  -0.637524  0  2.0137  0  0  -0.576144  0  2.253169  0  0  -0.604997  0  2.243599  0  0  -0.306716  -0.555358  0  2.258774  0
O  O66  1  0.09498409  0.10883108  0.43301357  1  0  -0.660074  0  2.087081  0  0  -0.584228  0  2.347091  0  0  -0.618003  0  2.337455  0  0  -0.318909  -0.560135  0  2.352687  0
O  O67  1  0.90499748  0.89118349  0.56698120  1  0  -0.659917  0  2.087409  0  0  -0.584113  0  2.347441  0  0  -0.617885  0  2.337796  0  0  -0.318806  -0.560021  0  2.35304  0
O  O68  1  0.06110708  0.75941808  0.01098842  1  0  -0.580802  0  2.000954  0  0  -0.528724  0  2.222802  0  0  -0.552049  0  2.214866  0  0  -0.287119  -0.512796  0  2.228041  0
O  O69  1  0.93889778  0.24059059  0.98900864  1  0  -0.580835  0  2.001195  0  0  -0.52872  0  2.22296  0  0  -0.552046  0  2.21502  0  0  -0.287079  -0.512791  0  2.2282  0
O  O70  1  0.01983880  0.94727766  0.11955730  1  0  -0.539597  0  2.102504  0  0  -0.48612  0  2.319884  0  0  -0.508393  0  2.305888  0  0  -0.322043  -0.470733  0  2.329197  0
O  O71  1  0.98020144  0.05271922  0.88043845  1  0  -0.539415  0  2.102862  0  0  -0.485973  0  2.320141  0  0  -0.508247  0  2.30615  0  0  -0.321974  -0.470585  0  2.329454  0
O  O72  1  0.77938480  0.94304775  0.37733030  1  0  -0.846305  0  1.884163  0  0  -0.785651  0  2.080907  0  0  -0.809407  0  2.048092  0  0  -0.585659  -0.768582  0  2.103592  0
O  O73  1  0.22057943  0.05695675  0.62267213  1  0  -0.846446  0  1.884029  0  0  -0.785724  0  2.08073  0  0  -0.809493  0  2.047897  0  0  -0.585716  -0.768651  0  2.103482  0
