# generated using pymatgen
data_AlH3C8NO7F
_symmetry_space_group_name_H-M   'P 1'
_cell_length_a   6.62951116
_cell_length_b   8.85111320
_cell_length_c   11.17162718
_cell_angle_alpha   85.47709898
_cell_angle_beta   71.71065700
_cell_angle_gamma   75.77392343
_symmetry_Int_Tables_number   1
_chemical_formula_structural   AlH3C8NO7F
_chemical_formula_sum   'Al2 H6 C16 N2 O14 F2'
_cell_volume   603.33138556
_cell_formula_units_Z   2
loop_
 _symmetry_equiv_pos_site_id
 _symmetry_equiv_pos_as_xyz
  1  'x, y, z'
loop_
 _atom_site_type_symbol
 _atom_site_label
 _atom_site_symmetry_multiplicity
 _atom_site_fract_x
 _atom_site_fract_y
 _atom_site_fract_z
 _atom_site_occupancy
 _atom_site_pbe_bader_charge
 _atom_site_pbe_bader_spin_density
 _atom_site_pbe_cm5_charge
 _atom_site_pbe_ddec_charge
 _atom_site_pbe_ddec_spin_density
 _atom_site_pbe_ddec_sum_bond_order
 _atom_site_pbe_magmom
Al  Al0  1  0.50081075  0.50911511  0.50178923  1  2.50119  0  0.398113  1.638445  0  2.571157  0
Al  Al1  1  0.99917822  0.50687559  0.50331685  1  2.501336  0  0.398743  1.641944  0  2.575949  0
H  H2  1  0.79261010  0.61488465  0.35895399  1  0.639356  0  0.342849  0.430205  0  0.872909  0
H  H3  1  0.27814323  0.32381423  0.56815094  1  0.621551  0  0.351343  0.431175  0  0.85685  0
H  H4  1  0.24523129  0.25719075  0.23020991  1  0.07229  0  0.110786  0.119847  0  1.005487  0
H  H5  1  0.14633708  0.08116162  0.10968879  1  0.089635  0  0.11178  0.111063  0  0.977311  0
H  H6  1  0.41573026  0.31068187  0.76343194  1  0.066584  0  0.110754  0.114725  0  1.031476  0
H  H7  1  0.23141101  0.10802743  0.87597741  1  0.105914  0  0.112125  0.113438  0  0.975331  0
C  C8  1  0.38435893  0.48739616  0.27528536  1  1.641382  0  0.270032  0.645447  0  4.110618  0
C  C9  1  0.14883556  0.78384671  0.50590943  1  1.670421  0  0.269025  0.604557  0  4.157956  0
C  C10  1  0.61295186  0.53109311  0.72723026  1  1.601696  0  0.273642  0.645671  0  4.129059  0
C  C11  1  0.85013070  0.22628993  0.50284631  1  1.593555  0  0.266711  0.606668  0  4.157829  0
C  C12  1  0.90103230  0.05295510  0.50483034  1  0.59723  0  0.105619  0.051428  0  3.979464  0
C  C13  1  0.09575240  0.95733687  0.50493681  1  0.606536  0  0.108958  0.063084  0  3.960271  0
C  C14  1  0.45354789  0.48936123  0.13358415  1  0.026057  0  0.008953  -0.098907  0  3.893841  0
C  C15  1  0.38852643  0.38878218  0.06639502  1  0.01478  0  0.014291  0.081367  0  3.938767  0
C  C16  1  0.56558700  0.59825605  0.06884070  1  0.233681  0  0.087607  0.009121  0  3.923316  0
C  C17  1  0.28220107  0.27060944  0.12844594  1  -0.009382  0  -0.0783  -0.116068  0  3.926864  0
C  C18  1  0.22657011  0.17221254  0.06076945  1  -0.052987  0  -0.07308  -0.051617  0  3.979648  0
C  C19  1  0.54370559  0.52373973  0.86931956  1  0.085435  0  0.021889  -0.071187  0  3.868308  0
C  C20  1  0.60320376  0.61981141  0.93775136  1  0.266197  0  0.088381  0.003163  0  3.916572  0
C  C21  1  0.43794681  0.40447260  0.93172093  1  0.03865  0  0.010077  0.066632  0  3.934327  0
C  C22  1  0.37970817  0.29992354  0.86515158  1  0.040917  0  -0.078566  -0.112495  0  3.925429  0
C  C23  1  0.27526793  0.18708010  0.92848566  1  -0.0326  0  -0.076167  -0.062603  0  3.986186  0
N  N24  1  0.69985299  0.74857818  0.87368993  1  0.380671  0  0.061237  0.519524  0  4.213564  0
N  N25  1  0.62633595  0.70370624  0.14206159  1  0.432924  0  0.064908  0.519277  0  4.243068  0
O  O26  1  0.53316000  0.46650615  0.32776080  1  -1.249671  0  -0.230888  -0.579387  0  2.344723  0
O  O27  1  0.99194387  0.71816564  0.52558025  1  -1.235494  0  -0.216907  -0.551588  0  2.387445  0
O  O28  1  0.81817613  0.49957200  0.67436813  1  -1.239779  0  -0.227584  -0.576697  0  2.335173  0
O  O29  1  0.65013668  0.29421171  0.52201179  1  -1.245656  0  -0.230071  -0.579169  0  2.366094  0
O  O30  1  0.46601521  0.55398700  0.67369779  1  -1.243813  0  -0.21875  -0.555413  0  2.33723  0
O  O31  1  0.00916403  0.29038018  0.48381451  1  -1.237491  0  -0.231551  -0.581552  0  2.388758  0
O  O32  1  0.17985520  0.51232750  0.32912131  1  -1.240846  0  -0.223388  -0.575597  0  2.350027  0
O  O33  1  0.34932067  0.71797092  0.48475321  1  -1.240494  0  -0.22353  -0.562082  0  2.36877  0
O  O34  1  0.76207882  0.56870780  0.44293487  1  -1.439362  0  -0.449288  -0.992618  0  2.195377  0
O  O35  1  0.24587848  0.43624359  0.55674735  1  -1.422294  0  -0.449076  -0.987558  0  2.177489  0
O  O36  1  0.63727900  0.81198481  0.78460354  1  -0.423924  0  -0.104854  -0.304279  0  1.938073  0
O  O37  1  0.83461917  0.78630306  0.91415597  1  -0.441082  0  -0.130509  -0.324848  0  1.890098  0
O  O38  1  0.79935048  0.65548327  0.16739099  1  -0.437245  0  -0.095507  -0.293312  0  1.954793  0
O  O39  1  0.49343105  0.82914902  0.17578296  1  -0.431293  0  -0.113632  -0.310976  0  1.898487  0
F  F40  1  0.73256575  0.99265597  0.50805562  1  -0.598781  0  -0.065994  -0.058356  0  1.448402  0
F  F41  1  0.26429812  0.01805315  0.50203432  1  -0.605792  0  -0.070177  -0.070472  0  1.439219  0
