# generated using pymatgen
data_CoH5C9N5O6
_symmetry_space_group_name_H-M   'P 1'
_cell_length_a   9.40722064
_cell_length_b   10.60838067
_cell_length_c   11.32331978
_cell_angle_alpha   91.46102534
_cell_angle_beta   89.99995813
_cell_angle_gamma   89.99975144
_symmetry_Int_Tables_number   1
_chemical_formula_structural   CoH5C9N5O6
_chemical_formula_sum   'Co4 H20 C36 N20 O24'
_cell_volume   1129.64760528
_cell_formula_units_Z   4
loop_
 _symmetry_equiv_pos_site_id
 _symmetry_equiv_pos_as_xyz
  1  'x, y, z'
loop_
 _atom_site_type_symbol
 _atom_site_label
 _atom_site_symmetry_multiplicity
 _atom_site_fract_x
 _atom_site_fract_y
 _atom_site_fract_z
 _atom_site_occupancy
 _atom_site_hle17_ddec_charge
 _atom_site_hle17_ddec_spin_density
 _atom_site_hle17_ddec_sum_bond_order
 _atom_site_hle17_magmom
 _atom_site_hse06_10hf_ddec_charge
 _atom_site_hse06_10hf_ddec_spin_density
 _atom_site_hse06_10hf_ddec_sum_bond_order
 _atom_site_hse06_10hf_magmom
 _atom_site_hse06_ddec_charge
 _atom_site_hse06_ddec_spin_density
 _atom_site_hse06_ddec_sum_bond_order
 _atom_site_hse06_magmom
 _atom_site_pbe_cm5_charge
 _atom_site_pbe_ddec_charge
 _atom_site_pbe_ddec_spin_density
 _atom_site_pbe_ddec_sum_bond_order
 _atom_site_pbe_magmom
Co  Co0  1  0.09760805  0.39484017  0.10182949  1  0.899049  2.814593  2.018756  2.54  0.823526  2.825874  2.4745  2.591  0.910639  2.871421  2.398059  2.68  0.699939  0.755267  2.782105  2.532632  2.509
Co  Co1  1  0.59760943  0.10516145  0.89817010  1  0.898971  2.814556  2.018752  2.54  0.823557  2.825879  2.474441  2.591  0.910656  2.871423  2.398005  2.68  0.699948  0.755288  2.782101  2.532564  2.509
Co  Co2  1  0.90238898  0.60515921  0.89817121  1  0.899016  2.814589  2.018769  2.54  0.82351  2.825874  2.474493  2.591  0.910616  2.871418  2.398056  2.68  0.699941  0.755243  2.782098  2.532614  2.509
Co  Co3  1  0.40238866  0.89483887  0.10182886  1  0.898954  2.814552  2.018723  2.54  0.823483  2.825863  2.474463  2.591  0.910589  2.871417  2.398048  2.68  0.699936  0.755243  2.78209  2.532584  2.509
H  H4  1  0.38343189  0.33485158  0.92992614  1  0.115539  -3.1e-05  0.933445  0.001  0.123418  0.000177  0.993088  0.001  0.125469  9.7e-05  0.989811  0.0  0.14301  0.12181  0.000253  0.995854  0.001
H  H5  1  0.88343265  0.16514705  0.07007498  1  0.115529  -3.2e-05  0.933406  0.001  0.123404  0.000176  0.993059  0.001  0.125457  9.7e-05  0.989779  0.0  0.142998  0.121799  0.000254  0.99583  0.001
H  H6  1  0.61656727  0.66514686  0.07007454  1  0.115605  -2.9e-05  0.933326  0.001  0.123476  0.000177  0.992982  0.001  0.125529  9.7e-05  0.989703  0.0  0.143027  0.121871  0.000254  0.995752  0.001
H  H7  1  0.11656756  0.83485138  0.92992482  1  0.115552  -3e-05  0.933442  0.001  0.123426  0.000177  0.993086  0.001  0.125479  9.7e-05  0.989805  0.0  0.142996  0.121819  0.000254  0.995855  0.001
H  H8  1  0.16274698  0.10914446  0.16930585  1  0.101472  4.8e-05  0.995387  0.001  0.100348  0.000325  1.071875  0.001  0.10411  0.000216  1.066226  0.001  0.132489  0.097558  0.000419  1.076238  0.001
H  H9  1  0.66274915  0.39085502  0.83069365  1  0.101508  4.9e-05  0.995387  0.001  0.100345  0.000325  1.071915  0.001  0.104105  0.000216  1.066271  0.001  0.132486  0.097552  0.000419  1.076274  0.001
H  H10  1  0.83725111  0.89085397  0.83069306  1  0.101484  4.7e-05  0.995393  0.001  0.100331  0.000324  1.071908  0.001  0.104089  0.000216  1.066264  0.001  0.132486  0.097541  0.000419  1.076267  0.001
H  H11  1  0.33725107  0.60914436  0.16930705  1  0.101498  5e-05  0.995391  0.001  0.100363  0.000324  1.071891  0.001  0.104125  0.000215  1.066242  0.001  0.13248  0.097572  0.000419  1.076253  0.001
H  H12  1  0.90921172  0.12135912  0.45779784  1  0.124423  4e-06  0.961277  0.0  0.12017  3e-06  1.043873  0.0  0.124356  -1e-06  1.040085  0.0  0.115874  0.117199  1.3e-05  1.046667  0.0
H  H13  1  0.40920896  0.37864506  0.54220161  1  0.124434  3e-06  0.961311  0.0  0.120176  3e-06  1.043912  0.0  0.12436  -2e-06  1.040126  0.0  0.115915  0.117206  1.3e-05  1.0467  0.0
H  H14  1  0.09078956  0.87864214  0.54220290  1  0.124435  3e-06  0.961295  0.0  0.120176  3e-06  1.043899  0.0  0.124361  -1e-06  1.040112  0.0  0.115913  0.117205  1.3e-05  1.046693  0.0
H  H15  1  0.59079019  0.62135431  0.45779732  1  0.124412  4e-06  0.961281  0.0  0.120149  3e-06  1.043895  0.0  0.124334  -2e-06  1.040107  0.0  0.115877  0.117177  1.3e-05  1.046691  0.0
H  H16  1  0.15886385  0.46176539  0.47613327  1  0.131654  0.000146  0.967271  0.0  0.132113  8.6e-05  1.040071  0.0  0.136944  2.5e-05  1.035411  0.0  0.116974  0.128549  0.000156  1.043591  0.0
H  H17  1  0.65886059  0.03823788  0.52386809  1  0.131724  0.000147  0.967246  0.0  0.13217  8.6e-05  1.040074  0.0  0.137002  2.4e-05  1.035412  0.0  0.117006  0.1286  0.000156  1.043595  0.0
H  H18  1  0.84114062  0.53823494  0.52386746  1  0.131656  0.000147  0.967315  0.0  0.132136  8.6e-05  1.040093  0.0  0.136968  2.4e-05  1.035431  0.0  0.116989  0.128565  0.000156  1.043615  0.0
H  H19  1  0.34113857  0.96176432  0.47612914  1  0.131683  0.000147  0.96725  0.0  0.132118  8.6e-05  1.040087  0.0  0.136951  2.4e-05  1.035424  0.0  0.116988  0.128547  0.000156  1.043613  0.0
H  H20  1  0.06068536  0.26481569  0.79487388  1  0.145598  -0.000182  0.933734  0.0  0.144109  -0.000238  1.006181  0.0  0.148511  -0.000229  1.001999  0.0  0.12831  0.141111  -0.000242  1.00888  0.0
H  H21  1  0.56068672  0.23518418  0.20512658  1  0.145603  -0.000186  0.933766  0.0  0.14413  -0.000238  1.006216  0.0  0.148534  -0.000228  1.002029  0.0  0.128315  0.141134  -0.000242  1.008917  0.0
H  H22  1  0.93931699  0.73518369  0.20512682  1  0.145585  -0.000185  0.933764  0.0  0.144147  -0.000238  1.006171  0.0  0.148551  -0.000228  1.001986  0.0  0.128325  0.141149  -0.000242  1.008873  0.0
H  H23  1  0.43931562  0.76481614  0.79487326  1  0.145582  -0.000185  0.933774  0.0  0.144135  -0.000238  1.006191  0.0  0.148538  -0.000228  1.002008  0.0  0.128321  0.141134  -0.000242  1.008891  0.0
C  C24  1  0.35236443  0.25805918  0.98567659  1  0.236481  -0.007516  3.65436  -0.002  0.184278  0.007374  3.931995  0.011  0.202631  0.005354  3.944245  0.008  0.154957  0.171192  0.009059  3.923658  0.013
C  C25  1  0.85236593  0.24193957  0.01432543  1  0.236454  -0.007508  3.654397  -0.002  0.184268  0.007375  3.932007  0.011  0.202619  0.005356  3.94426  0.008  0.154932  0.171176  0.009059  3.923686  0.013
C  C26  1  0.64763260  0.74193925  0.01432409  1  0.236387  -0.007529  3.654181  -0.002  0.184193  0.007374  3.931813  0.011  0.202542  0.005356  3.944068  0.008  0.154895  0.171105  0.009058  3.923489  0.013
C  C27  1  0.14763216  0.75805887  0.98567614  1  0.236387  -0.007511  3.654535  -0.002  0.184207  0.007374  3.932133  0.011  0.202561  0.005354  3.944385  0.008  0.154899  0.17112  0.009058  3.923802  0.013
C  C28  1  0.24009921  0.14245143  0.10645997  1  0.219576  -0.006546  3.653964  -0.001  0.172294  0.007111  3.92359  0.01  0.189165  0.00496  3.937201  0.007  0.145198  0.159896  0.009375  3.914691  0.013
C  C29  1  0.74010149  0.35754775  0.89354124  1  0.219607  -0.006548  3.653927  -0.001  0.172331  0.007112  3.923594  0.01  0.189201  0.004962  3.937209  0.007  0.145235  0.159935  0.009375  3.914681  0.013
C  C30  1  0.75989782  0.85754700  0.89353982  1  0.219646  -0.006531  3.65395  -0.001  0.172374  0.007111  3.923612  0.01  0.189249  0.004959  3.937222  0.007  0.145255  0.159977  0.009374  3.914699  0.013
C  C31  1  0.25989873  0.64245163  0.10646034  1  0.21958  -0.006551  3.65398  -0.001  0.172294  0.007111  3.923632  0.01  0.189164  0.004962  3.937243  0.007  0.145223  0.159894  0.009374  3.914729  0.013
C  C32  1  0.02214700  0.29851882  0.31968246  1  0.626677  -0.005959  3.909446  -0.006  0.582926  0.001975  4.20798  0.001  0.619097  0.001109  4.205792  0.001  0.201981  0.557334  0.002678  4.207431  0.001
C  C33  1  0.52214492  0.20148591  0.68031636  1  0.626713  -0.005957  3.909463  -0.006  0.582934  0.001975  4.208037  0.001  0.619103  0.001108  4.205858  0.001  0.202016  0.557334  0.002679  4.207478  0.001
C  C34  1  0.97785534  0.70148150  0.68031737  1  0.626743  -0.005947  3.909425  -0.006  0.582977  0.001975  4.207975  0.001  0.61915  0.001109  4.205789  0.001  0.201993  0.557379  0.002678  4.207424  0.001
C  C35  1  0.47785104  0.79851535  0.31967997  1  0.626807  -0.005941  3.909441  -0.006  0.583032  0.001975  4.208007  0.001  0.619206  0.001108  4.205817  0.001  0.202048  0.55744  0.002678  4.207461  0.001
C  C36  1  0.02930954  0.29451592  0.45247884  1  -0.030568  0.004018  3.69345  0.006  -0.003317  0.00171  3.920859  0.002  -0.013304  0.001038  3.942091  0.002  -0.002914  0.002885  0.002441  3.907615  0.003
C  C37  1  0.52930649  0.20548784  0.54752084  1  -0.030497  0.004016  3.693385  0.006  -0.003236  0.00171  3.920796  0.002  -0.013206  0.001037  3.941996  0.002  -0.002851  0.002975  0.002441  3.907536  0.003
C  C38  1  0.97069493  0.70548534  0.54752102  1  -0.030517  0.004004  3.693304  0.006  -0.003273  0.00171  3.920717  0.002  -0.013262  0.001037  3.941953  0.002  -0.002885  0.002932  0.002441  3.90746  0.003
C  C39  1  0.47068841  0.79451625  0.45247731  1  -0.030667  0.003995  3.693523  0.006  -0.003374  0.00171  3.920872  0.002  -0.013372  0.001036  3.942123  0.002  -0.002907  0.002825  0.002441  3.907627  0.003
C  C40  1  0.96442974  0.19402928  0.50917105  1  -0.047671  -0.002037  3.632169  -0.001  -0.088885  0.000431  3.887399  0.001  -0.083545  0.000308  3.903184  0.0  -0.053236  -0.09241  0.000306  3.87694  0.001
C  C41  1  0.46442632  0.30597469  0.49082837  1  -0.04763  -0.002011  3.632094  -0.001  -0.0888  0.000431  3.887301  0.001  -0.083457  0.000308  3.903094  0.0  -0.053256  -0.092322  0.000305  3.876835  0.001
C  C42  1  0.03557366  0.80597292  0.49082883  1  -0.047693  -0.001998  3.632099  -0.001  -0.088885  0.000431  3.887318  0.001  -0.083543  0.000309  3.903105  0.0  -0.053265  -0.092411  0.000306  3.876857  0.001
C  C43  1  0.53557177  0.69402657  0.50916884  1  -0.047639  -0.001978  3.631984  -0.001  -0.088832  0.000431  3.887183  0.001  -0.083487  0.000308  3.902964  0.0  -0.053231  -0.09236  0.000306  3.876727  0.001
C  C44  1  0.10486083  0.38477956  0.51908373  1  -0.071675  -0.001468  3.645062  -0.001  -0.110504  0.000441  3.900161  0.0  -0.105571  0.000248  3.915538  0.0  -0.057691  -0.113448  0.000519  3.889927  0.001
C  C45  1  0.60485828  0.11522297  0.48091941  1  -0.071858  -0.001469  3.645086  -0.001  -0.110759  0.00044  3.900229  0.0  -0.10583  0.00025  3.915609  0.0  -0.057816  -0.113688  0.000519  3.88997  0.001
C  C46  1  0.89514258  0.61522076  0.48091699  1  -0.071839  -0.001453  3.645071  -0.001  -0.110699  0.000441  3.900202  0.0  -0.105766  0.000249  3.915581  0.0  -0.057774  -0.113626  0.00052  3.889943  0.001
C  C47  1  0.39514406  0.88477924  0.51908135  1  -0.071657  -0.001423  3.645057  -0.001  -0.110508  0.00044  3.900169  0.0  -0.105577  0.000248  3.915546  0.0  -0.057706  -0.113439  0.000519  3.889915  0.001
C  C48  1  0.11328731  0.37274970  0.64137258  1  0.089229  0.000365  3.690909  0.001  0.075998  -0.000375  3.943401  0.0  0.070557  -0.000353  3.964817  0.0  0.085942  0.078669  -0.000319  3.929371  0.0
C  C49  1  0.61328588  0.12725091  0.35862874  1  0.089333  0.000348  3.690742  0.001  0.076124  -0.000372  3.943095  0.0  0.070685  -0.000342  3.964511  0.0  0.085939  0.078795  -0.00032  3.929068  0.0
C  C50  1  0.88671716  0.62724873  0.35862898  1  0.089551  0.000357  3.690872  0.001  0.076224  -0.000375  3.943365  0.0  0.070786  -0.000356  3.964781  0.0  0.085987  0.078891  -0.000319  3.929334  0.0
C  C51  1  0.38671647  0.87274846  0.64136931  1  0.089415  0.000345  3.690725  0.001  0.076135  -0.000375  3.943151  0.0  0.070699  -0.00036  3.964566  0.0  0.085924  0.078805  -0.000319  3.929111  0.0
C  C52  1  0.04973634  0.27465212  0.70011089  1  -0.076101  -0.002334  3.644328  -0.001  -0.120417  2.9e-05  3.910994  0.0  -0.114241  -3.9e-05  3.923608  0.0  -0.051435  -0.123306  -0.000131  3.901744  0.0
C  C53  1  0.54973660  0.22535063  0.29989052  1  -0.076163  -0.002297  3.644149  -0.001  -0.120533  2.8e-05  3.910854  0.0  -0.114355  -3.9e-05  3.923475  0.0  -0.051482  -0.123425  -0.000131  3.901621  0.0
C  C54  1  0.95026600  0.72534727  0.29989157  1  -0.076094  -0.002308  3.644334  -0.001  -0.120496  2.9e-05  3.911077  0.0  -0.114318  -3.6e-05  3.923686  0.0  -0.051418  -0.12339  -0.000131  3.901843  0.0
C  C55  1  0.45026468  0.77464969  0.70010844  1  -0.076091  -0.002272  3.644039  -0.001  -0.120498  2.8e-05  3.910792  0.0  -0.114323  -3.9e-05  3.923407  0.0  -0.051436  -0.123389  -0.000132  3.901547  0.0
C  C56  1  0.97610584  0.18639927  0.63112750  1  0.078746  0.000746  3.692517  0.001  0.075693  0.000116  3.949527  0.0  0.070052  4.9e-05  3.970663  0.0  0.085587  0.078845  0.000239  3.93538  0.0
C  C57  1  0.47610356  0.31360372  0.36887278  1  0.078754  0.000736  3.692323  0.001  0.075627  0.000117  3.949443  0.0  0.069969  4.8e-05  3.970609  0.0  0.085625  0.078778  0.000239  3.935303  0.0
C  C58  1  0.02389756  0.81359917  0.36887318  1  0.078728  0.000737  3.69254  0.001  0.075671  0.000116  3.949582  0.0  0.070028  4.2e-05  3.970726  0.0  0.085553  0.07882  0.00024  3.935435  0.0
C  C59  1  0.52389879  0.68639565  0.63112527  1  0.078782  0.000717  3.692207  0.001  0.075702  0.000117  3.949294  0.0  0.070055  4.9e-05  3.970443  0.0  0.085597  0.078853  0.00024  3.935142  0.0
N  N60  1  0.23814832  0.25849442  0.05859049  1  -0.412296  0.047159  3.272935  0.073  -0.359303  0.03456  3.587376  0.043  -0.394138  0.026767  3.599011  0.033  -0.360842  -0.333492  0.041772  3.579622  0.053
N  N61  1  0.73814900  0.24150383  0.94141071  1  -0.412298  0.047157  3.272937  0.073  -0.359317  0.03456  3.587377  0.043  -0.394147  0.026767  3.599012  0.033  -0.360835  -0.333506  0.041771  3.579623  0.053
N  N62  1  0.76185084  0.74150401  0.94140931  1  -0.412253  0.047158  3.272791  0.073  -0.359257  0.03456  3.587225  0.043  -0.394095  0.026768  3.598868  0.033  -0.360801  -0.333445  0.041772  3.579468  0.053
N  N63  1  0.26185016  0.75849461  0.05859174  1  -0.412222  0.047157  3.272885  0.073  -0.359235  0.034559  3.587315  0.043  -0.394069  0.026766  3.598962  0.033  -0.36079  -0.333428  0.041772  3.579563  0.053
N  N64  1  0.34880207  0.07320530  0.06546736  1  -0.269193  0.044135  3.230337  0.069  -0.228241  0.03177  3.554302  0.041  -0.254665  0.024247  3.570794  0.031  -0.258005  -0.2084  0.038855  3.542523  0.051
N  N65  1  0.84880503  0.42679252  0.93453288  1  -0.269206  0.044128  3.230226  0.069  -0.228239  0.031769  3.554157  0.041  -0.254661  0.024248  3.570646  0.031  -0.257993  -0.208393  0.038853  3.542369  0.051
N  N66  1  0.65119496  0.92679314  0.93453156  1  -0.26925  0.04413  3.230273  0.069  -0.228308  0.03177  3.55423  0.041  -0.25473  0.024246  3.570717  0.031  -0.258022  -0.208461  0.038854  3.542447  0.051
N  N67  1  0.15119519  0.57320591  0.06546780  1  -0.269225  0.044137  3.230228  0.069  -0.228264  0.03177  3.554177  0.041  -0.254691  0.024247  3.570666  0.031  -0.258006  -0.208418  0.038855  3.542395  0.051
N  N68  1  0.42142122  0.14823744  0.98795155  1  -0.282324  0.046318  3.273274  0.071  -0.243339  0.03356  3.604107  0.043  -0.270596  0.025843  3.620768  0.032  -0.262749  -0.222954  0.0408  3.592091  0.053
N  N69  1  0.92142219  0.35176104  0.01204865  1  -0.28233  0.046319  3.273253  0.071  -0.243326  0.033559  3.604064  0.043  -0.270587  0.025844  3.62073  0.032  -0.262747  -0.222945  0.0408  3.592055  0.053
N  N70  1  0.57857687  0.85176099  0.01204824  1  -0.282329  0.046323  3.273236  0.071  -0.24333  0.033559  3.604072  0.043  -0.270593  0.025843  3.620748  0.032  -0.262736  -0.222954  0.040801  3.592068  0.053
N  N71  1  0.07857697  0.64823833  0.98795116  1  -0.282256  0.046312  3.273367  0.071  -0.243263  0.033558  3.604181  0.043  -0.270521  0.025843  3.620843  0.032  -0.262677  -0.22288  0.040799  3.592161  0.053
N  N72  1  0.91698448  0.07723361  0.69022371  1  0.512026  -0.000724  3.879621  -0.001  0.530428  -0.000114  4.187544  0.0  0.552803  -0.000263  4.195441  0.0  0.057981  0.515423  -9.3e-05  4.182498  0.0
N  N73  1  0.41698277  0.42276960  0.30977484  1  0.512136  -0.000717  3.8793  -0.001  0.530537  -0.000113  4.187262  0.0  0.552916  -0.000262  4.195157  0.0  0.058083  0.515533  -9.3e-05  4.182215  0.0
N  N74  1  0.08301680  0.92276765  0.30977615  1  0.512104  -0.000722  3.879535  -0.001  0.530522  -0.000114  4.187456  0.0  0.552898  -0.00026  4.195354  0.0  0.058041  0.515519  -9.3e-05  4.182408  0.0
N  N75  1  0.58301638  0.57723166  0.69022414  1  0.512079  -0.000701  3.879493  -0.001  0.530448  -0.000114  4.187471  0.0  0.552826  -0.000264  4.19537  0.0  0.058019  0.515443  -9.3e-05  4.18242  0.0
N  N76  1  0.19618720  0.46469418  0.71132003  1  0.482617  -0.00063  3.948401  0.0  0.540427  -2e-05  4.198356  0.0  0.563634  -0.000184  4.204614  0.0  0.061116  0.524662  8.7e-05  4.194735  0.001
N  N77  1  0.69618416  0.03530328  0.28868206  1  0.482244  -0.000624  3.948871  0.0  0.540389  -2.1e-05  4.198331  0.0  0.563598  -0.000186  4.204589  0.0  0.061147  0.524626  8.7e-05  4.194716  0.001
N  N78  1  0.80381727  0.53530426  0.28868242  1  0.48213  -0.000618  3.949139  0.0  0.540342  -2.1e-05  4.198557  0.0  0.563549  -0.000187  4.204812  0.0  0.061097  0.52458  8.7e-05  4.194943  0.001
N  N79  1  0.30381712  0.96469609  0.71131599  1  0.482148  -0.000619  3.949115  0.0  0.540355  -2.1e-05  4.198536  0.0  0.563562  -0.000184  4.204793  0.0  0.061065  0.524594  8.6e-05  4.194919  0.001
O  O80  1  0.08333808  0.39594962  0.27315207  1  -0.61474  0.063372  2.07308  0.107  -0.581947  0.04568  2.367616  0.071  -0.629789  0.033076  2.362205  0.051  -0.330371  -0.543226  0.05823  2.368629  0.09
O  O81  1  0.58333537  0.10405394  0.72684757  1  -0.614665  0.063376  2.073105  0.107  -0.581892  0.045679  2.367656  0.071  -0.629732  0.033077  2.362249  0.051  -0.330362  -0.543171  0.058232  2.36866  0.09
O  O82  1  0.91666426  0.60405165  0.72684867  1  -0.614725  0.063369  2.072992  0.107  -0.581927  0.04568  2.367524  0.071  -0.629771  0.033076  2.362117  0.051  -0.330374  -0.543208  0.058233  2.368529  0.09
O  O83  1  0.41666591  0.89594732  0.27314964  1  -0.61475  0.063372  2.073137  0.107  -0.58196  0.045681  2.36769  0.071  -0.629804  0.033077  2.362286  0.051  -0.330392  -0.543243  0.05823  2.368701  0.09
O  O84  1  0.96290226  0.21158514  0.26257093  1  -0.580755  0.004733  1.935972  0.008  -0.548517  0.006149  2.171054  0.01  -0.575838  0.004126  2.166646  0.007  -0.305947  -0.527591  0.008897  2.172709  0.015
O  O85  1  0.46290189  0.28842073  0.73742853  1  -0.580822  0.00473  1.935897  0.008  -0.548561  0.006149  2.170954  0.01  -0.575883  0.004126  2.166542  0.007  -0.306005  -0.527638  0.008898  2.172606  0.015
O  O86  1  0.03709902  0.78841612  0.73742717  1  -0.580805  0.00473  1.935997  0.008  -0.548561  0.006149  2.171083  0.01  -0.575879  0.004126  2.166667  0.007  -0.305967  -0.527639  0.008897  2.172741  0.015
O  O87  1  0.53709514  0.71158148  0.26257046  1  -0.580787  0.004725  1.935983  0.008  -0.548538  0.00615  2.17105  0.01  -0.575858  0.004128  2.166645  0.007  -0.305971  -0.527611  0.008897  2.172708  0.015
O  O88  1  0.93146587  0.07353836  0.79902412  1  -0.347752  0.000315  1.789026  0.001  -0.328764  0.000508  2.00642  0.001  -0.343335  0.000223  2.002977  0.0  -0.108962  -0.319341  0.000784  2.009507  0.001
O  O89  1  0.43146424  0.42646102  0.20097434  1  -0.34783  0.000315  1.788966  0.001  -0.328771  0.000508  2.006303  0.001  -0.343341  0.000222  2.002857  0.0  -0.108964  -0.319343  0.000784  2.009387  0.001
O  O90  1  0.06853435  0.92646196  0.20097572  1  -0.347763  0.000311  1.788999  0.001  -0.328794  0.000509  2.006416  0.001  -0.343363  0.000225  2.002961  0.0  -0.108963  -0.31937  0.000783  2.009502  0.001
O  O91  1  0.56853173  0.57354118  0.79902466  1  -0.347855  0.00031  1.789043  0.001  -0.328779  0.000508  2.006388  0.001  -0.343332  0.000224  2.002901  0.0  -0.108956  -0.319356  0.000783  2.009469  0.001
O  O92  1  0.85713992  0.99454125  0.62897984  1  -0.345695  0.000238  1.79356  0.001  -0.31771  0.000435  2.008647  0.001  -0.330358  0.000329  2.005374  0.001  -0.108467  -0.309626  0.000573  2.01147  0.001
O  O93  1  0.35713808  0.50546454  0.37101777  1  -0.345724  0.000234  1.793498  0.001  -0.317752  0.000435  2.008598  0.001  -0.330398  0.000331  2.005321  0.001  -0.10852  -0.309664  0.000573  2.011414  0.001
O  O94  1  0.14286136  0.00546095  0.37102004  1  -0.345724  0.000236  1.793521  0.001  -0.317742  0.000435  2.008607  0.001  -0.330387  0.00033  2.005331  0.001  -0.108493  -0.309663  0.000574  2.01144  0.001
O  O95  1  0.64286107  0.49453672  0.62898209  1  -0.345703  0.000232  1.793485  0.001  -0.317733  0.000435  2.008592  0.001  -0.330384  0.00033  2.005319  0.001  -0.108513  -0.309659  0.000574  2.011424  0.001
O  O96  1  0.26028778  0.54737306  0.65686128  1  -0.347018  0.000447  1.796571  0.001  -0.334436  0.001123  1.993292  0.002  -0.348164  0.000969  1.991229  0.002  -0.119206  -0.325684  0.001316  1.995314  0.002
O  O97  1  0.76028264  0.95262369  0.34314149  1  -0.346877  0.00045  1.796736  0.001  -0.334438  0.001124  1.993347  0.002  -0.348165  0.000968  1.991282  0.002  -0.119226  -0.325676  0.001316  1.995365  0.002
O  O98  1  0.73971669  0.45262821  0.34314211  1  -0.346848  0.000444  1.796908  0.001  -0.334429  0.001123  1.993501  0.002  -0.348155  0.000971  1.991435  0.002  -0.119208  -0.325672  0.001316  1.995525  0.002
O  O99  1  0.23971545  0.04737474  0.65685831  1  -0.346853  0.000445  1.796778  0.001  -0.334428  0.001123  1.993366  0.002  -0.348157  0.00097  1.991303  0.002  -0.119198  -0.325674  0.001317  1.99539  0.002
O  O100  1  0.19769665  0.45521497  0.82003911  1  -0.337298  0.000756  1.805248  0.001  -0.340368  0.001313  2.019323  0.001  -0.354445  0.000667  2.015017  0.0  -0.109578  -0.330945  0.001913  2.023021  0.001
O  O101  1  0.69769472  0.04478344  0.17996388  1  -0.337158  0.000759  1.805413  0.001  -0.340368  0.00131  2.019348  0.001  -0.354442  0.000661  2.01504  0.0  -0.109582  -0.33094  0.001914  2.023051  0.001
O  O102  1  0.80230463  0.54478441  0.17996336  1  -0.337172  0.000754  1.805452  0.001  -0.34038  0.001313  2.019357  0.001  -0.354457  0.000664  2.015053  0.0  -0.109577  -0.330953  0.001914  2.02306  0.001
O  O103  1  0.30230443  0.95521499  0.82003327  1  -0.337182  0.000751  1.805596  0.001  -0.340414  0.001313  2.019527  0.001  -0.354491  0.000668  2.015221  0.0  -0.109572  -0.330991  0.001913  2.023228  0.001
