# generated using pymatgen
data_CuH5C6INO
_symmetry_space_group_name_H-M   'P 1'
_cell_length_a   4.04817311
_cell_length_b   7.56583771
_cell_length_c   12.09928275
_cell_angle_alpha   96.91238798
_cell_angle_beta   91.16799909
_cell_angle_gamma   100.17331547
_symmetry_Int_Tables_number   1
_chemical_formula_structural   CuH5C6INO
_chemical_formula_sum   'Cu2 H10 C12 I2 N2 O2'
_cell_volume   361.76828984
_cell_formula_units_Z   2
loop_
 _symmetry_equiv_pos_site_id
 _symmetry_equiv_pos_as_xyz
  1  'x, y, z'
loop_
 _atom_site_type_symbol
 _atom_site_label
 _atom_site_symmetry_multiplicity
 _atom_site_fract_x
 _atom_site_fract_y
 _atom_site_fract_z
 _atom_site_occupancy
 _atom_site_hle17_bader_spin_density
 _atom_site_hle17_ddec_charge
 _atom_site_hle17_ddec_spin_density
 _atom_site_hle17_ddec_sum_bond_order
 _atom_site_hle17_magmom
 _atom_site_hse06_10hf_bader_spin_density
 _atom_site_hse06_10hf_ddec_charge
 _atom_site_hse06_10hf_ddec_spin_density
 _atom_site_hse06_10hf_ddec_sum_bond_order
 _atom_site_hse06_10hf_magmom
 _atom_site_hse06_bader_spin_density
 _atom_site_hse06_ddec_charge
 _atom_site_hse06_ddec_spin_density
 _atom_site_hse06_ddec_sum_bond_order
 _atom_site_hse06_magmom
 _atom_site_pbe_bader_spin_density
 _atom_site_pbe_cm5_charge
 _atom_site_pbe_ddec_charge
 _atom_site_pbe_ddec_spin_density
 _atom_site_pbe_ddec_sum_bond_order
 _atom_site_pbe_magmom
Cu  Cu0  1  0.27559397  0.08630827  0.45818527  1  0  0.226718  0  2.242564  0  0  0.151628  0  2.727839  0  0  0.164729  0  2.670569  0  0  0.241164  0.145504  0  2.765397  0
Cu  Cu1  1  0.72442335  0.91369962  0.54181474  1  0  0.226786  0  2.242477  0  0  0.151645  0  2.727841  0  0  0.164687  0  2.670515  0  0  0.241156  0.145527  0  2.765389  0
H  H2  1  0.89143403  0.93123267  0.24765087  1  0  0.074976  0  0.960874  0  0  0.080072  0  1.034258  0  0  0.083113  0  1.030359  0  0  0.106614  0.077634  0  1.037348  0
H  H3  1  0.10859362  0.06876977  0.75235298  1  0  0.074954  0  0.960634  0  0  0.080068  0  1.034062  0  0  0.083108  0  1.030161  0  0  0.106634  0.077631  0  1.037144  0
H  H4  1  0.73954200  0.03726798  0.06971023  1  0  0.111854  0  0.944645  0  0  0.121043  0  1.004836  0  0  0.124249  0  1.004403  0  0  0.10983  0.118881  0  1.005165  0
H  H5  1  0.26045182  0.96272237  0.93029237  1  0  0.111841  0  0.944646  0  0  0.121044  0  1.004791  0  0  0.124228  0  1.004411  0  0  0.109829  0.118879  0  1.005118  0
H  H6  1  0.00911723  0.34981095  0.03125486  1  0  0.111562  0  0.961798  0  0  0.115088  0  1.032812  0  0  0.119429  0  1.027725  0  0  0.109108  0.111993  0  1.036477  0
H  H7  1  0.99085768  0.65018895  0.96874742  1  0  0.111485  0  0.961856  0  0  0.114998  0  1.032908  0  0  0.119332  0  1.02783  0  0  0.109073  0.111919  0  1.036542  0
H  H8  1  0.56922410  0.40420905  0.34607902  1  0  0.080269  0  0.958546  0  0  0.086216  0  1.031302  0  0  0.089581  0  1.028398  0  0  0.097587  0.083209  0  1.034133  0
H  H9  1  0.43076940  0.59580840  0.65391979  1  0  0.080227  0  0.95846  0  0  0.086165  0  1.03122  0  0  0.089528  0  1.028309  0  0  0.097591  0.083133  0  1.034068  0
H  H10  1  0.68872098  0.64220476  0.23795812  1  0  0.020802  0  0.96574  0  0  0.025824  0  1.044653  0  0  0.02881  0  1.039518  0  0  0.082751  0.023121  0  1.048984  0
H  H11  1  0.31127582  0.35779371  0.76204016  1  0  0.02082  0  0.965788  0  0  0.025879  0  1.044604  0  0  0.028822  0  1.0395  0  0  0.082756  0.023147  0  1.049001  0
C  C12  1  0.00816885  0.06367789  0.22716172  1  0  0.151243  0  3.633504  0  0  0.116968  0  3.886037  0  0  0.126444  0  3.901081  0  0  0.050398  0.110235  0  3.876869  0
C  C13  1  0.99185002  0.93632052  0.77284092  1  0  0.151449  0  3.633176  0  0  0.117088  0  3.885748  0  0  0.12656  0  3.900789  0  0  0.050426  0.110347  0  3.8766  0
C  C14  1  0.92423575  0.12479190  0.12802927  1  0  -0.117611  0  3.713809  0  0  -0.12785  0  3.966284  0  0  -0.137256  0  3.988368  0  0  -0.078388  -0.1217  0  3.951565  0
C  C15  1  0.07577145  0.87520111  0.87197036  1  0  -0.117701  0  3.71366  0  0  -0.127892  0  3.966148  0  0  -0.137301  0  3.988225  0  0  -0.078451  -0.121742  0  3.951424  0
C  C16  1  0.07447378  0.29697589  0.10705340  1  0  -0.000988  0  3.650672  0  0  -0.033303  0  3.902545  0  0  -0.025614  0  3.917313  0  0  -0.054597  -0.03834  0  3.892418  0
C  C17  1  0.92554289  0.70301574  0.89294458  1  0  -0.000854  0  3.650516  0  0  -0.033196  0  3.902418  0  0  -0.025496  0  3.91718  0  0  -0.054522  -0.038229  0  3.892296  0
C  C18  1  0.31036918  0.40073182  0.18644922  1  0  -0.079782  0  3.805681  0  0  -0.052581  0  4.039151  0  0  -0.065818  0  4.066276  0  0  -0.024717  -0.043909  0  4.021432  0
C  C19  1  0.68965245  0.59925979  0.81354799  1  0  -0.079891  0  3.805975  0  0  -0.052755  0  4.03947  0  0  -0.065993  0  4.066586  0  0  -0.024819  -0.044079  0  4.021737  0
C  C20  1  0.38422709  0.32773527  0.28297935  1  0  0.113064  0  3.660628  0  0  0.074517  0  3.905532  0  0  0.082233  0  3.9241  0  0  0.046647  0.069236  0  3.894054  0
C  C21  1  0.61578687  0.67226314  0.71702240  1  0  0.113169  0  3.660634  0  0  0.074666  0  3.90549  0  0  0.082389  0  3.924044  0  0  0.046709  0.069411  0  3.894014  0
C  C22  1  0.48380793  0.58531371  0.17377793  1  0  0.332647  0  3.705172  0  0  0.287403  0  3.97872  0  0  0.30841  0  3.979854  0  0  0.09107  0.27216  0  3.979464  0
C  C23  1  0.51617648  0.41469158  0.82621823  1  0  0.332729  0  3.705325  0  0  0.287563  0  3.978746  0  0  0.308603  0  3.979889  0  0  0.091222  0.272318  0  3.979469  0
I  I24  1  0.16825569  0.73468820  0.43687718  1  0  -0.33727  0  1.853264  0  0  -0.288625  0  2.334333  0  0  -0.307792  0  2.29075  0  0  -0.160971  -0.273196  0  2.364513  0
I  I25  1  0.83171806  0.26532254  0.56312506  1  0  -0.33723  0  1.853196  0  0  -0.288602  0  2.334269  0  0  -0.307746  0  2.290623  0  0  -0.160938  -0.273162  0  2.364456  0
N  N26  1  0.23339416  0.16334012  0.30446922  1  0  -0.265716  0  3.352581  0  0  -0.189215  0  3.634389  0  0  -0.204405  0  3.645073  0  0  -0.359369  -0.180251  0  3.628157  0
N  N27  1  0.76661125  0.83666239  0.69553523  1  0  -0.265871  0  3.352617  0  0  -0.189352  0  3.634421  0  0  -0.204528  0  3.645079  0  0  -0.359418  -0.180388  0  3.628166  0
O  O28  1  0.41826958  0.67323430  0.09964792  1  0  -0.421793  0  1.95844  0  0  -0.367197  0  2.167537  0  0  -0.386096  0  2.166219  0  0  -0.257123  -0.354592  0  2.168963  0
O  O29  1  0.58169093  0.32675887  0.90034544  1  0  -0.421887  0  1.958414  0  0  -0.367306  0  2.167441  0  0  -0.38621  0  2.166111  0  0  -0.257252  -0.354696  0  2.168861  0
