# generated using pymatgen
data_ZnH16C17(NO)4
_symmetry_space_group_name_H-M   'P 1'
_cell_length_a   9.01857911
_cell_length_b   10.34059164
_cell_length_c   11.16957756
_cell_angle_alpha   82.81786571
_cell_angle_beta   87.27302261
_cell_angle_gamma   75.91413615
_symmetry_Int_Tables_number   1
_chemical_formula_structural   ZnH16C17(NO)4
_chemical_formula_sum   'Zn2 H32 C34 N8 O8'
_cell_volume   1002.23966090
_cell_formula_units_Z   2
loop_
 _symmetry_equiv_pos_site_id
 _symmetry_equiv_pos_as_xyz
  1  'x, y, z'
loop_
 _atom_site_type_symbol
 _atom_site_label
 _atom_site_symmetry_multiplicity
 _atom_site_fract_x
 _atom_site_fract_y
 _atom_site_fract_z
 _atom_site_occupancy
 _atom_site_hle17_bader_spin_density
 _atom_site_hle17_ddec_charge
 _atom_site_hle17_ddec_spin_density
 _atom_site_hle17_ddec_sum_bond_order
 _atom_site_hle17_magmom
 _atom_site_hse06_10hf_bader_spin_density
 _atom_site_hse06_10hf_ddec_charge
 _atom_site_hse06_10hf_ddec_spin_density
 _atom_site_hse06_10hf_ddec_sum_bond_order
 _atom_site_hse06_10hf_magmom
 _atom_site_hse06_bader_spin_density
 _atom_site_hse06_ddec_charge
 _atom_site_hse06_ddec_spin_density
 _atom_site_hse06_ddec_sum_bond_order
 _atom_site_hse06_magmom
 _atom_site_pbe_bader_spin_density
 _atom_site_pbe_cm5_charge
 _atom_site_pbe_ddec_charge
 _atom_site_pbe_ddec_spin_density
 _atom_site_pbe_ddec_sum_bond_order
 _atom_site_pbe_magmom
Zn  Zn0  1  0.12440423  0.39568042  0.18884252  1  0  0.998997  0  1.86404  0  0  0.80938  0  2.335831  0  0  0.855428  0  2.283022  0  0  0.69419  0.774235  0  2.374571  0
Zn  Zn1  1  0.87559609  0.60432105  0.81115721  1  0  0.998965  0  1.864098  0  0  0.809348  0  2.335869  0  0  0.855396  0  2.283065  0  0  0.694168  0.774196  0  2.374604  0
H  H2  1  0.75176225  0.19384196  0.10950641  1  0  0.084693  0  0.973274  0  0  0.090317  0  1.047628  0  0  0.093449  0  1.045435  0  0  0.096869  0.088185  0  1.04901  0
H  H3  1  0.24823472  0.80615953  0.89049524  1  0  0.084553  0  0.973199  0  0  0.090157  0  1.047612  0  0  0.093291  0  1.045417  0  0  0.096798  0.088025  0  1.048993  0
H  H4  1  0.17048872  0.90176607  0.19962052  1  0  0.105519  0  0.950665  0  0  0.111706  0  1.017182  0  0  0.117047  0  1.011617  0  0  0.102192  0.107865  0  1.021343  0
H  H5  1  0.82951191  0.09823840  0.80037887  1  0  0.105534  0  0.950707  0  0  0.111727  0  1.017204  0  0  0.117068  0  1.01164  0  0  0.102188  0.107888  0  1.021368  0
H  H6  1  0.77822551  0.77243581  0.10355920  1  0  0.092671  0  0.982398  0  0  0.097452  0  1.054408  0  0  0.100298  0  1.053333  0  0  0.097897  0.095513  0  1.055018  0
H  H7  1  0.22177618  0.22756465  0.89644060  1  0  0.092702  0  0.982448  0  0  0.097482  0  1.054436  0  0  0.100331  0  1.053354  0  0  0.097906  0.095543  0  1.055046  0
H  H8  1  0.62829084  0.00951940  0.07561467  1  0  0.0851  0  0.95747  0  0  0.098213  0  1.013455  0  0  0.101056  0  1.012824  0  0  0.099072  0.096392  0  1.013692  0
H  H9  1  0.37170863  0.99048108  0.92438521  1  0  0.085124  0  0.957468  0  0  0.098235  0  1.013456  0  0  0.101078  0  1.012825  0  0  0.099075  0.096415  0  1.013692  0
H  H10  1  0.19863647  0.57059544  0.94647992  1  0  0.115022  0  0.96465  0  0  0.121343  0  1.032362  0  0  0.124723  0  1.02825  0  0  0.137336  0.118682  0  1.035539  0
H  H11  1  0.80136380  0.42940204  0.05351848  1  0  0.114974  0  0.964662  0  0  0.121314  0  1.032365  0  0  0.124694  0  1.028251  0  0  0.137342  0.118653  0  1.035542  0
H  H12  1  0.43693675  0.19103541  0.11017983  1  0  0.113112  0  0.951807  0  0  0.124605  0  1.007094  0  0  0.127379  0  1.00544  0  0  0.121808  0.122571  0  1.008322  0
H  H13  1  0.56306463  0.80896204  0.88982121  1  0  0.113075  0  0.951865  0  0  0.124627  0  1.007098  0  0  0.127392  0  1.005451  0  0  0.121799  0.122592  0  1.008327  0
H  H14  1  0.60001087  0.26663354  0.90115368  1  0  0.133407  0  0.966482  0  0  0.141828  0  1.027245  0  0  0.145197  0  1.02523  0  0  0.125015  0.139266  0  1.028919  0
H  H15  1  0.39999024  0.73336492  0.09884726  1  0  0.13342  0  0.966416  0  0  0.14184  0  1.027176  0  0  0.14521  0  1.025161  0  0  0.125007  0.139279  0  1.02885  0
H  H16  1  0.57019673  0.51156383  0.78364717  1  0  0.093114  0  0.961594  0  0  0.102015  0  1.033388  0  0  0.103435  0  1.032571  0  0  0.111963  0.10067  0  1.034042  0
H  H17  1  0.42980354  0.48843364  0.21635212  1  0  0.093133  0  0.961646  0  0  0.102046  0  1.033438  0  0  0.103468  0  1.032619  0  0  0.111977  0.100702  0  1.034092  0
H  H18  1  0.38206097  0.61922627  0.78221389  1  0  0.078874  0  0.916712  0  0  0.096937  0  0.97461  0  0  0.097481  0  0.974593  0  0  0.114623  0.09633  0  0.974787  0
H  H19  1  0.61793765  0.38077321  0.21778613  1  0  0.078896  0  0.916663  0  0  0.096929  0  0.974614  0  0  0.097476  0  0.974596  0  0  0.114615  0.096323  0  0.974791  0
H  H20  1  0.47073743  0.34891612  0.67762898  1  0  0.086027  0  0.915024  0  0  0.106482  0  0.969104  0  0  0.107558  0  0.969105  0  0  0.102603  0.105574  0  0.969227  0
H  H21  1  0.52926146  0.65108237  0.32236935  1  0  0.086005  0  0.915041  0  0  0.106463  0  0.969117  0  0  0.107538  0  0.96912  0  0  0.102627  0.105557  0  0.969239  0
H  H22  1  0.46846903  0.50477501  0.59155850  1  0  0.070448  0  0.947706  0  0  0.089543  0  1.007356  0  0  0.090157  0  1.007898  0  0  0.094038  0.088932  0  1.007154  0
H  H23  1  0.53153097  0.49522346  0.40844069  1  0  0.070453  0  0.947679  0  0  0.089563  0  1.007305  0  0  0.090174  0  1.007851  0  0  0.094053  0.088954  0  1.007102  0
H  H24  1  0.18534391  0.44125151  0.72985978  1  0  0.09616  0  0.964387  0  0  0.106544  0  1.031714  0  0  0.10838  0  1.030592  0  0  0.113014  0.105052  0  1.032832  0
H  H25  1  0.81465641  0.55874997  0.27013906  1  0  0.0961  0  0.964388  0  0  0.10654  0  1.031648  0  0  0.108376  0  1.030526  0  0  0.113016  0.105049  0  1.032765  0
H  H26  1  0.18945443  0.58586738  0.62867181  1  0  0.082333  0  0.909474  0  0  0.099523  0  0.966126  0  0  0.100229  0  0.966129  0  0  0.114392  0.0989  0  0.9663  0
H  H27  1  0.81054589  0.41413410  0.37132614  1  0  0.08235  0  0.909453  0  0  0.099539  0  0.966106  0  0  0.100246  0  0.966107  0  0  0.114403  0.098917  0  0.966279  0
H  H28  1  0.19706258  0.56417654  0.39739178  1  0  0.107885  0  0.952749  0  0  0.117283  0  1.0145  0  0  0.120182  0  1.011271  0  0  0.137114  0.115055  0  1.016867  0
H  H29  1  0.80293827  0.43582294  0.60260637  1  0  0.107861  0  0.952746  0  0  0.117253  0  1.014516  0  0  0.120155  0  1.011283  0  0  0.137076  0.115024  0  1.016885  0
H  H30  1  0.21740756  0.21359170  0.64438748  1  0  0.117111  0  0.970669  0  0  0.127963  0  1.029112  0  0  0.129908  0  1.029559  0  0  0.12233  0.126409  0  1.029043  0
H  H31  1  0.78259302  0.78640877  0.35561236  1  0  0.117038  0  0.970759  0  0  0.127919  0  1.029167  0  0  0.129864  0  1.029614  0  0  0.122314  0.126366  0  1.029099  0
H  H32  1  0.17598342  0.16019205  0.40976919  1  0  0.119711  0  0.953405  0  0  0.131082  0  1.006162  0  0  0.133815  0  1.004884  0  0  0.121945  0.128984  0  1.007315  0
H  H33  1  0.82401880  0.83980640  0.59023171  1  0  0.119677  0  0.953442  0  0  0.131082  0  1.00616  0  0  0.133813  0  1.004884  0  0  0.121942  0.128982  0  1.007315  0
C  C34  1  0.81527905  0.08925564  0.12313046  1  0  -0.060676  0  3.732257  0  0  -0.087307  0  3.980844  0  0  -0.084931  0  4.000762  0  0  -0.084275  -0.087976  0  3.966727  0
C  C35  1  0.18471766  0.91074685  0.87687109  1  0  -0.06046  0  3.731993  0  0  -0.087072  0  3.980573  0  0  -0.084696  0  4.000493  0  0  -0.084213  -0.087741  0  3.966454  0
C  C36  1  0.96860985  0.05899071  0.15758708  1  0  -0.068255  0  3.768476  0  0  -0.040238  0  3.99487  0  0  -0.050354  0  4.020287  0  0  -0.01977  -0.033846  0  3.978518  0
C  C37  1  0.03138744  0.94101378  0.84241333  1  0  -0.068243  0  3.768264  0  0  -0.040235  0  3.994656  0  0  -0.050355  0  4.020077  0  0  -0.019803  -0.033842  0  3.978301  0
C  C38  1  0.05130360  0.92507014  0.17327613  1  0  -0.065279  0  3.708215  0  0  -0.098715  0  3.94914  0  0  -0.096409  0  3.968758  0  0  -0.077088  -0.100405  0  3.936878  0
C  C39  1  0.94869591  0.07493433  0.82672599  1  0  -0.065259  0  3.708279  0  0  -0.098678  0  3.94918  0  0  -0.096372  0  3.968802  0  0  -0.077008  -0.100371  0  3.936921  0
C  C40  1  0.98298682  0.82159634  0.15508885  1  0  -0.081988  0  3.776003  0  0  -0.057375  0  4.011625  0  0  -0.067475  0  4.035937  0  0  -0.024372  -0.050958  0  3.995897  0
C  C41  1  0.01701238  0.17840512  0.84491541  1  0  -0.082001  0  3.776058  0  0  -0.057401  0  4.011685  0  0  -0.0675  0  4.035999  0  0  -0.024388  -0.050986  0  3.99596  0
C  C42  1  0.82996489  0.85304256  0.12012875  1  0  -0.057155  0  3.726312  0  0  -0.084242  0  3.979169  0  0  -0.08118  0  3.997447  0  0  -0.084208  -0.085365  0  3.966252  0
C  C43  1  0.17003569  0.14695789  0.87987467  1  0  -0.057132  0  3.726404  0  0  -0.084202  0  3.979237  0  0  -0.081136  0  3.997507  0  0  -0.084192  -0.085327  0  3.966323  0
C  C44  1  0.74660461  0.98641254  0.10434746  1  0  -0.083756  0  3.778423  0  0  -0.093676  0  4.028946  0  0  -0.098962  0  4.050585  0  0  -0.094522  -0.090292  0  4.013571  0
C  C45  1  0.25339485  0.01358794  0.89565332  1  0  -0.083915  0  3.778564  0  0  -0.093843  0  4.029087  0  0  -0.099131  0  4.050727  0  0  -0.094567  -0.090459  0  4.013712  0
C  C46  1  0.07474452  0.67885337  0.17412539  1  0  0.635959  0  3.926611  0  0  0.585809  0  4.221582  0  0  0.619568  0  4.214882  0  0  0.200523  0.562634  0  4.225555  0
C  C47  1  0.92525775  0.32114909  0.82587507  1  0  0.636097  0  3.926492  0  0  0.585946  0  4.221449  0  0  0.619706  0  4.214749  0  0  0.200572  0.562769  0  4.225426  0
C  C48  1  0.04866576  0.16581898  0.17637226  1  0  0.62585  0  3.928762  0  0  0.57908  0  4.216978  0  0  0.612412  0  4.211532  0  0  0.193004  0.556149  0  4.220276  0
C  C49  1  0.95133180  0.83418451  0.82362825  1  0  0.625861  0  3.928688  0  0  0.579098  0  4.2169  0  0  0.612434  0  4.211451  0  0  0.193026  0.556165  0  4.220198  0
C  C50  1  0.28556567  0.47757644  0.96576984  1  0  0.175802  0  3.615141  0  0  0.109775  0  3.885821  0  0  0.124882  0  3.896195  0  0  0.147684  0.100013  0  3.878516  0
C  C51  1  0.71443460  0.52242103  0.03422945  1  0  0.175992  0  3.61514  0  0  0.109928  0  3.88583  0  0  0.125039  0  3.896203  0  0  0.147735  0.100163  0  3.878524  0
C  C52  1  0.41423613  0.28053740  0.04558269  1  0  -0.006927  0  3.75519  0  0  -0.04106  0  4.023655  0  0  -0.039596  0  4.044073  0  0  -0.001076  -0.042251  0  4.009921  0
C  C53  1  0.58576498  0.71946106  0.95441735  1  0  -0.006902  0  3.755266  0  0  -0.041085  0  4.023712  0  0  -0.039609  0  4.044139  0  0  -0.001097  -0.042275  0  4.009976  0
C  C54  1  0.49295367  0.31455717  0.94287718  1  0  -0.076224  0  3.653429  0  0  -0.116875  0  3.912835  0  0  -0.116499  0  3.932671  0  0  -0.001776  -0.117331  0  3.900011  0
C  C55  1  0.50704798  0.68543929  0.05712217  1  0  -0.076209  0  3.653361  0  0  -0.116869  0  3.912787  0  0  -0.116494  0  3.932622  0  0  -0.001739  -0.117325  0  3.899963  0
C  C56  1  0.44795917  0.51492463  0.78170653  1  0  0.000119  0  3.606951  0  0  -0.060975  0  3.86135  0  0  -0.057226  0  3.873288  0  0  -0.051228  -0.063055  0  3.85302  0
C  C57  1  0.55204110  0.48507284  0.21829187  1  0  0.000155  0  3.607044  0  0  -0.06099  0  3.861523  0  0  -0.057245  0  3.873458  0  0  -0.051229  -0.06307  0  3.853194  0
C  C58  1  0.41487839  0.45672951  0.66963568  1  0  -0.137688  0  3.675675  0  0  -0.184208  0  3.943404  0  0  -0.185979  0  3.956119  0  0  -0.157181  -0.18277  0  3.934453  0
C  C59  1  0.58512188  0.54326797  0.33036182  1  0  -0.137695  0  3.675641  0  0  -0.184198  0  3.943377  0  0  -0.185971  0  3.956094  0  0  -0.157221  -0.182762  0  3.934426  0
C  C60  1  0.24389249  0.47858702  0.64919341  1  0  -0.014714  0  3.622907  0  0  -0.076466  0  3.886236  0  0  -0.072619  0  3.896922  0  0  -0.05668  -0.078995  0  3.879057  0
C  C61  1  0.75610725  0.52141246  0.35080568  1  0  -0.014635  0  3.622833  0  0  -0.07642  0  3.886158  0  0  -0.07257  0  3.896838  0  0  -0.056669  -0.078949  0  3.878981  0
C  C62  1  0.19598944  0.46162388  0.43252689  1  0  0.156047  0  3.644976  0  0  0.091175  0  3.912605  0  0  0.104903  0  3.925319  0  0  0.138372  0.082354  0  3.903529  0
C  C63  1  0.80401141  0.53837559  0.56747216  1  0  0.155961  0  3.64493  0  0  0.091092  0  3.912546  0  0  0.104817  0  3.925263  0  0  0.138292  0.082269  0  3.903471  0
C  C64  1  0.20744615  0.27642226  0.55848236  1  0  -0.07022  0  3.685441  0  0  -0.108388  0  3.937188  0  0  -0.108156  0  3.958176  0  0  -0.001087  -0.108672  0  3.923516  0
C  C65  1  0.79254972  0.72357924  0.44151754  1  0  -0.07011  0  3.685485  0  0  -0.108314  0  3.937241  0  0  -0.108081  0  3.958229  0  0  -0.00109  -0.108601  0  3.923572  0
C  C66  1  0.18532184  0.25158522  0.44356659  1  0  -0.005571  0  3.757676  0  0  -0.037873  0  4.013241  0  0  -0.036413  0  4.0339  0  0  -0.004076  -0.039027  0  3.999483  0
C  C67  1  0.81468039  0.74841323  0.55643341  1  0  -0.005559  0  3.757579  0  0  -0.037885  0  4.013151  0  0  -0.036427  0  4.033812  0  0  -0.004055  -0.039039  0  3.999393  0
N  N68  1  0.28575008  0.38313249  0.05876507  1  0  -0.384214  0  3.335212  0  0  -0.302168  0  3.637956  0  0  -0.322257  0  3.649074  0  0  -0.362607  -0.288215  0  3.629694  0
N  N69  1  0.71424993  0.61686599  0.94123322  1  0  -0.384232  0  3.335133  0  0  -0.302183  0  3.637916  0  0  -0.322273  0  3.649027  0  0  -0.362614  -0.288229  0  3.62965  0
N  N70  1  0.40942738  0.43933851  0.89360558  1  0  -0.059083  0  3.550773  0  0  0.037695  0  3.76815  0  0  0.022723  0  3.795317  0  0  -0.24165  0.047533  0  3.749698  0
N  N71  1  0.59057426  0.56065795  0.10639377  1  0  -0.059249  0  3.551006  0  0  0.037566  0  3.7684  0  0  0.022593  0  3.795569  0  0  -0.24169  0.047403  0  3.749949  0
N  N72  1  0.21360713  0.40965437  0.54984851  1  0  -0.05715  0  3.580639  0  0  0.036047  0  3.804404  0  0  0.021495  0  3.83128  0  0  -0.242345  0.045662  0  3.786095  0
N  N73  1  0.78639207  0.59034712  0.45015037  1  0  -0.05718  0  3.580693  0  0  0.036029  0  3.804467  0  0  0.021476  0  3.831345  0  0  -0.242292  0.045644  0  3.786158  0
N  N74  1  0.17834060  0.36796757  0.36575865  1  0  -0.38267  0  3.314706  0  0  -0.301085  0  3.615255  0  0  -0.32081  0  3.627187  0  0  -0.357867  -0.287405  0  3.606483  0
N  N75  1  0.82166051  0.63203090  0.63424050  1  0  -0.382595  0  3.314643  0  0  -0.301009  0  3.615187  0  0  -0.320734  0  3.627123  0  0  -0.357838  -0.287327  0  3.606411  0
O  O76  1  0.00329067  0.58766528  0.15815745  1  0  -0.652579  0  2.057742  0  0  -0.576027  0  2.326709  0  0  -0.604092  0  2.313217  0  0  -0.332346  -0.555338  0  2.336657  0
O  O77  1  0.99671324  0.41233516  0.84184406  1  0  -0.652639  0  2.057813  0  0  -0.576044  0  2.326753  0  0  -0.604109  0  2.313259  0  0  -0.332357  -0.555351  0  2.336699  0
O  O78  1  0.21170210  0.65434039  0.20543264  1  0  -0.634659  0  1.95296  0  0  -0.589407  0  2.184359  0  0  -0.611997  0  2.175352  0  0  -0.326861  -0.572952  0  2.189623  0
O  O79  1  0.78829905  0.34566207  0.79456965  1  0  -0.634757  0  1.952855  0  0  -0.589556  0  2.184341  0  0  -0.612148  0  2.175335  0  0  -0.326915  -0.5731  0  2.189606  0
O  O80  1  0.96808349  0.28973410  0.16615331  1  0  -0.65729  0  2.00212  0  0  -0.586086  0  2.267423  0  0  -0.614291  0  2.2536  0  0  -0.338879  -0.565137  0  2.277482  0
O  O81  1  0.03191544  0.71026839  0.83384726  1  0  -0.657272  0  2.002066  0  0  -0.586076  0  2.267379  0  0  -0.614277  0  2.253542  0  0  -0.338886  -0.565127  0  2.277436  0
O  O82  1  0.18799222  0.13433266  0.20158486  1  0  -0.617861  0  1.909333  0  0  -0.569626  0  2.127981  0  0  -0.592467  0  2.11868  0  0  -0.326089  -0.552966  0  2.133417  0
O  O83  1  0.81200592  0.86567284  0.79841361  1  0  -0.61788  0  1.909373  0  0  -0.569663  0  2.128045  0  0  -0.5925  0  2.118727  0  0  -0.326068  -0.553002  0  2.133479  0
