# generated using pymatgen
data_BaH4C4O5
_symmetry_space_group_name_H-M   'P 1'
_cell_length_a   6.92567038
_cell_length_b   8.20869321
_cell_length_c   10.49046176
_cell_angle_alpha   90.00005830
_cell_angle_beta   89.99995844
_cell_angle_gamma   95.02615990
_symmetry_Int_Tables_number   1
_chemical_formula_structural   BaH4C4O5
_chemical_formula_sum   'Ba4 H16 C16 O20'
_cell_volume   594.09689122
_cell_formula_units_Z   4
loop_
 _symmetry_equiv_pos_site_id
 _symmetry_equiv_pos_as_xyz
  1  'x, y, z'
loop_
 _atom_site_type_symbol
 _atom_site_label
 _atom_site_symmetry_multiplicity
 _atom_site_fract_x
 _atom_site_fract_y
 _atom_site_fract_z
 _atom_site_occupancy
 _atom_site_hle17_bader_spin_density
 _atom_site_hle17_ddec_charge
 _atom_site_hle17_ddec_spin_density
 _atom_site_hle17_ddec_sum_bond_order
 _atom_site_hle17_magmom
 _atom_site_hse06_10hf_bader_spin_density
 _atom_site_hse06_10hf_ddec_charge
 _atom_site_hse06_10hf_ddec_spin_density
 _atom_site_hse06_10hf_ddec_sum_bond_order
 _atom_site_hse06_10hf_magmom
 _atom_site_hse06_bader_spin_density
 _atom_site_hse06_ddec_charge
 _atom_site_hse06_ddec_spin_density
 _atom_site_hse06_ddec_sum_bond_order
 _atom_site_hse06_magmom
 _atom_site_pbe_bader_spin_density
 _atom_site_pbe_cm5_charge
 _atom_site_pbe_ddec_charge
 _atom_site_pbe_ddec_spin_density
 _atom_site_pbe_ddec_sum_bond_order
 _atom_site_pbe_magmom
Ba  Ba0  1  0.46423258  0.73534254  0.40166793  1  0  1.658937  0  1.149411  0  0  1.51017  0  1.554382  0  0  1.553402  0  1.508679  0  0  0.981441  1.478146  0  1.587297  0
Ba  Ba1  1  0.03576344  0.26465746  0.90166966  1  0  1.658949  0  1.149363  0  0  1.510167  0  1.554374  0  0  1.553398  0  1.508669  0  0  0.981428  1.478134  0  1.587283  0
Ba  Ba2  1  0.53576668  0.26465957  0.59833017  1  0  1.658953  0  1.149382  0  0  1.510188  0  1.554372  0  0  1.553419  0  1.508669  0  0  0.981419  1.478154  0  1.58728  0
Ba  Ba3  1  0.96423411  0.73534222  0.09833130  1  0  1.658929  0  1.149326  0  0  1.510141  0  1.554311  0  0  1.553372  0  1.508609  0  0  0.981433  1.478126  0  1.587229  0
H  H4  1  0.12459338  0.09324580  0.34271419  1  0  0.129336  0  0.943995  0  0  0.141684  0  1.008435  0  0  0.144399  0  1.007476  0  0  0.121583  0.139711  0  1.009275  0
H  H5  1  0.37540689  0.90675290  0.84271249  1  0  0.1293  0  0.944128  0  0  0.141684  0  1.008507  0  0  0.144402  0  1.007543  0  0  0.121584  0.139712  0  1.009344  0
H  H6  1  0.87541035  0.90675752  0.65729154  1  0  0.129279  0  0.94404  0  0  0.141654  0  1.008457  0  0  0.144381  0  1.007489  0  0  0.121592  0.139682  0  1.009295  0
H  H7  1  0.62459210  0.09324677  0.15729038  1  0  0.129209  0  0.944089  0  0  0.141611  0  1.008488  0  0  0.144338  0  1.007521  0  0  0.121554  0.13964  0  1.009324  0
H  H8  1  0.96348550  0.17387903  0.23284849  1  0  0.124563  0  0.931964  0  0  0.138393  0  0.993752  0  0  0.141272  0  0.992229  0  0  0.120049  0.13622  0  0.995191  0
H  H9  1  0.53651346  0.82612047  0.73284594  1  0  0.124618  0  0.932099  0  0  0.138399  0  0.993914  0  0  0.141295  0  0.992363  0  0  0.120056  0.13623  0  0.995337  0
H  H10  1  0.03652111  0.82612428  0.76715438  1  0  0.124524  0  0.932113  0  0  0.138328  0  0.993935  0  0  0.141229  0  0.992386  0  0  0.12004  0.136156  0  0.995366  0
H  H11  1  0.46348278  0.17388044  0.26715502  1  0  0.124533  0  0.932101  0  0  0.138323  0  0.99395  0  0  0.141226  0  0.992402  0  0  0.120051  0.136153  0  0.995375  0
H  H12  1  0.81091358  0.44689952  0.33047066  1  0  0.380316  0  0.876836  0  0  0.356401  0  0.949335  0  0  0.366564  0  0.937254  0  0  0.322964  0.349088  0  0.958113  0
H  H13  1  0.68909120  0.55310130  0.83046970  1  0  0.380287  0  0.876919  0  0  0.356373  0  0.949406  0  0  0.366535  0  0.937328  0  0  0.322987  0.349063  0  0.958177  0
H  H14  1  0.18908424  0.55310261  0.66953125  1  0  0.380292  0  0.876883  0  0  0.35638  0  0.949372  0  0  0.366543  0  0.93729  0  0  0.322979  0.349065  0  0.958151  0
H  H15  1  0.31091212  0.44689836  0.16953221  1  0  0.380285  0  0.876864  0  0  0.356368  0  0.949366  0  0  0.366531  0  0.937285  0  0  0.322961  0.349056  0  0.958144  0
H  H16  1  0.00869539  0.27348940  0.51410904  1  0  0.064297  0  0.923335  0  0  0.072271  0  0.987583  0  0  0.074225  0  0.986332  0  0  0.12983  0.070791  0  0.98872  0
H  H17  1  0.49130531  0.72651015  0.01410348  1  0  0.064226  0  0.923349  0  0  0.072227  0  0.987618  0  0  0.074153  0  0.986346  0  0  0.129803  0.070786  0  0.988785  0
H  H18  1  0.99130125  0.72651517  0.48589478  1  0  0.064294  0  0.923222  0  0  0.072269  0  0.987462  0  0  0.074222  0  0.986212  0  0  0.129806  0.070808  0  0.988624  0
H  H19  1  0.50869342  0.27348708  0.98589463  1  0  0.06427  0  0.923292  0  0  0.072288  0  0.987482  0  0  0.074243  0  0.98623  0  0  0.129822  0.070841  0  0.988656  0
C  C20  1  0.82967347  0.01183783  0.37253630  1  0  0.746425  0  3.838448  0  0  0.701598  0  4.134777  0  0  0.735347  0  4.12642  0  0  0.225095  0.67856  0  4.139613  0
C  C21  1  0.67033507  0.98815812  0.87253954  1  0  0.746166  0  3.839544  0  0  0.701531  0  4.135514  0  0  0.73527  0  4.127167  0  0  0.225046  0.678498  0  4.140342  0
C  C22  1  0.17033825  0.98815935  0.62746085  1  0  0.7463  0  3.839084  0  0  0.701565  0  4.135245  0  0  0.735312  0  4.12689  0  0  0.225068  0.678531  0  4.140077  0
C  C23  1  0.32967088  0.01183908  0.12746523  1  0  0.746319  0  3.838676  0  0  0.701571  0  4.134897  0  0  0.735322  0  4.126544  0  0  0.225102  0.678536  0  4.139727  0
C  C24  1  0.98436076  0.14542852  0.33414144  1  0  -0.334515  0  3.63719  0  0  -0.378982  0  3.882848  0  0  -0.384798  0  3.887511  0  0  -0.154817  -0.374877  0  3.879704  0
C  C25  1  0.51563587  0.85456377  0.83413797  1  0  -0.334627  0  3.637463  0  0  -0.379024  0  3.882987  0  0  -0.384895  0  3.887613  0  0  -0.154889  -0.374875  0  3.879888  0
C  C26  1  0.01564086  0.85456870  0.66586238  1  0  -0.334383  0  3.637196  0  0  -0.378859  0  3.882796  0  0  -0.384701  0  3.887458  0  0  -0.154821  -0.374732  0  3.879676  0
C  C27  1  0.48435668  0.14542982  0.16586299  1  0  -0.33431  0  3.637244  0  0  -0.378799  0  3.882877  0  0  -0.384648  0  3.887547  0  0  -0.15477  -0.374642  0  3.879771  0
C  C28  1  0.98703378  0.30191936  0.41293308  1  0  0.142568  0  3.636235  0  0  0.12069  0  3.883867  0  0  0.123384  0  3.890688  0  0  0.008101  0.118704  0  3.879307  0
C  C29  1  0.51296593  0.69807545  0.91293043  1  0  0.142841  0  3.636157  0  0  0.120712  0  3.884065  0  0  0.123555  0  3.890642  0  0  0.008146  0.118527  0  3.879816  0
C  C30  1  0.01296377  0.69808032  0.58706978  1  0  0.14265  0  3.636055  0  0  0.120711  0  3.883747  0  0  0.123402  0  3.890576  0  0  0.008085  0.118613  0  3.879358  0
C  C31  1  0.48703253  0.30191934  0.08706958  1  0  0.142634  0  3.636081  0  0  0.120686  0  3.883794  0  0  0.123379  0  3.890621  0  0  0.008099  0.118504  0  3.879543  0
C  C32  1  0.15838251  0.42025695  0.37173402  1  0  0.644374  0  3.894746  0  0  0.597668  0  4.190375  0  0  0.631174  0  4.1807  0  0  0.215149  0.574739  0  4.196387  0
C  C33  1  0.34161498  0.57974302  0.87173300  1  0  0.644111  0  3.89508  0  0  0.597566  0  4.190556  0  0  0.631035  0  4.180867  0  0  0.215068  0.5747  0  4.196567  0
C  C34  1  0.84161007  0.57975009  0.62826504  1  0  0.644205  0  3.895026  0  0  0.597584  0  4.190535  0  0  0.631088  0  4.180858  0  0  0.215127  0.574692  0  4.196542  0
C  C35  1  0.65837968  0.42025667  0.12826510  1  0  0.644398  0  3.89463  0  0  0.59771  0  4.190262  0  0  0.631213  0  4.180589  0  0  0.215174  0.574826  0  4.19629  0
O  O36  1  0.81654096  0.88232714  0.30390100  1  0  -0.769438  0  1.948071  0  0  -0.70604  0  2.202062  0  0  -0.7343  0  2.191615  0  0  -0.417802  -0.685904  0  2.208765  0
O  O37  1  0.68346331  0.11766875  0.80389299  1  0  -0.769398  0  1.948181  0  0  -0.706073  0  2.202078  0  0  -0.734334  0  2.191639  0  0  -0.417806  -0.685933  0  2.208773  0
O  O38  1  0.18346105  0.11767375  0.69610282  1  0  -0.76946  0  1.948045  0  0  -0.706089  0  2.201987  0  0  -0.734349  0  2.19154  0  0  -0.417796  -0.685952  0  2.208684  0
O  O39  1  0.31653948  0.88232601  0.19610130  1  0  -0.769447  0  1.948136  0  0  -0.706069  0  2.202069  0  0  -0.734328  0  2.191622  0  0  -0.417807  -0.685931  0  2.208771  0
O  O40  1  0.72036232  0.02885711  0.46807169  1  0  -0.733191  0  1.94503  0  0  -0.669654  0  2.188959  0  0  -0.696824  0  2.179836  0  0  -0.380578  -0.650425  0  2.194877  0
O  O41  1  0.77962213  0.97114393  0.96806247  1  0  -0.732969  0  1.946025  0  0  -0.669554  0  2.189915  0  0  -0.696718  0  2.180794  0  0  -0.380488  -0.65033  0  2.195836  0
O  O42  1  0.27962815  0.97114382  0.53193499  1  0  -0.733093  0  1.945788  0  0  -0.669644  0  2.189746  0  0  -0.696807  0  2.180612  0  0  -0.380543  -0.65042  0  2.195669  0
O  O43  1  0.22036428  0.02885946  0.03192991  1  0  -0.733137  0  1.945147  0  0  -0.669655  0  2.189074  0  0  -0.696822  0  2.179945  0  0  -0.380586  -0.650426  0  2.194992  0
O  O44  1  0.80699328  0.37383478  0.40468281  1  0  -0.596103  0  2.119279  0  0  -0.544872  0  2.35023  0  0  -0.561515  0  2.34022  0  0  -0.414142  -0.532977  0  2.357335  0
O  O45  1  0.69300684  0.62616369  0.90468000  1  0  -0.596074  0  2.119344  0  0  -0.544768  0  2.350333  0  0  -0.56145  0  2.340268  0  0  -0.414138  -0.532826  0  2.357505  0
O  O46  1  0.19300243  0.62616124  0.59531911  1  0  -0.596074  0  2.119275  0  0  -0.544801  0  2.350179  0  0  -0.561442  0  2.340167  0  0  -0.414127  -0.532884  0  2.357322  0
O  O47  1  0.30699202  0.37383476  0.09531905  1  0  -0.596082  0  2.119252  0  0  -0.544823  0  2.350199  0  0  -0.561466  0  2.340189  0  0  -0.414128  -0.532878  0  2.357371  0
O  O48  1  0.32675412  0.38767975  0.40637686  1  0  -0.734947  0  2.012756  0  0  -0.677728  0  2.267439  0  0  -0.705067  0  2.257915  0  0  -0.397369  -0.658436  0  2.273739  0
O  O49  1  0.17326237  0.61232263  0.90637691  1  0  -0.734757  0  2.013141  0  0  -0.677551  0  2.267716  0  0  -0.70489  0  2.258211  0  0  -0.397272  -0.658265  0  2.273988  0
O  O50  1  0.67325447  0.61232845  0.59362029  1  0  -0.734821  0  2.012951  0  0  -0.677621  0  2.267575  0  0  -0.704956  0  2.258048  0  0  -0.397362  -0.658337  0  2.27386  0
O  O51  1  0.82674975  0.38767821  0.09362024  1  0  -0.735006  0  2.012661  0  0  -0.677764  0  2.267311  0  0  -0.7051  0  2.257782  0  0  -0.397405  -0.658465  0  2.273593  0
O  O52  1  0.12673569  0.54307165  0.30254932  1  0  -0.722644  0  1.978949  0  0  -0.661619  0  2.222505  0  0  -0.687289  0  2.210796  0  0  -0.359501  -0.643359  0  2.230191  0
O  O53  1  0.37326106  0.45692091  0.80254342  1  0  -0.72265  0  1.978787  0  0  -0.66167  0  2.222289  0  0  -0.687345  0  2.21059  0  0  -0.359527  -0.643394  0  2.229915  0
O  O54  1  0.87325951  0.45693294  0.69745640  1  0  -0.722638  0  1.978884  0  0  -0.66164  0  2.2224  0  0  -0.68731  0  2.21069  0  0  -0.359492  -0.643374  0  2.230051  0
O  O55  1  0.62673740  0.54307388  0.19745182  1  0  -0.722626  0  1.978932  0  0  -0.66161  0  2.222488  0  0  -0.687277  0  2.210776  0  0  -0.359476  -0.64335  0  2.230176  0
