# generated using pymatgen
data_AlH21C27(NO)6
_symmetry_space_group_name_H-M   'P 1'
_cell_length_a   3.98085497
_cell_length_b   27.83302384
_cell_length_c   27.86120705
_cell_angle_alpha   60.00997701
_cell_angle_beta   89.87168119
_cell_angle_gamma   89.65109426
_symmetry_Int_Tables_number   1
_chemical_formula_structural   AlH21C27(NO)6
_chemical_formula_sum   'Al3 H63 C81 N18 O18'
_cell_volume   2673.63870722
_cell_formula_units_Z   3
loop_
 _symmetry_equiv_pos_site_id
 _symmetry_equiv_pos_as_xyz
  1  'x, y, z'
loop_
 _atom_site_type_symbol
 _atom_site_label
 _atom_site_symmetry_multiplicity
 _atom_site_fract_x
 _atom_site_fract_y
 _atom_site_fract_z
 _atom_site_occupancy
 _atom_site_pbe_bader_charge
 _atom_site_pbe_bader_spin_density
 _atom_site_pbe_cm5_charge
 _atom_site_pbe_ddec_charge
 _atom_site_pbe_ddec_spin_density
 _atom_site_pbe_ddec_sum_bond_order
 _atom_site_pbe_magmom
Al  Al0  1  0.00014981  0.49992357  0.49996063  1  2.502473  0  0.421376  1.596499  0  2.564314  0
Al  Al1  1  0.95719405  0.83317894  0.83316208  1  2.498292  0  0.424191  1.580457  0  2.592387  0
Al  Al2  1  0.04832938  0.16660224  0.16635447  1  2.499919  0  0.424321  1.582597  0  2.588956  0
H  H3  1  0.50545865  0.07725841  0.92252555  1  0.051373  0  0.094982  0.091453  0  1.036498  0
H  H4  1  0.51505562  0.25544588  0.83344298  1  0.049965  0  0.095074  0.09205  0  1.034773  0
H  H5  1  0.49851470  0.16616812  0.74453007  1  0.044588  0  0.09476  0.091608  0  1.034879  0
H  H6  1  0.78473575  0.01804620  0.90751424  1  0.044185  0  0.097002  0.110345  0  1.020603  0
H  H7  1  0.16985775  0.09445056  0.76035400  1  0.060941  0  0.096729  0.110113  0  1.021017  0
H  H8  1  0.22782223  0.09238918  0.98124193  1  0.067776  0  0.096985  0.110742  0  1.020843  0
H  H9  1  0.83634957  0.23975376  0.90555053  1  0.047137  0  0.096749  0.110414  0  1.020833  0
H  H10  1  0.81343947  0.31276020  0.76039138  1  0.0281  0  0.095145  0.108671  0  1.023838  0
H  H11  1  0.20088002  0.23937102  0.68703582  1  0.013014  0  0.095137  0.108294  0  1.023927  0
H  H12  1  0.50697645  0.49983556  0.07750491  1  0.040576  0  0.094723  0.091372  0  1.036407  0
H  H13  1  0.50562418  0.58931599  0.16618528  1  0.041845  0  0.095106  0.091764  0  1.034116  0
H  H14  1  0.51083409  0.41103466  0.25554926  1  0.058603  0  0.095131  0.091946  0  1.034139  0
H  H15  1  0.21959502  0.42635836  0.09286743  1  0.038368  0  0.096557  0.109561  0  1.021431  0
H  H16  1  0.83428284  0.35387181  0.24005148  1  0.060298  0  0.096717  0.109924  0  1.020467  0
H  H17  1  0.79426397  0.57354413  0.01882407  1  0.038265  0  0.096862  0.110091  0  1.020716  0
H  H18  1  0.17698603  0.64576807  0.09397385  1  0.055181  0  0.096828  0.110076  0  1.020552  0
H  H19  1  0.19804245  0.57371050  0.23930089  1  0.055548  0  0.09512  0.108337  0  1.023526  0
H  H20  1  0.81806070  0.42672017  0.31273960  1  0.0116  0  0.095205  0.108628  0  1.023496  0
H  H21  1  0.49492378  0.92285508  0.50000418  1  0.034776  0  0.095177  0.091946  0  1.035421  0
H  H22  1  0.49428501  0.83418238  0.41055608  1  0.042953  0  0.094915  0.091824  0  1.034313  0
H  H23  1  0.48494922  0.74462789  0.58864563  1  0.050347  0  0.094929  0.092006  0  1.034823  0
H  H24  1  0.77705507  0.90735235  0.57363750  1  0.044999  0  0.097064  0.110083  0  1.021108  0
H  H25  1  0.16662653  0.76018511  0.64559694  1  0.016552  0  0.09679  0.109735  0  1.020994  0
H  H26  1  0.21216830  0.98243603  0.42550112  1  0.036728  0  0.09703  0.110513  0  1.020184  0
H  H27  1  0.82906411  0.90538464  0.35514239  1  0.037096  0  0.096687  0.109676  0  1.021255  0
H  H28  1  0.79495004  0.76084926  0.42598666  1  0.048844  0  0.095079  0.108391  0  1.023639  0
H  H29  1  0.18088853  0.68756853  0.57283591  1  0.055514  0  0.095165  0.108482  0  1.023673  0
H  H30  1  0.99950908  0.96937733  0.76153864  1  0.464623  0  0.29047  0.291999  0  0.989704  0
H  H31  1  0.96320791  0.03804427  0.72811581  1  0.420011  0  0.300902  0.298804  0  0.938015  0
H  H32  1  0.90433530  0.89255420  0.90798369  1  0.445199  0  0.290628  0.291941  0  0.9898  0
H  H33  1  0.95306450  0.92742771  0.94136310  1  0.426118  0  0.300529  0.297753  0  0.938026  0
H  H34  1  0.10286027  0.09224601  0.10633207  1  0.448606  0  0.290555  0.292009  0  0.989294  0
H  H35  1  0.05673868  0.05877503  0.07147795  1  0.434947  0  0.300817  0.297857  0  0.938237  0
H  H36  1  0.00125072  0.23888975  0.03050511  1  0.464813  0  0.2903  0.291325  0  0.9906  0
H  H37  1  0.03722294  0.27234384  0.96195567  1  0.420844  0  0.300616  0.298145  0  0.938013  0
H  H38  1  0.89824736  0.44246879  0.63610923  1  0.471872  0  0.299417  0.308243  0  0.984629  0
H  H39  1  0.01304639  0.40103239  0.70428319  1  0.419143  0  0.304057  0.302541  0  0.94088  0
H  H40  1  0.10838461  0.36367712  0.55758013  1  0.479324  0  0.299805  0.307383  0  0.985006  0
H  H41  1  0.99735777  0.29541634  0.59903829  1  0.43649  0  0.303782  0.302681  0  0.940363  0
H  H42  1  0.99929665  0.22967069  0.23900194  1  0.454135  0  0.290122  0.291513  0  0.990965  0
H  H43  1  0.03480307  0.26455426  0.27268227  1  0.416479  0  0.300771  0.297801  0  0.938233  0
H  H44  1  0.09327349  0.30132414  0.09273578  1  0.453606  0  0.290537  0.292076  0  0.989617  0
H  H45  1  0.04491544  0.36972801  0.05941112  1  0.413345  0  0.300782  0.297739  0  0.938656  0
H  H46  1  0.91528119  0.69846700  0.89350298  1  0.470566  0  0.290852  0.292499  0  0.989763  0
H  H47  1  0.96583632  0.63012045  0.92849490  1  0.425912  0  0.300703  0.298203  0  0.938026  0
H  H48  1  0.00553470  0.76949698  0.96873669  1  0.462248  0  0.29033  0.291275  0  0.990799  0
H  H49  1  0.97077620  0.73468048  0.03729802  1  0.41621  0  0.300601  0.297555  0  0.938714  0
H  H50  1  0.10308372  0.57860528  0.36372853  1  0.475512  0  0.2996  0.308466  0  0.983942  0
H  H51  1  0.99098485  0.60552542  0.29545357  1  0.423323  0  0.303703  0.302331  0  0.94092  0
H  H52  1  0.90293054  0.42117320  0.44247988  1  0.499579  0  0.299827  0.308899  0  0.983335  0
H  H53  1  0.01945740  0.39451246  0.40097339  1  0.433829  0  0.303867  0.303135  0  0.940275  0
H  H54  1  0.00647673  0.76062750  0.77001845  1  0.441172  0  0.290543  0.291421  0  0.991122  0
H  H55  1  0.97014557  0.72718929  0.73490060  1  0.423688  0  0.300487  0.297338  0  0.938687  0
H  H56  1  0.90654920  0.90707040  0.69870937  1  0.45008  0  0.290831  0.292506  0  0.989354  0
H  H57  1  0.95246948  0.94054975  0.63038535  1  0.417243  0  0.300475  0.298179  0  0.937941  0
H  H58  1  0.09623448  0.10771174  0.30031667  1  0.454663  0  0.290578  0.29186  0  0.990128  0
H  H59  1  0.04572909  0.07317532  0.36851895  1  0.427974  0  0.300511  0.298084  0  0.937805  0
H  H60  1  0.00463767  0.03024768  0.23133305  1  0.469063  0  0.290577  0.29196  0  0.989531  0
H  H61  1  0.03993996  0.96157099  0.26665786  1  0.410643  0  0.300768  0.298395  0  0.93842  0
H  H62  1  0.89019754  0.63633557  0.42102552  1  0.48376  0  0.299481  0.307591  0  0.984927  0
H  H63  1  0.00057734  0.70462925  0.39411508  1  0.438881  0  0.303694  0.302227  0  0.941528  0
H  H64  1  0.09686299  0.55777721  0.57829334  1  0.491467  0  0.299943  0.309309  0  0.983003  0
H  H65  1  0.98064716  0.59938499  0.60489510  1  0.44015  0  0.303868  0.302542  0  0.940894  0
C  C66  1  0.49586690  0.57533256  0.49977363  1  1.441983  0  0.257006  0.656415  0  4.038357  0
C  C67  1  0.50274525  0.42470468  0.57521267  1  1.454548  0  0.256402  0.655765  0  4.038948  0
C  C68  1  0.50214535  0.49987112  0.42474817  1  1.446497  0  0.256111  0.656112  0  4.038598  0
C  C69  1  0.45472680  0.90798624  0.83371723  1  1.534247  0  0.287817  0.713729  0  3.985076  0
C  C70  1  0.46017067  0.75784403  0.90797722  1  1.5251  0  0.287685  0.714058  0  3.984416  0
C  C71  1  0.45788386  0.83336576  0.75805795  1  1.544798  0  0.288  0.715485  0  3.983115  0
C  C72  1  0.54965194  0.16629463  0.09151896  1  1.539333  0  0.288447  0.714974  0  3.984734  0
C  C73  1  0.54544952  0.24177739  0.16628413  1  1.534045  0  0.287677  0.714539  0  3.986005  0
C  C74  1  0.54866213  0.09185773  0.24173296  1  1.515159  0  0.287874  0.714213  0  3.984837  0
C  C75  1  0.51968810  0.16631043  0.88412887  1  0.020143  0  -0.005876  0.083667  0  4.002019  0
C  C76  1  0.50587696  0.11639051  0.88340049  1  -0.056582  0  -0.088758  -0.169153  0  3.920068  0
C  C77  1  0.49223847  0.11558864  0.83357449  1  0.009099  0  -0.005383  0.083764  0  4.001529  0
C  C78  1  0.49509126  0.16623113  0.78361559  1  -0.063361  0  -0.088291  -0.170429  0  3.920735  0
C  C79  1  0.50740521  0.21693522  0.78285300  1  0.011415  0  -0.005089  0.084151  0  3.997653  0
C  C80  1  0.51845993  0.21627539  0.83346675  1  -0.061178  0  -0.088745  -0.171212  0  3.920998  0
C  C81  1  0.63144832  0.96447008  0.87682077  1  0.389696  0  0.091112  0.297322  0  4.119983  0
C  C82  1  0.63548359  0.01505421  0.87635191  1  0.014776  0  -0.12338  -0.29546  0  3.98585  0
C  C83  1  0.47922683  0.06237211  0.83384649  1  -0.035511  0  -0.008821  0.11073  0  4.064438  0
C  C84  1  0.30984415  0.05878494  0.79179591  1  -0.055232  0  -0.1235  -0.296368  0  3.983325  0
C  C85  1  0.29142371  0.00838143  0.79196605  1  0.404244  0  0.0917  0.298695  0  4.11961  0
C  C86  1  0.45716001  0.96123644  0.83440394  1  -0.011074  0  -0.04762  -0.300625  0  3.906356  0
C  C87  1  0.37485409  0.12364067  0.98434759  1  -0.0775  0  -0.122928  -0.296173  0  3.986089  0
C  C88  1  0.37639044  0.12331675  0.03482242  1  0.439569  0  0.091144  0.298403  0  4.120548  0
C  C89  1  0.54771062  0.16584291  0.03819967  1  -0.02393  0  -0.04781  -0.301241  0  3.907091  0
C  C90  1  0.71269586  0.20827971  0.99130392  1  0.374826  0  0.091537  0.298027  0  4.11902  0
C  C91  1  0.69688657  0.20830323  0.94099896  1  -0.041016  0  -0.123143  -0.295794  0  3.983263  0
C  C92  1  0.53059825  0.16613233  0.93725862  1  0.045305  0  -0.00897  0.110428  0  4.065142  0
C  C93  1  0.67042056  0.31632210  0.72541068  1  0.029544  0  -0.128438  -0.310611  0  3.989915  0
C  C94  1  0.67787288  0.36684178  0.67528433  1  0.401743  0  0.10499  0.323738  0  4.085014  0
C  C95  1  0.50488452  0.37223623  0.62759486  1  0.014925  0  -0.044586  -0.302079  0  3.87036  0
C  C96  1  0.33348189  0.32448871  0.63299269  1  0.400566  0  0.104794  0.323556  0  4.084667  0
C  C97  1  0.34370765  0.27432569  0.68345434  1  0.040153  0  -0.128803  -0.310491  0  3.990768  0
C  C98  1  0.50750095  0.26996313  0.72978918  1  -0.039529  0  -0.005788  0.120993  0  4.07156  0
C  C99  1  0.49763205  0.55068617  0.11569903  1  -0.022624  0  -0.005957  0.083651  0  4.001173  0
C  C100  1  0.50777294  0.49992092  0.11657832  1  -0.022492  0  -0.088104  -0.169615  0  3.920187  0
C  C101  1  0.51797848  0.44928591  0.16651668  1  -0.03212  0  -0.005932  0.083334  0  4.002994  0
C  C102  1  0.51686549  0.45011530  0.21638856  1  -0.050175  0  -0.088654  -0.169869  0  3.920772  0
C  C103  1  0.50885035  0.50018946  0.21696335  1  -0.013862  0  -0.005365  0.082967  0  3.99809  0
C  C104  1  0.50005123  0.55011892  0.16626844  1  -0.021777  0  -0.088523  -0.170014  0  3.921011  0
C  C105  1  0.36816894  0.34154757  0.12376851  1  0.409357  0  0.091023  0.297082  0  4.121653  0
C  C106  1  0.36737774  0.39173963  0.12409444  1  -0.015902  0  -0.122579  -0.2941  0  3.985504  0
C  C107  1  0.52582373  0.39618748  0.16648491  1  -0.017398  0  -0.008695  0.110357  0  4.065538  0
C  C108  1  0.69300832  0.35001046  0.20866263  1  -0.006931  0  -0.123313  -0.295418  0  3.983954  0
C  C109  1  0.70846288  0.29969289  0.20859788  1  0.351452  0  0.091569  0.298745  0  4.118084  0
C  C110  1  0.54180997  0.29544662  0.16614460  1  -0.006708  0  -0.047806  -0.30176  0  3.907706  0
C  C111  1  0.64490894  0.60804123  0.01552731  1  0.037257  0  -0.123156  -0.295346  0  3.985322  0
C  C112  1  0.64156622  0.65811933  0.96493927  1  0.380221  0  0.090919  0.297965  0  4.119548  0
C  C113  1  0.46563767  0.70407534  0.96132375  1  -0.025999  0  -0.047447  -0.301353  0  3.906398  0
C  C114  1  0.29934692  0.69980830  0.00814993  1  0.39708  0  0.092093  0.299008  0  4.118372  0
C  C115  1  0.31764496  0.64965158  0.05858376  1  -0.058068  0  -0.122964  -0.295195  0  3.983561  0
C  C116  1  0.48713226  0.60361798  0.06249146  1  0.016636  0  -0.008951  0.110285  0  4.065491  0
C  C117  1  0.34216862  0.54225879  0.27430445  1  -0.001211  0  -0.12905  -0.31089  0  3.98987  0
C  C118  1  0.33100665  0.54245806  0.32451268  1  0.394774  0  0.105676  0.324554  0  4.085421  0
C  C119  1  0.50465123  0.50003277  0.37225283  1  0.033642  0  -0.044758  -0.303032  0  3.871002  0
C  C120  1  0.68045609  0.45773521  0.36684749  1  0.387397  0  0.105097  0.324565  0  4.085097  0
C  C121  1  0.67333783  0.45816809  0.31631704  1  0.048048  0  -0.129044  -0.311171  0  3.989283  0
C  C122  1  0.50845310  0.50024836  0.26995887  1  -0.019166  0  -0.005101  0.122074  0  4.071324  0
C  C123  1  0.50427052  0.88462111  0.44921993  1  -0.020937  0  -0.005641  0.083564  0  4.002796  0
C  C124  1  0.49297035  0.88375164  0.49990540  1  -0.029403  0  -0.088529  -0.169381  0  3.918683  0
C  C125  1  0.48050101  0.83375990  0.55046486  1  -0.021478  0  -0.006059  0.08317  0  4.001301  0
C  C126  1  0.48025599  0.78385306  0.54959399  1  -0.033772  0  -0.088543  -0.171096  0  3.921818  0
C  C127  1  0.48853710  0.78327813  0.49958755  1  -0.010697  0  -0.005191  0.08412  0  3.998815  0
C  C128  1  0.49953445  0.83402914  0.44974415  1  -0.026354  0  -0.088501  -0.170863  0  3.922253  0
C  C129  1  0.63125409  0.87621280  0.65836045  1  0.41697  0  0.091495  0.29823  0  4.121274  0
C  C130  1  0.63066121  0.87605291  0.60813879  1  -0.000608  0  -0.123355  -0.295211  0  3.986146  0
C  C131  1  0.47290400  0.83374516  0.60352767  1  -0.034089  0  -0.00873  0.110851  0  4.064891  0
C  C132  1  0.30749646  0.79151080  0.64956516  1  0.018028  0  -0.123467  -0.295432  0  3.983638  0
C  C133  1  0.29379856  0.79135789  0.69993812  1  0.362187  0  0.091282  0.298333  0  4.118964  0
C  C134  1  0.45996307  0.83371629  0.70435400  1  -0.01923  0  -0.046979  -0.30155  0  3.906763  0
C  C135  1  0.36237508  0.98525989  0.39141059  1  -0.00435  0  -0.123714  -0.296845  0  3.987097  0
C  C136  1  0.36805821  0.03574958  0.34126597  1  0.360827  0  0.090992  0.298051  0  4.11924  0
C  C137  1  0.54402197  0.03875401  0.29573865  1  0.006049  0  -0.047108  -0.299953  0  3.905422  0
C  C138  1  0.70986433  0.99149492  0.30058846  1  0.394953  0  0.091382  0.298228  0  4.120462  0
C  C139  1  0.68944259  0.94118165  0.35080428  1  -0.006886  0  -0.123709  -0.296091  0  3.984646  0
C  C140  1  0.51845458  0.93781236  0.39632928  1  0.019264  0  -0.008351  0.111549  0  4.065901  0
C  C141  1  0.65236338  0.72587128  0.45742392  1  0.024041  0  -0.129362  -0.311671  0  3.991614  0
C  C142  1  0.66346443  0.67564923  0.45717035  1  0.382833  0  0.105397  0.324366  0  4.086123  0
C  C143  1  0.49209027  0.62790245  0.49956666  1  0.034128  0  -0.044664  -0.303041  0  3.871013  0
C  C144  1  0.31767928  0.63338304  0.54182233  1  0.415191  0  0.105544  0.324882  0  4.083377  0
C  C145  1  0.32465658  0.68394133  0.54142595  1  -0.036646  0  -0.129168  -0.31125  0  3.989847  0
C  C146  1  0.48802372  0.73027163  0.49944456  1  -0.021138  0  -0.005205  0.12227  0  4.072087  0
N  N147  1  0.12339863  0.00562149  0.74956706  1  -1.213298  0  -0.609414  -0.626578  0  3.260789  0
N  N148  1  0.78778734  0.91778683  0.91972701  1  -1.204015  0  -0.610068  -0.626263  0  3.257833  0
N  N149  1  0.22057004  0.08045092  0.08126618  1  -1.226703  0  -0.610103  -0.62638  0  3.259029  0
N  N150  1  0.87751144  0.25083265  0.99418537  1  -1.224812  0  -0.60939  -0.625351  0  3.259875  0
N  N151  1  0.83705995  0.41103110  0.67444787  1  -1.215993  0  -0.603167  -0.623332  0  3.307483  0
N  N152  1  0.17233935  0.32531132  0.58890775  1  -1.249562  0  -0.60356  -0.622995  0  3.306185  0
N  N153  1  0.87491054  0.25402000  0.25107484  1  -1.190542  0  -0.609671  -0.625734  0  3.258638  0
N  N154  1  0.20996801  0.33809436  0.08098909  1  -1.203588  0  -0.610027  -0.625819  0  3.25943  0
N  N155  1  0.79955778  0.66160196  0.91858603  1  -1.21179  0  -0.610472  -0.627503  0  3.259694  0
N  N156  1  0.13051688  0.74532044  0.00503581  1  -1.225699  0  -0.609942  -0.62548  0  3.260928  0
N  N157  1  0.16689588  0.58568269  0.32539714  1  -1.234191  0  -0.603179  -0.623504  0  3.307729  0
N  N158  1  0.84222416  0.41432956  0.41098620  1  -1.261222  0  -0.60364  -0.625285  0  3.307205  0
N  N159  1  0.12999578  0.74872690  0.74550445  1  -1.183108  0  -0.609757  -0.625011  0  3.260357  0
N  N160  1  0.78862472  0.91893089  0.66195825  1  -1.204873  0  -0.610152  -0.627144  0  3.259261  0
N  N161  1  0.21185290  0.08259865  0.33730098  1  -1.218232  0  -0.610016  -0.626902  0  3.258159  0
N  N162  1  0.87998846  0.99407100  0.25557172  1  -1.21549  0  -0.609395  -0.625948  0  3.260267  0
N  N163  1  0.82561073  0.67473993  0.41392112  1  -1.252653  0  -0.603377  -0.622727  0  3.307551  0
N  N164  1  0.15747942  0.58927008  0.58514292  1  -1.252472  0  -0.603436  -0.624494  0  3.306597  0
O  O165  1  0.73423964  0.47310333  0.46108582  1  -1.269637  0  -0.248055  -0.618169  0  2.400602  0
O  O166  1  0.72935015  0.56573563  0.47320522  1  -1.25925  0  -0.248374  -0.617571  0  2.398528  0
O  O167  1  0.73312895  0.46103355  0.56562692  1  -1.268491  0  -0.248703  -0.618537  0  2.4008  0
O  O168  1  0.26809067  0.52650098  0.43426134  1  -1.258979  0  -0.248047  -0.617652  0  2.399342  0
O  O169  1  0.27054049  0.43420670  0.53903955  1  -1.265123  0  -0.248342  -0.617489  0  2.399881  0
O  O170  1  0.26544455  0.53898281  0.52656753  1  -1.267106  0  -0.248851  -0.618756  0  2.400969  0
O  O171  1  0.69417570  0.80764151  0.79290400  1  -1.260515  0  -0.231735  -0.603353  0  2.366681  0
O  O172  1  0.69034830  0.89892625  0.80777256  1  -1.256508  0  -0.232047  -0.602637  0  2.364333  0
O  O173  1  0.69361732  0.79289851  0.89880890  1  -1.258724  0  -0.232349  -0.60363  0  2.368494  0
O  O174  1  0.22103000  0.85886386  0.76751648  1  -1.2622  0  -0.231757  -0.603496  0  2.371506  0
O  O175  1  0.22375337  0.76727268  0.87323016  1  -1.258582  0  -0.231217  -0.602124  0  2.370755  0
O  O176  1  0.21935875  0.87316325  0.85897490  1  -1.259433  0  -0.231164  -0.602072  0  2.373134  0
O  O177  1  0.78442704  0.12657939  0.23214646  1  -1.257253  0  -0.230886  -0.602469  0  2.373878  0
O  O178  1  0.78615051  0.14086904  0.12636660  1  -1.259346  0  -0.231249  -0.602914  0  2.371545  0
O  O179  1  0.78178598  0.23239102  0.14074918  1  -1.257819  0  -0.23174  -0.603282  0  2.371255  0
O  O180  1  0.31454223  0.10085481  0.20666858  1  -1.257688  0  -0.232946  -0.604619  0  2.364972  0
O  O181  1  0.31064738  0.20689469  0.19190576  1  -1.258309  0  -0.231655  -0.603563  0  2.368983  0
O  O182  1  0.31309427  0.19211400  0.10065288  1  -1.255283  0  -0.232143  -0.603582  0  2.365303  0
