# generated using pymatgen
data_Zn3H34C38(NO3)4
_symmetry_space_group_name_H-M   'P 1'
_cell_length_a   9.78256077
_cell_length_b   10.16460187
_cell_length_c   11.16523390
_cell_angle_alpha   113.09170776
_cell_angle_beta   99.51798651
_cell_angle_gamma   110.37293915
_symmetry_Int_Tables_number   1
_chemical_formula_structural   Zn3H34C38(NO3)4
_chemical_formula_sum   'Zn3 H34 C38 N4 O12'
_cell_volume   896.80017792
_cell_formula_units_Z   1
loop_
 _symmetry_equiv_pos_site_id
 _symmetry_equiv_pos_as_xyz
  1  'x, y, z'
loop_
 _atom_site_type_symbol
 _atom_site_label
 _atom_site_symmetry_multiplicity
 _atom_site_fract_x
 _atom_site_fract_y
 _atom_site_fract_z
 _atom_site_occupancy
 _atom_site_hle17_bader_spin_density
 _atom_site_hle17_ddec_charge
 _atom_site_hle17_ddec_spin_density
 _atom_site_hle17_ddec_sum_bond_order
 _atom_site_hle17_magmom
 _atom_site_hse06_10hf_bader_spin_density
 _atom_site_hse06_10hf_ddec_charge
 _atom_site_hse06_10hf_ddec_spin_density
 _atom_site_hse06_10hf_ddec_sum_bond_order
 _atom_site_hse06_10hf_magmom
 _atom_site_hse06_bader_spin_density
 _atom_site_hse06_ddec_charge
 _atom_site_hse06_ddec_spin_density
 _atom_site_hse06_ddec_sum_bond_order
 _atom_site_hse06_magmom
 _atom_site_pbe_bader_spin_density
 _atom_site_pbe_cm5_charge
 _atom_site_pbe_ddec_charge
 _atom_site_pbe_ddec_spin_density
 _atom_site_pbe_ddec_sum_bond_order
 _atom_site_pbe_magmom
Zn  Zn0  1  0.99999523  0.99999816  0.49999812  1  0  1.206596  0  1.680751  0  0  1.043242  0  2.129695  0  0  1.094542  0  2.064855  0  0  0.689183  1.006588  0  2.175545  0
Zn  Zn1  1  0.30076361  0.14663410  0.77210007  1  0  1.061027  0  1.861192  0  0  0.879358  0  2.34576  0  0  0.926732  0  2.286093  0  0  0.705448  0.84655  0  2.386208  0
Zn  Zn2  1  0.69923834  0.85337056  0.22789697  1  0  1.061084  0  1.861084  0  0  0.879435  0  2.345626  0  0  0.926789  0  2.28599  0  0  0.705446  0.846609  0  2.38607  0
H  H3  1  0.21795889  0.32176132  0.36358191  1  0  0.10621  0  0.97185  0  0  0.113591  0  1.036704  0  0  0.116354  0  1.035749  0  0  0.10699  0.111455  0  1.037802  0
H  H4  1  0.78204518  0.67824579  0.63642257  1  0  0.10622  0  0.971805  0  0  0.113601  0  1.036668  0  0  0.116367  0  1.035704  0  0  0.106994  0.111465  0  1.037764  0
H  H5  1  0.82328055  0.29840930  0.75745033  1  0  0.090108  0  0.979987  0  0  0.099052  0  1.047486  0  0  0.102157  0  1.045717  0  0  0.103373  0.096747  0  1.048801  0
H  H6  1  0.17673284  0.70160503  0.24254997  1  0  0.090189  0  0.979942  0  0  0.099113  0  1.04744  0  0  0.102208  0  1.045683  0  0  0.103391  0.096804  0  1.048756  0
H  H7  1  0.62712991  0.47459062  0.69604537  1  0  0.101677  0  0.951067  0  0  0.111867  0  1.011231  0  0  0.115055  0  1.009427  0  0  0.106283  0.109659  0  1.012633  0
H  H8  1  0.37286789  0.52541402  0.30395377  1  0  0.101742  0  0.951008  0  0  0.111921  0  1.011188  0  0  0.115108  0  1.009386  0  0  0.106315  0.109714  0  1.01259  0
H  H9  1  0.36146284  0.90012483  0.61643226  1  0  0.080935  0  0.966486  0  0  0.096254  0  1.031278  0  0  0.09688  0  1.031114  0  0  0.111599  0.095612  0  1.031592  0
H  H10  1  0.63853756  0.09987146  0.38356427  1  0  0.080918  0  0.966466  0  0  0.096219  0  1.031268  0  0  0.096844  0  1.031104  0  0  0.111594  0.095581  0  1.031583  0
H  H11  1  0.51254706  0.84364471  0.62144436  1  0  0.07387  0  0.948341  0  0  0.090844  0  1.009929  0  0  0.090582  0  1.011492  0  0  0.110268  0.090451  0  1.009872  0
H  H12  1  0.48745750  0.15635880  0.37855533  1  0  0.073882  0  0.948291  0  0  0.090856  0  1.009855  0  0  0.090595  0  1.011412  0  0  0.110277  0.090465  0  1.009799  0
H  H13  1  0.25319161  0.50555970  0.08920016  1  0  0.102547  0  0.951096  0  0  0.111942  0  1.012246  0  0  0.115725  0  1.009413  0  0  0.105208  0.109332  0  1.014126  0
H  H14  1  0.74681973  0.49444986  0.91080353  1  0  0.102566  0  0.951051  0  0  0.111937  0  1.012213  0  0  0.115719  0  1.009379  0  0  0.105176  0.109322  0  1.014092  0
H  H15  1  0.77275517  0.20915091  0.12164855  1  0  0.142417  0  0.991906  0  0  0.151151  0  1.05307  0  0  0.154295  0  1.052738  0  0  0.104887  0.148845  0  1.053579  0
H  H16  1  0.22723849  0.79084414  0.87835018  1  0  0.142434  0  0.991833  0  0  0.151183  0  1.052977  0  0  0.154325  0  1.052645  0  0  0.10488  0.148875  0  1.053487  0
H  H17  1  0.07248148  0.68255779  0.39962437  1  0  0.105445  0  0.989863  0  0  0.110557  0  1.059892  0  0  0.11405  0  1.057906  0  0  0.100535  0.107844  0  1.061622  0
H  H18  1  0.92752049  0.31744212  0.60037547  1  0  0.105392  0  0.989901  0  0  0.110525  0  1.059915  0  0  0.114016  0  1.057932  0  0  0.100542  0.107829  0  1.061628  0
H  H19  1  0.67095482  0.05576617  0.58096496  1  0  0.084388  0  0.933567  0  0  0.102  0  0.993366  0  0  0.10296  0  0.993622  0  0  0.094178  0.101054  0  0.993625  0
H  H20  1  0.32904612  0.94424090  0.41903728  1  0  0.084479  0  0.933541  0  0  0.102085  0  0.993343  0  0  0.103049  0  0.993594  0  0  0.094218  0.101137  0  0.993599  0
H  H21  1  0.56165617  0.16228580  0.63120558  1  0  0.076785  0  0.959624  0  0  0.093563  0  1.021341  0  0  0.094443  0  1.021981  0  0  0.093036  0.092743  0  1.021238  0
H  H22  1  0.43834374  0.83771648  0.36879660  1  0  0.076706  0  0.959625  0  0  0.093487  0  1.021349  0  0  0.094367  0  1.02199  0  0  0.093005  0.092653  0  1.021262  0
H  H23  1  0.99357140  0.60736495  0.73993464  1  0  0.096161  0  0.961254  0  0  0.105062  0  1.023744  0  0  0.108162  0  1.022577  0  0  0.103977  0.102931  0  1.024519  0
H  H24  1  0.00642435  0.39263252  0.26006614  1  0  0.096199  0  0.961358  0  0  0.105092  0  1.023844  0  0  0.108194  0  1.022679  0  0  0.103968  0.102963  0  1.024623  0
H  H25  1  0.74876444  0.91873187  0.74435330  1  0  0.120904  0  0.974052  0  0  0.135962  0  1.04429  0  0  0.137641  0  1.044358  0  0  0.0944  0.134681  0  1.044388  0
H  H26  1  0.25123078  0.08126439  0.25564697  1  0  0.12094  0  0.974066  0  0  0.13595  0  1.044356  0  0  0.137631  0  1.044424  0  0  0.094415  0.13467  0  1.044455  0
H  H27  1  0.76337455  0.89887142  0.89715393  1  0  0.131588  0  0.928194  0  0  0.156218  0  0.98107  0  0  0.157852  0  0.980618  0  0  0.103333  0.155195  0  0.981108  0
H  H28  1  0.23661861  0.10112483  0.10284784  1  0  0.131587  0  0.928275  0  0  0.156169  0  0.981199  0  0  0.157803  0  0.980749  0  0  0.103311  0.155154  0  0.98123  0
H  H29  1  0.89729404  0.07241096  0.90431458  1  0  0.137377  0  0.927449  0  0  0.161234  0  0.978813  0  0  0.162719  0  0.97868  0  0  0.104633  0.160146  0  0.978965  0
H  H30  1  0.10270172  0.92758652  0.09568799  1  0  0.137422  0  0.927508  0  0  0.16128  0  0.978842  0  0  0.162768  0  0.978709  0  0  0.104631  0.16019  0  0.978998  0
H  H31  1  0.42187369  0.32655769  0.06354667  1  0  0.129081  0  0.960677  0  0  0.147564  0  1.024217  0  0  0.150182  0  1.021842  0  0  0.097703  0.145626  0  1.025893  0
H  H32  1  0.57811428  0.67343374  0.93645535  1  0  0.129049  0  0.96059  0  0  0.147558  0  1.024124  0  0  0.150173  0  1.02175  0  0  0.097696  0.145615  0  1.025802  0
H  H33  1  0.62409123  0.45346173  0.15174047  1  0  0.130726  0  0.940426  0  0  0.150244  0  0.998818  0  0  0.151832  0  0.999129  0  0  0.095984  0.14901  0  0.998684  0
H  H34  1  0.37589050  0.54652486  0.84825984  1  0  0.130676  0  0.940308  0  0  0.150215  0  0.998712  0  0  0.151802  0  0.999025  0  0  0.095989  0.148982  0  0.998576  0
H  H35  1  0.52706437  0.30573427  0.19544160  1  0  0.119313  0  0.943281  0  0  0.140229  0  1.001578  0  0  0.141516  0  1.002461  0  0  0.094183  0.139061  0  1.001483  0
H  H36  1  0.47292304  0.69424875  0.80455196  1  0  0.119354  0  0.943278  0  0  0.140288  0  1.001556  0  0  0.141574  0  1.002439  0  0  0.094224  0.13912  0  1.001459  0
C  C37  1  0.41334945  0.38634983  0.53345262  1  0  -0.068785  0  3.758303  0  0  -0.046948  0  3.991584  0  0  -0.053632  0  4.013134  0  0  -0.01556  -0.042307  0  3.977635  0
C  C38  1  0.58665096  0.61364885  0.46654567  1  0  -0.068715  0  3.758321  0  0  -0.046863  0  3.991586  0  0  -0.053546  0  4.013135  0  0  -0.015549  -0.042223  0  3.977636  0
C  C39  1  0.32107139  0.26615270  0.57093898  1  0  0.667141  0  3.875723  0  0  0.61316  0  4.166953  0  0  0.648582  0  4.159095  0  0  0.222694  0.588884  0  4.171613  0
C  C40  1  0.67893318  0.73384603  0.42905991  1  0  0.667155  0  3.875728  0  0  0.613168  0  4.166954  0  0  0.648591  0  4.159096  0  0  0.222722  0.588891  0  4.171617  0
C  C41  1  0.08951908  0.27271031  0.82178175  1  0  0.660817  0  3.877495  0  0  0.608915  0  4.169682  0  0  0.644009  0  4.161801  0  0  0.219312  0.585154  0  4.174389  0
C  C42  1  0.91048809  0.72729202  0.17821788  1  0  0.66079  0  3.877854  0  0  0.608978  0  4.169937  0  0  0.644075  0  4.162055  0  0  0.219325  0.585218  0  4.174651  0
C  C43  1  0.34120779  0.40053842  0.42292527  1  0  -0.07478  0  3.738088  0  0  -0.098024  0  3.986771  0  0  -0.098774  0  4.007543  0  0  -0.081183  -0.097571  0  3.97324  0
C  C44  1  0.65879266  0.59946269  0.57708016  1  0  -0.074882  0  3.738113  0  0  -0.098142  0  3.986815  0  0  -0.098893  0  4.00759  0  0  -0.081238  -0.097687  0  3.973281  0
C  C45  1  0.08800047  0.83749088  0.66634957  1  0  0.641196  0  3.870276  0  0  0.586869  0  4.169764  0  0  0.620629  0  4.160907  0  0  0.206571  0.562915  0  4.17683  0
C  C46  1  0.91200410  0.16251023  0.33365017  1  0  0.641144  0  3.870212  0  0  0.586794  0  4.169728  0  0  0.620549  0  4.160871  0  0  0.206525  0.562839  0  4.176793  0
C  C47  1  0.90052378  0.38757196  0.86365087  1  0  -0.067117  0  3.73823  0  0  -0.091292  0  3.989738  0  0  -0.092232  0  4.010703  0  0  -0.081359  -0.09051  0  3.975058  0
C  C48  1  0.09948653  0.61243281  0.13635187  1  0  -0.067295  0  3.738286  0  0  -0.091391  0  3.989788  0  0  -0.092325  0  4.010752  0  0  -0.081388  -0.090613  0  3.975117  0
C  C49  1  0.57262343  0.48637217  0.61013440  1  0  -0.07113  0  3.731606  0  0  -0.09257  0  3.979991  0  0  -0.0935  0  4.000103  0  0  -0.0811  -0.092095  0  3.96736  0
C  C50  1  0.42738216  0.51362895  0.38986279  1  0  -0.071268  0  3.731596  0  0  -0.092717  0  3.980003  0  0  -0.093645  0  4.000112  0  0  -0.081151  -0.092241  0  3.967374  0
C  C51  1  0.03850344  0.66261030  0.57823401  1  0  -0.059825  0  3.751067  0  0  -0.037816  0  3.983944  0  0  -0.044536  0  4.006528  0  0  -0.016521  -0.032729  0  3.96838  0
C  C52  1  0.96149440  0.33739197  0.42176967  1  0  -0.059739  0  3.75119  0  0  -0.037721  0  3.984053  0  0  -0.044441  0  4.006638  0  0  -0.016495  -0.032636  0  3.968492  0
C  C53  1  0.48840791  0.94728635  0.64912411  1  0  -0.016995  0  3.62755  0  0  -0.082258  0  3.888793  0  0  -0.077794  0  3.899693  0  0  -0.0554  -0.085031  0  3.881972  0
C  C54  1  0.51159406  0.05271594  0.35087657  1  0  -0.016949  0  3.62734  0  0  -0.082166  0  3.888571  0  0  -0.077695  0  3.899462  0  0  -0.05537  -0.084949  0  3.881759  0
C  C55  1  0.67420727  0.06245422  0.89384689  1  0  0.247182  0  3.707505  0  0  0.23455  0  3.976946  0  0  0.246285  0  3.994366  0  0  0.111387  0.226832  0  3.965012  0
C  C56  1  0.32578693  0.93753964  0.10615328  1  0  0.247187  0  3.707471  0  0  0.234571  0  3.976887  0  0  0.24631  0  3.9943  0  0  0.111383  0.226851  0  3.964957  0
C  C57  1  0.14193727  0.50312081  0.05130471  1  0  -0.067382  0  3.721763  0  0  -0.091137  0  3.972101  0  0  -0.091727  0  3.9919  0  0  -0.081017  -0.090611  0  3.958095  0
C  C58  1  0.85807460  0.49688996  0.94870128  1  0  -0.067466  0  3.721592  0  0  -0.091155  0  3.971915  0  0  -0.091742  0  3.991713  0  0  -0.08096  -0.090627  0  3.957908  0
C  C59  1  0.68682354  0.17028011  0.02456480  1  0  -0.323264  0  3.699098  0  0  -0.352377  0  3.959391  0  0  -0.364738  0  3.979375  0  0  -0.12241  -0.344636  0  3.946453  0
C  C60  1  0.31317066  0.82971376  0.97543627  1  0  -0.323256  0  3.699026  0  0  -0.352378  0  3.959296  0  0  -0.364737  0  3.979274  0  0  -0.122436  -0.344639  0  3.946359  0
C  C61  1  0.04184061  0.60181306  0.44284995  1  0  -0.065126  0  3.708639  0  0  -0.089325  0  3.956703  0  0  -0.090536  0  3.977694  0  0  -0.086118  -0.088434  0  3.942316  0
C  C62  1  0.95815821  0.39818200  0.55714413  1  0  -0.065098  0  3.70885  0  0  -0.089321  0  3.956911  0  0  -0.090531  0  3.977904  0  0  -0.086142  -0.088442  0  3.94251  0
C  C63  1  0.55298638  0.04166186  0.57582476  1  0  -0.130146  0  3.645664  0  0  -0.168572  0  3.904116  0  0  -0.170493  0  3.917705  0  0  -0.167053  -0.167238  0  3.895329  0
C  C64  1  0.44701458  0.95834762  0.42418102  1  0  -0.130196  0  3.645636  0  0  -0.168633  0  3.904087  0  0  -0.170558  0  3.917673  0  0  -0.167084  -0.167291  0  3.895315  0
C  C65  1  0.04260823  0.38944975  0.91387183  1  0  -0.060432  0  3.73925  0  0  -0.036617  0  3.96832  0  0  -0.043957  0  3.991724  0  0  -0.013132  -0.031506  0  3.952391  0
C  C66  1  0.95739742  0.61055140  0.08613255  1  0  -0.060344  0  3.739206  0  0  -0.036606  0  3.96831  0  0  -0.043947  0  3.99171  0  0  -0.013192  -0.031494  0  3.952376  0
C  C67  1  0.99629307  0.55951765  0.63475895  1  0  -0.079663  0  3.739219  0  0  -0.099775  0  3.985493  0  0  -0.101205  0  4.006493  0  0  -0.084082  -0.098467  0  3.970641  0
C  C68  1  0.00370471  0.44048218  0.36523579  1  0  -0.079769  0  3.739326  0  0  -0.099867  0  3.985576  0  0  -0.101302  0  4.00658  0  0  -0.084109  -0.09856  0  3.970726  0
C  C69  1  0.77445443  0.98293218  0.85641747  1  0  -0.351839  0  3.69477  0  0  -0.430949  0  3.932284  0  0  -0.433916  0  3.938786  0  0  -0.230743  -0.428533  0  3.927482  0
C  C70  1  0.22554185  0.01706410  0.14358475  1  0  -0.35191  0  3.694993  0  0  -0.430944  0  3.932505  0  0  -0.433917  0  3.939009  0  0  -0.230725  -0.428536  0  3.927705  0
C  C71  1  0.53250295  0.33018859  0.10852608  1  0  -0.366556  0  3.701886  0  0  -0.441902  0  3.935908  0  0  -0.445828  0  3.942658  0  0  -0.237912  -0.438839  0  3.931507  0
C  C72  1  0.46748601  0.66980281  0.89146889  1  0  -0.366501  0  3.701612  0  0  -0.44193  0  3.935668  0  0  -0.445853  0  3.942416  0  0  -0.237955  -0.438862  0  3.931264  0
C  C73  1  0.56774956  0.21381638  0.00396951  1  0  0.293144  0  3.790585  0  0  0.286814  0  4.061906  0  0  0.298889  0  4.080363  0  0  0.100643  0.279013  0  4.049011  0
C  C74  1  0.43224148  0.78617744  0.99602662  1  0  0.293105  0  3.790611  0  0  0.286792  0  4.061943  0  0  0.298866  0  4.080396  0  0  0.100699  0.27899  0  4.049045  0
N  N75  1  0.48386650  0.13494414  0.86676357  1  0  -0.384188  0  3.151677  0  0  -0.328296  0  3.452793  0  0  -0.347263  0  3.465509  0  0  -0.267497  -0.315619  0  3.443893  0
N  N76  1  0.51612713  0.86504849  0.13323071  1  0  -0.384223  0  3.151747  0  0  -0.328352  0  3.452883  0  0  -0.347317  0  3.465597  0  0  -0.267523  -0.315676  0  3.443986  0
N  N77  1  0.54966838  0.04255500  0.80038795  1  0  0.011097  0  3.505067  0  0  0.09286  0  3.724952  0  0  0.08125  0  3.752538  0  0  -0.147239  0.100556  0  3.706411  0
N  N78  1  0.45033151  0.95744488  0.19961158  1  0  0.011117  0  3.504966  0  0  0.092875  0  3.724828  0  0  0.08126  0  3.752411  0  0  -0.147239  0.10057  0  3.706291  0
O  O79  1  0.14462866  0.93101486  0.61192038  1  0  -0.719793  0  2.14291  0  0  -0.632585  0  2.438132  0  0  -0.66165  0  2.416124  0  0  -0.339892  -0.611539  0  2.453103  0
O  O80  1  0.85537384  0.06898624  0.38807995  1  0  -0.719809  0  2.142961  0  0  -0.632581  0  2.438179  0  0  -0.661641  0  2.416168  0  0  -0.339875  -0.611524  0  2.453131  0
O  O81  1  0.18170162  0.16643989  0.49006027  1  0  -0.632646  0  2.102337  0  0  -0.562091  0  2.367862  0  0  -0.591807  0  2.356062  0  0  -0.300825  -0.540144  0  2.375117  0
O  O82  1  0.81830088  0.83356122  0.50994096  1  0  -0.632644  0  2.102456  0  0  -0.562107  0  2.367993  0  0  -0.591828  0  2.356197  0  0  -0.30083  -0.540159  0  2.375252  0
O  O83  1  0.21752709  0.27883223  0.88241517  1  0  -0.645028  0  2.095742  0  0  -0.570236  0  2.370355  0  0  -0.598866  0  2.353739  0  0  -0.3222  -0.550443  0  2.380892  0
O  O84  1  0.78248629  0.72117253  0.11758262  1  0  -0.645064  0  2.095963  0  0  -0.570319  0  2.370558  0  0  -0.598943  0  2.35394  0  0  -0.322186  -0.550526  0  2.381089  0
O  O85  1  0.39195430  0.27358650  0.68196142  1  0  -0.638627  0  2.101997  0  0  -0.564638  0  2.37392  0  0  -0.592337  0  2.358782  0  0  -0.315283  -0.545319  0  2.383655  0
O  O86  1  0.60805130  0.72641701  0.31803752  1  0  -0.638689  0  2.101946  0  0  -0.564665  0  2.373843  0  0  -0.592359  0  2.358701  0  0  -0.315303  -0.54534  0  2.383576  0
O  O87  1  0.00496242  0.18014029  0.69506414  1  0  -0.631916  0  2.047501  0  0  -0.572627  0  2.309642  0  0  -0.599087  0  2.296707  0  0  -0.301149  -0.553992  0  2.318303  0
O  O88  1  0.99505097  0.81987165  0.30493621  1  0  -0.631884  0  2.047585  0  0  -0.572678  0  2.309784  0  0  -0.599142  0  2.296854  0  0  -0.301174  -0.554005  0  2.318357  0
O  O89  1  0.08779560  0.89272145  0.78700372  1  0  -0.559085  0  1.902324  0  0  -0.511333  0  2.119029  0  0  -0.532059  0  2.11063  0  0  -0.293491  -0.497923  0  2.125348  0
O  O90  1  0.91220743  0.10727608  0.21299721  1  0  -0.55904  0  1.902235  0  0  -0.511284  0  2.118955  0  0  -0.532004  0  2.110554  0  0  -0.293442  -0.497874  0  2.125272  0
