# generated using pymatgen
data_HgH22C32I2(N2O)2
_symmetry_space_group_name_H-M   'P 1'
_cell_length_a   12.78565063
_cell_length_b   12.78566889
_cell_length_c   23.84316256
_cell_angle_alpha   85.02740664
_cell_angle_beta   85.02733518
_cell_angle_gamma   73.26047643
_symmetry_Int_Tables_number   1
_chemical_formula_structural   HgH22C32I2(N2O)2
_chemical_formula_sum   'Hg4 H88 C128 I8 N16 O8'
_cell_volume   3710.70927228
_cell_formula_units_Z   4
loop_
 _symmetry_equiv_pos_site_id
 _symmetry_equiv_pos_as_xyz
  1  'x, y, z'
loop_
 _atom_site_type_symbol
 _atom_site_label
 _atom_site_symmetry_multiplicity
 _atom_site_fract_x
 _atom_site_fract_y
 _atom_site_fract_z
 _atom_site_occupancy
 _atom_site_pbe_bader_charge
 _atom_site_pbe_bader_spin_density
 _atom_site_pbe_cm5_charge
 _atom_site_pbe_ddec_charge
 _atom_site_pbe_ddec_spin_density
 _atom_site_pbe_ddec_sum_bond_order
 _atom_site_pbe_magmom
Hg  Hg0  1  0.68194607  0.25882595  0.50950749  1  0.504712  0  0.387494  0.350011  0  2.709599  0
Hg  Hg1  1  0.74117305  0.31805670  0.99049393  1  0.504685  0  0.387511  0.350038  0  2.70965  0
Hg  Hg2  1  0.31806077  0.74117032  0.49049375  1  0.504948  0  0.387488  0.349996  0  2.709702  0
Hg  Hg3  1  0.25883048  0.68194202  0.00950526  1  0.504942  0  0.387498  0.34998  0  2.709729  0
H  H4  1  0.54217960  0.39536577  0.61866599  1  0.118936  0  0.10906  0.082226  0  1.018005  0
H  H5  1  0.60463014  0.45782475  0.88133725  1  0.118867  0  0.109007  0.082178  0  1.018041  0
H  H6  1  0.45782485  0.60462645  0.38133640  1  0.11889  0  0.109015  0.082191  0  1.018075  0
H  H7  1  0.39536930  0.54217588  0.11866413  1  0.118869  0  0.109022  0.082188  0  1.018007  0
H  H8  1  0.56564607  0.48656756  0.70439312  1  0.104143  0  0.111723  0.122338  0  1.011116  0
H  H9  1  0.51342773  0.43436238  0.79560956  1  0.10429  0  0.111711  0.122238  0  1.011177  0
H  H10  1  0.43435583  0.51343161  0.29560654  1  0.104119  0  0.111714  0.122289  0  1.011129  0
H  H11  1  0.48656840  0.56564388  0.20439255  1  0.104347  0  0.111724  0.122297  0  1.011122  0
H  H12  1  0.90701011  0.42926198  0.64723120  1  0.124023  0  0.11135  0.124674  0  1.049468  0
H  H13  1  0.57074183  0.09299475  0.85276566  1  0.124037  0  0.11134  0.124641  0  1.049435  0
H  H14  1  0.09298924  0.57074494  0.35276778  1  0.124271  0  0.111339  0.124604  0  1.049454  0
H  H15  1  0.42926079  0.90700888  0.14722955  1  0.124027  0  0.111396  0.124687  0  1.049443  0
H  H16  1  0.86832385  0.34313266  0.56514531  1  0.086983  0  0.106429  0.076334  0  1.013216  0
H  H17  1  0.65686871  0.13167750  0.93485267  1  0.08708  0  0.106423  0.076309  0  1.013208  0
H  H18  1  0.13168054  0.65686428  0.43485686  1  0.087592  0  0.106432  0.076302  0  1.013282  0
H  H19  1  0.34313807  0.86831792  0.06514106  1  0.087601  0  0.106412  0.07634  0  1.013189  0
H  H20  1  0.92038592  0.47077394  0.72387687  1  0.536999  0  0.304912  0.286041  0  1.018727  0
H  H21  1  0.52922468  0.07961877  0.77612487  1  0.53703  0  0.304928  0.286092  0  1.018782  0
H  H22  1  0.07961357  0.52922436  0.27612714  1  0.538096  0  0.304988  0.286105  0  1.018597  0
H  H23  1  0.47077555  0.92038321  0.22387473  1  0.536985  0  0.304939  0.286097  0  1.018725  0
H  H24  1  0.88403065  0.38577599  0.84119414  1  0.082912  0  0.105729  0.119312  0  0.989878  0
H  H25  1  0.61422313  0.11597006  0.65880818  1  0.082957  0  0.105706  0.119312  0  0.989771  0
H  H26  1  0.11597206  0.61422694  0.15881032  1  0.082861  0  0.105752  0.119298  0  0.989832  0
H  H27  1  0.38577633  0.88402819  0.34119122  1  0.082913  0  0.105726  0.119324  0  0.989828  0
H  H28  1  0.91797087  0.43635263  0.93506030  1  0.083162  0  0.092445  0.095316  0  1.034672  0
H  H29  1  0.56364735  0.08202631  0.56494300  1  0.083274  0  0.092485  0.095378  0  1.034639  0
H  H30  1  0.08202523  0.56365679  0.06494375  1  0.083169  0  0.092429  0.095365  0  1.034598  0
H  H31  1  0.43634961  0.91797656  0.43505672  1  0.083252  0  0.092492  0.095412  0  1.034641  0
H  H32  1  0.92618261  0.57775133  0.99673508  1  0.071895  0  0.094133  0.098707  0  1.028082  0
H  H33  1  0.42225263  0.07380774  0.50326756  1  0.071947  0  0.094117  0.098708  0  1.028013  0
H  H34  1  0.07380773  0.42226122  0.00326700  1  0.071742  0  0.094135  0.09876  0  1.027995  0
H  H35  1  0.57774355  0.92619220  0.49673234  1  0.071815  0  0.094128  0.098719  0  1.027991  0
H  H36  1  0.92377354  0.76932635  0.00962124  1  0.084506  0  0.087047  0.091176  0  1.031522  0
H  H37  1  0.23067716  0.07622558  0.49038015  1  0.084569  0  0.087085  0.091232  0  1.031497  0
H  H38  1  0.07623146  0.23068609  0.99037677  1  0.084057  0  0.087046  0.091253  0  1.031374  0
H  H39  1  0.76931903  0.92377358  0.50962063  1  0.084009  0  0.08709  0.091277  0  1.03145  0
H  H40  1  0.90344999  0.90553002  0.92748019  1  0.084879  0  0.082123  0.085605  0  1.054363  0
H  H41  1  0.09446883  0.09655231  0.57251971  1  0.084879  0  0.082113  0.085611  0  1.054345  0
H  H42  1  0.09656242  0.09447410  0.07251493  1  0.085168  0  0.082153  0.085649  0  1.054336  0
H  H43  1  0.90552987  0.90344226  0.42748286  1  0.085092  0  0.082161  0.085673  0  1.054308  0
H  H44  1  0.88383224  0.85274065  0.83239258  1  0.073923  0  0.101753  0.10841  0  1.005194  0
H  H45  1  0.14725632  0.11616787  0.66760834  1  0.07387  0  0.101724  0.10833  0  1.005196  0
H  H46  1  0.11617207  0.14726099  0.16760558  1  0.073914  0  0.101753  0.108412  0  1.005195  0
H  H47  1  0.85274485  0.88382523  0.33239333  1  0.073935  0  0.101742  0.108375  0  1.005177  0
H  H48  1  0.07643188  0.64154117  0.76957295  1  0.062959  0  0.098385  0.101103  0  1.009501  0
H  H49  1  0.35845428  0.92357317  0.73042757  1  0.063041  0  0.098366  0.101108  0  1.009511  0
H  H50  1  0.92356683  0.35845100  0.23042680  1  0.063036  0  0.098381  0.101083  0  1.009568  0
H  H51  1  0.64154764  0.07642443  0.26957300  1  0.063062  0  0.098357  0.101101  0  1.009489  0
H  H52  1  0.22955924  0.69212048  0.71444583  1  0.065205  0  0.097699  0.09346  0  0.999413  0
H  H53  1  0.30787664  0.77044645  0.78555622  1  0.065631  0  0.097724  0.093464  0  0.999363  0
H  H54  1  0.77043949  0.30786933  0.28555361  1  0.065387  0  0.097707  0.093407  0  0.999363  0
H  H55  1  0.69212691  0.22955308  0.21444628  1  0.065757  0  0.097708  0.093418  0  0.99937  0
H  H56  1  0.19284429  0.83784273  0.63583629  1  0.081543  0  0.097635  0.097812  0  1.003312  0
H  H57  1  0.16215547  0.80716205  0.86416573  1  0.081171  0  0.09764  0.097795  0  1.003354  0
H  H58  1  0.80715772  0.16214540  0.36416223  1  0.081134  0  0.097615  0.097807  0  1.003321  0
H  H59  1  0.83785049  0.19283997  0.13583610  1  0.081182  0  0.097627  0.097812  0  1.003256  0
H  H60  1  0.00239498  0.93040830  0.61176199  1  0.07955  0  0.084805  0.092166  0  1.057403  0
H  H61  1  0.06959079  0.99761030  0.88824097  1  0.079388  0  0.084781  0.092165  0  1.057484  0
H  H62  1  0.99760535  0.06958660  0.38824006  1  0.079488  0  0.084785  0.092165  0  1.057379  0
H  H63  1  0.93041026  0.00239146  0.11175944  1  0.07941  0  0.084772  0.09216  0  1.057511  0
H  H64  1  0.80404711  0.95868907  0.63043623  1  0.072448  0  0.089805  0.093426  0  1.044337  0
H  H65  1  0.04130868  0.19595940  0.86956439  1  0.072368  0  0.089834  0.093441  0  1.044253  0
H  H66  1  0.19595560  0.04131226  0.36956580  1  0.072407  0  0.089788  0.093387  0  1.044288  0
H  H67  1  0.95869326  0.80403583  0.13043546  1  0.07235  0  0.089803  0.093395  0  1.044276  0
H  H68  1  0.64878449  0.91763481  0.69009047  1  0.090529  0  0.100373  0.112409  0  1.024024  0
H  H69  1  0.08236140  0.35122073  0.80990865  1  0.090408  0  0.100345  0.112321  0  1.024184  0
H  H70  1  0.35121575  0.08236797  0.30991035  1  0.090661  0  0.100376  0.112402  0  1.024056  0
H  H71  1  0.91763561  0.64877900  0.19009290  1  0.090444  0  0.100354  0.112342  0  1.02416  0
H  H72  1  0.66441499  0.69521392  0.78596228  1  0.531977  0  0.300825  0.267111  0  1.030897  0
H  H73  1  0.30478380  0.33558802  0.71403764  1  0.531995  0  0.300836  0.267202  0  1.030841  0
H  H74  1  0.33558363  0.30478773  0.21403993  1  0.531945  0  0.300856  0.267261  0  1.030872  0
H  H75  1  0.69520989  0.66441494  0.28596182  1  0.531899  0  0.300833  0.267231  0  1.030922  0
H  H76  1  0.57948665  0.63958997  0.84136465  1  0.114258  0  0.111594  0.123616  0  1.045169  0
H  H77  1  0.36040939  0.42051561  0.65863650  1  0.114262  0  0.111576  0.123568  0  1.045224  0
H  H78  1  0.42050948  0.36041232  0.15863346  1  0.114221  0  0.11162  0.123657  0  1.045223  0
H  H79  1  0.63958680  0.57948434  0.34136508  1  0.114267  0  0.11157  0.123523  0  1.045127  0
H  H80  1  0.45057536  0.59235504  0.91672793  1  0.093764  0  0.091249  0.059781  0  1.080692  0
H  H81  1  0.40764900  0.54942348  0.58327360  1  0.093664  0  0.091267  0.059839  0  1.080684  0
H  H82  1  0.54942652  0.40764730  0.08327451  1  0.093717  0  0.091266  0.059823  0  1.080716  0
H  H83  1  0.59235458  0.45057211  0.41672741  1  0.093709  0  0.091293  0.059875  0  1.080693  0
H  H84  1  0.31351538  0.91599132  0.95225421  1  0.096677  0  0.105657  0.075181  0  1.017841  0
H  H85  1  0.08401547  0.68648523  0.54774220  1  0.096677  0  0.105655  0.07518  0  1.017831  0
H  H86  1  0.68648568  0.08401044  0.04774662  1  0.096703  0  0.105666  0.075202  0  1.017821  0
H  H87  1  0.91599294  0.31350974  0.45225063  1  0.0968  0  0.105644  0.075194  0  1.017819  0
H  H88  1  0.43982802  0.97894106  0.87839413  1  0.11688  0  0.11258  0.119665  0  0.998075  0
H  H89  1  0.02106012  0.56017363  0.62160123  1  0.116821  0  0.112547  0.119677  0  0.998076  0
H  H90  1  0.56017139  0.02106193  0.12160630  1  0.116921  0  0.112579  0.119681  0  0.998108  0
H  H91  1  0.97894009  0.43982355  0.37838980  1  0.116874  0  0.112562  0.119622  0  0.998121  0
C  C92  1  0.62086568  0.40661399  0.62664316  1  0.473685  0  0.044923  0.089211  0  3.96101  0
C  C93  1  0.59338034  0.37913922  0.87335844  1  0.473548  0  0.044931  0.089155  0  3.961011  0
C  C94  1  0.37913793  0.59338003  0.37335918  1  0.473709  0  0.045011  0.089226  0  3.961071  0
C  C95  1  0.40661908  0.62086219  0.12664081  1  0.473623  0  0.045013  0.089258  0  3.960962  0
C  C96  1  0.63413796  0.45650283  0.67405480  1  0.002195  0  -0.07462  -0.133504  0  3.927427  0
C  C97  1  0.54349074  0.36586942  0.82594714  1  0.002374  0  -0.074616  -0.133316  0  3.927422  0
C  C98  1  0.36586397  0.54349398  0.32594581  1  0.002372  0  -0.074593  -0.13332  0  3.927354  0
C  C99  1  0.45650947  0.63413493  0.17405360  1  0.002436  0  -0.074635  -0.133392  0  3.927343  0
C  C100  1  0.73776450  0.46592545  0.68288041  1  -0.070568  0  0.007188  0.022779  0  3.948723  0
C  C101  1  0.53407093  0.26224269  0.81712054  1  -0.069003  0  0.007232  0.022679  0  3.948616  0
C  C102  1  0.26223823  0.53407272  0.31712093  1  -0.069555  0  0.007218  0.02263  0  3.948805  0
C  C103  1  0.46592929  0.73776007  0.18287861  1  -0.069403  0  0.007236  0.022735  0  3.948659  0
C  C104  1  0.82387632  0.42599686  0.64285253  1  0.011564  0  -0.078335  -0.146415  0  3.913592  0
C  C105  1  0.57400253  0.17612864  0.85714667  1  0.010263  0  -0.078359  -0.146341  0  3.913532  0
C  C106  1  0.17612558  0.57400311  0.35714877  1  0.010346  0  -0.07832  -0.146275  0  3.913531  0
C  C107  1  0.42600175  0.82387378  0.14284978  1  0.010744  0  -0.078424  -0.146406  0  3.913521  0
C  C108  1  0.80285649  0.37772725  0.59655415  1  0.497121  0  0.043104  0.092713  0  3.962366  0
C  C109  1  0.62227158  0.19714715  0.90344471  1  0.497254  0  0.043112  0.092688  0  3.962384  0
C  C110  1  0.19714711  0.62226676  0.40344736  1  0.496148  0  0.043007  0.092635  0  3.962426  0
C  C111  1  0.37773518  0.80285303  0.09655214  1  0.496133  0  0.042987  0.092524  0  3.962322  0
C  C112  1  0.75012593  0.51682441  0.73545478  1  1.398295  0  0.247239  0.480487  0  4.106737  0
C  C113  1  0.48317236  0.24988002  0.76454538  1  1.397519  0  0.247387  0.480766  0  4.106379  0
C  C114  1  0.24987190  0.48317510  0.26454674  1  1.398338  0  0.24732  0.480614  0  4.10652  0
C  C115  1  0.51682537  0.75012576  0.23545290  1  1.397682  0  0.247335  0.480618  0  4.106412  0
C  C116  1  0.87278906  0.54627152  0.80063165  1  0.320374  0  0.08248  0.169843  0  4.009765  0
C  C117  1  0.45372478  0.12721205  0.69937043  1  0.320191  0  0.082432  0.169757  0  4.009782  0
C  C118  1  0.12721040  0.45372913  0.19937141  1  0.320335  0  0.082537  0.169849  0  4.009861  0
C  C119  1  0.54627304  0.87278665  0.30062904  1  0.320183  0  0.082503  0.169953  0  4.009769  0
C  C120  1  0.88828298  0.46798835  0.84727368  1  -0.078168  0  -0.097625  -0.170362  0  4.019696  0
C  C121  1  0.53201089  0.11171648  0.65272747  1  -0.0782  0  -0.097537  -0.170276  0  4.019801  0
C  C122  1  0.11171563  0.53201488  0.15272888  1  -0.078114  0  -0.097558  -0.170176  0  4.0198  0
C  C123  1  0.46798775  0.88828279  0.34727235  1  -0.078007  0  -0.097602  -0.170362  0  4.019794  0
C  C124  1  0.90697202  0.49624414  0.89902918  1  -0.030339  0  -0.092958  -0.117812  0  4.016788  0
C  C125  1  0.50375652  0.09302362  0.60097377  1  -0.030496  0  -0.09304  -0.117913  0  4.017112  0
C  C126  1  0.09302165  0.50376359  0.10097466  1  -0.030204  0  -0.093092  -0.118092  0  4.017124  0
C  C127  1  0.49624048  0.90697610  0.39902653  1  -0.03058  0  -0.093058  -0.118016  0  4.01718  0
C  C128  1  0.90838483  0.60451707  0.90677816  1  -0.017952  0  -0.010013  0.076874  0  4.001332  0
C  C129  1  0.39548382  0.09160993  0.59322401  1  -0.017856  0  -0.010063  0.076769  0  4.001583  0
C  C130  1  0.09160717  0.39549266  0.09322398  1  -0.018107  0  -0.01004  0.076899  0  4.001475  0
C  C131  1  0.60451316  0.90839057  0.40677582  1  -0.017994  0  -0.009979  0.076928  0  4.001616  0
C  C132  1  0.91906289  0.63761669  0.96076404  1  -0.030073  0  -0.096936  -0.135164  0  3.991477  0
C  C133  1  0.36238588  0.08093075  0.53923895  1  -0.029576  0  -0.096896  -0.135036  0  3.99143  0
C  C134  1  0.08092909  0.36239541  0.03923840  1  -0.030342  0  -0.096886  -0.135136  0  3.99137  0
C  C135  1  0.63761030  0.91906918  0.46076096  1  -0.030077  0  -0.096871  -0.135026  0  3.991351  0
C  C136  1  0.91636403  0.74410370  0.96798793  1  -0.096004  0  -0.100631  -0.084018  0  4.037216  0
C  C137  1  0.25589722  0.08363418  0.53201369  1  -0.096527  0  -0.100677  -0.084132  0  4.037253  0
C  C138  1  0.08363692  0.25590752  0.03201244  1  -0.094987  0  -0.100672  -0.084096  0  4.037039  0
C  C139  1  0.74409816  0.91636440  0.46798674  1  -0.095282  0  -0.100738  -0.084213  0  4.037138  0
C  C140  1  0.90460548  0.82165397  0.92122496  1  -0.09927  0  -0.097948  -0.074564  0  4.016237  0
C  C141  1  0.17834682  0.09539399  0.57877579  1  -0.099188  0  -0.097906  -0.074581  0  4.016273  0
C  C142  1  0.09539879  0.17835083  0.07877346  1  -0.099812  0  -0.097884  -0.074582  0  4.016178  0
C  C143  1  0.82165187  0.90460136  0.42122589  1  -0.099549  0  -0.097949  -0.074687  0  4.016306  0
C  C144  1  0.89386474  0.79228311  0.86815019  1  -0.020004  0  -0.092859  -0.12872  0  3.968997  0
C  C145  1  0.20771729  0.10613484  0.63185183  1  -0.020622  0  -0.092827  -0.128566  0  3.96895  0
C  C146  1  0.10613709  0.20772157  0.13184920  1  -0.020416  0  -0.092954  -0.128792  0  3.969002  0
C  C147  1  0.79228303  0.89386085  0.36814975  1  -0.020524  0  -0.092851  -0.128604  0  3.969014  0
C  C148  1  0.89419609  0.68364493  0.85942911  1  0.014017  0  -0.00573  0.039795  0  3.952269  0
C  C149  1  0.31635553  0.10580041  0.64057177  1  0.014593  0  -0.005772  0.039695  0  3.952394  0
C  C150  1  0.10579839  0.31636098  0.14057185  1  0.014641  0  -0.005713  0.039707  0  3.952316  0
C  C151  1  0.68364475  0.89419684  0.35942764  1  0.014561  0  -0.005779  0.039697  0  3.952314  0
C  C152  1  0.87729161  0.65233230  0.80539120  1  -0.019259  0  -0.003005  -0.045536  0  3.956515  0
C  C153  1  0.34766542  0.12270950  0.69461084  1  -0.019257  0  -0.002992  -0.045468  0  3.956527  0
C  C154  1  0.12270456  0.34767002  0.19461069  1  -0.019254  0  -0.002965  -0.045353  0  3.956408  0
C  C155  1  0.65233239  0.87729000  0.30538900  1  -0.019234  0  -0.002966  -0.045484  0  3.956383  0
C  C156  1  0.85979104  0.73469077  0.75622505  1  0.065229  0  -0.005799  -0.052768  0  3.95711  0
C  C157  1  0.26530532  0.14021299  0.74377528  1  0.065476  0  -0.005809  -0.052676  0  3.957033  0
C  C158  1  0.14020759  0.26530930  0.24377556  1  0.065345  0  -0.005853  -0.052864  0  3.957126  0
C  C159  1  0.73469330  0.85978707  0.25622450  1  0.065486  0  -0.005877  -0.052796  0  3.95716  0
C  C160  1  0.94993582  0.75796707  0.72302587  1  -0.03801  0  -0.006223  0.037644  0  3.969369  0
C  C161  1  0.24202816  0.05006859  0.77697572  1  -0.038217  0  -0.006302  0.037397  0  3.969376  0
C  C162  1  0.05006203  0.24203007  0.27697534  1  -0.038045  0  -0.006297  0.037449  0  3.969501  0
C  C163  1  0.75797210  0.94993102  0.22302316  1  -0.038264  0  -0.006283  0.037401  0  3.969332  0
C  C164  1  0.06021636  0.70467051  0.73506538  1  -0.014868  0  -0.094571  -0.133913  0  3.988163  0
C  C165  1  0.29532488  0.93978973  0.76493553  1  -0.014747  0  -0.094531  -0.133899  0  3.98816  0
C  C166  1  0.93978561  0.29532236  0.26493501  1  -0.014722  0  -0.09456  -0.13384  0  3.988165  0
C  C167  1  0.70467702  0.06020944  0.23506413  1  -0.014711  0  -0.094525  -0.133856  0  3.988063  0
C  C168  1  0.14544877  0.73350645  0.70443288  1  -0.091415  0  -0.094504  -0.07916  0  4.039052  0
C  C169  1  0.26648764  0.85455636  0.79556897  1  -0.091435  0  -0.094479  -0.079052  0  4.039015  0
C  C170  1  0.85455161  0.26648293  0.29556776  1  -0.091662  0  -0.094451  -0.078962  0  4.038852  0
C  C171  1  0.73351425  0.14544439  0.20443145  1  -0.091562  0  -0.094463  -0.079021  0  4.038962  0
C  C172  1  0.12492490  0.81566500  0.65985240  1  -0.062155  0  -0.094431  -0.080174  0  4.024373  0
C  C173  1  0.18432968  0.87508243  0.84014892  1  -0.061775  0  -0.094441  -0.080208  0  4.024461  0
C  C174  1  0.87507546  0.18432594  0.34014732  1  -0.061813  0  -0.09449  -0.080371  0  4.024521  0
C  C175  1  0.81567139  0.12491855  0.15985195  1  -0.061798  0  -0.094495  -0.080292  0  4.02435  0
C  C176  1  0.01885328  0.86757994  0.64642550  1  -0.067302  0  -0.092426  -0.129101  0  3.974728  0
C  C177  1  0.13241634  0.98115333  0.85357624  1  -0.067223  0  -0.092436  -0.129213  0  3.974728  0
C  C178  1  0.98114950  0.13241428  0.35357520  1  -0.067317  0  -0.092443  -0.129175  0  3.974812  0
C  C179  1  0.86758475  0.01884527  0.14642306  1  -0.067273  0  -0.092367  -0.129135  0  3.974656  0
C  C180  1  0.92902186  0.84128348  0.67755640  1  -0.051261  0  -0.008882  0.075259  0  3.9962  0
C  C181  1  0.15871105  0.07098476  0.82244473  1  -0.051354  0  -0.008891  0.075471  0  3.99605  0
C  C182  1  0.07097680  0.15871502  0.32244513  1  -0.051276  0  -0.008775  0.07555  0  3.996188  0
C  C183  1  0.84128755  0.92901607  0.17755375  1  -0.051394  0  -0.008952  0.075406  0  3.996112  0
C  C184  1  0.81911299  0.89690191  0.66570516  1  0.025534  0  -0.090841  -0.118166  0  3.992277  0
C  C185  1  0.10309344  0.18089340  0.83429599  1  0.025116  0  -0.090871  -0.118317  0  3.992217  0
C  C186  1  0.18088892  0.10309807  0.33429698  1  0.025208  0  -0.090868  -0.118242  0  3.992152  0
C  C187  1  0.89690600  0.81910722  0.16570414  1  0.025139  0  -0.090833  -0.11822  0  3.992154  0
C  C188  1  0.73325814  0.87475016  0.69858347  1  -0.026493  0  -0.096898  -0.160847  0  4.010049  0
C  C189  1  0.12524359  0.26674642  0.80141619  1  -0.026071  0  -0.096826  -0.160616  0  4.009993  0
C  C190  1  0.26674132  0.12524969  0.30141880  1  -0.026373  0  -0.096893  -0.160789  0  4.010032  0
C  C191  1  0.87475260  0.73325353  0.19858455  1  -0.0261  0  -0.096859  -0.160699  0  4.010115  0
C  C192  1  0.75403569  0.79509600  0.74435235  1  0.290469  0  0.088465  0.184472  0  4.006039  0
C  C193  1  0.20489947  0.24596908  0.75564760  1  0.290365  0  0.088547  0.184593  0  4.005827  0
C  C194  1  0.24596373  0.20490621  0.25564896  1  0.29048  0  0.088566  0.184621  0  4.005906  0
C  C195  1  0.79509748  0.75403377  0.24435086  1  0.2904  0  0.088529  0.184571  0  4.006175  0
C  C196  1  0.59598961  0.85310561  0.81099439  1  1.402261  0  0.249885  0.484891  0  4.10731  0
C  C197  1  0.14688993  0.40401533  0.68900436  1  1.402276  0  0.249992  0.485043  0  4.107241  0
C  C198  1  0.40401150  0.14689143  0.18900667  1  1.402841  0  0.250058  0.485159  0  4.107456  0
C  C199  1  0.85311769  0.59598148  0.31099303  1  1.402234  0  0.250175  0.485386  0  4.107676  0
C  C200  1  0.52012193  0.81472369  0.85398772  1  -0.066143  0  0.008125  0.018609  0  3.961135  0
C  C201  1  0.18527530  0.47988040  0.64601100  1  -0.066056  0  0.00816  0.018653  0  3.961113  0
C  C202  1  0.47987748  0.18527851  0.14601233  1  -0.065831  0  0.008192  0.018735  0  3.960975  0
C  C203  1  0.81471924  0.52011680  0.35398451  1  -0.06513  0  0.008154  0.018612  0  3.961084  0
C  C204  1  0.52295515  0.70465234  0.86460552  1  -0.019992  0  -0.079238  -0.148247  0  3.923688  0
C  C205  1  0.29534871  0.47704673  0.63539392  1  -0.019965  0  -0.079218  -0.148204  0  3.923633  0
C  C206  1  0.47704342  0.29535244  0.13539403  1  -0.020044  0  -0.079307  -0.148343  0  3.923751  0
C  C207  1  0.70465076  0.52294995  0.36460556  1  -0.020059  0  -0.079249  -0.148201  0  3.923669  0
C  C208  1  0.45120622  0.67720755  0.90657088  1  0.50648  0  0.037485  0.088746  0  3.972038  0
C  C209  1  0.32279685  0.54879327  0.59342937  1  0.506422  0  0.037448  0.088743  0  3.972083  0
C  C210  1  0.54879319  0.32279624  0.09343077  1  0.506372  0  0.037414  0.088677  0  3.972075  0
C  C211  1  0.67720425  0.45120296  0.40656880  1  0.506278  0  0.037388  0.088641  0  3.972047  0
C  C212  1  0.37547609  0.85800191  0.92707582  1  0.511112  0  0.04631  0.0891  0  3.96118  0
C  C213  1  0.14200360  0.62452377  0.57292107  1  0.511193  0  0.046355  0.089208  0  3.961321  0
C  C214  1  0.62452576  0.14200120  0.07292448  1  0.511199  0  0.046339  0.089155  0  3.96116  0
C  C215  1  0.85799912  0.37547040  0.42707334  1  0.510891  0  0.046224  0.088919  0  3.961446  0
C  C216  1  0.44474732  0.89255366  0.88614418  1  -0.030074  0  -0.073224  -0.131839  0  3.934378  0
C  C217  1  0.10744805  0.55525193  0.61385335  1  -0.029967  0  -0.073236  -0.131931  0  3.934557  0
C  C218  1  0.55525048  0.10744821  0.11385765  1  -0.030274  0  -0.073244  -0.131944  0  3.934397  0
C  C219  1  0.89255465  0.44474381  0.38614015  1  -0.030356  0  -0.073116  -0.131741  0  3.934367  0
I  I220  1  0.87487015  0.10762548  0.52620095  1  -0.323058  0  -0.152194  -0.288873  0  1.570456  0
I  I221  1  0.89237113  0.12512936  0.97380399  1  -0.323051  0  -0.152181  -0.288852  0  1.570481  0
I  I222  1  0.12513186  0.89236584  0.47380202  1  -0.323189  0  -0.152157  -0.288814  0  1.570433  0
I  I223  1  0.10763405  0.87486972  0.02619803  1  -0.323188  0  -0.152158  -0.288817  0  1.570481  0
I  I224  1  0.46810934  0.32934001  0.49158263  1  -0.305063  0  -0.181961  -0.287949  0  1.385278  0
I  I225  1  0.67065085  0.53189525  0.00841073  1  -0.305067  0  -0.181968  -0.287939  0  1.385325  0
I  I226  1  0.53189507  0.67065616  0.50841999  1  -0.305096  0  -0.181997  -0.287963  0  1.385315  0
I  I227  1  0.32934441  0.46810720  0.99157986  1  -0.305076  0  -0.18199  -0.287952  0  1.385295  0
N  N228  1  0.70366977  0.36788525  0.58862924  1  -1.220676  0  -0.311977  -0.200453  0  3.505303  0
N  N229  1  0.63211062  0.29633333  0.91137150  1  -1.220582  0  -0.311937  -0.200365  0  3.505207  0
N  N230  1  0.29633712  0.63210709  0.41137345  1  -1.220592  0  -0.311935  -0.200393  0  3.505298  0
N  N231  1  0.36789376  0.70366042  0.08862579  1  -1.22058  0  -0.311903  -0.200342  0  3.50514  0
N  N232  1  0.85232537  0.51161038  0.74807188  1  -1.263608  0  -0.399259  -0.393178  0  3.585144  0
N  N233  1  0.48838668  0.14767828  0.75192961  1  -1.263736  0  -0.399369  -0.393345  0  3.585301  0
N  N234  1  0.14767574  0.48838824  0.25192994  1  -1.264924  0  -0.39937  -0.393306  0  3.585376  0
N  N235  1  0.51161356  0.85232290  0.24806962  1  -1.263608  0  -0.399328  -0.39332  0  3.585313  0
N  N236  1  0.66566353  0.77576950  0.78010017  1  -1.287012  0  -0.396462  -0.373684  0  3.597049  0
N  N237  1  0.22422911  0.33434109  0.71989923  1  -1.286888  0  -0.396604  -0.374014  0  3.596904  0
N  N238  1  0.33433586  0.22423507  0.21990060  1  -1.287052  0  -0.396642  -0.374149  0  3.597023  0
N  N239  1  0.77576210  0.66566332  0.28009860  1  -1.286764  0  -0.396669  -0.37423  0  3.596722  0
N  N240  1  0.37918663  0.75211844  0.93714175  1  -1.213705  0  -0.31168  -0.190776  0  3.494672  0
N  N241  1  0.24788665  0.62081274  0.56285683  1  -1.213833  0  -0.311674  -0.190886  0  3.494906  0
N  N242  1  0.62081608  0.24788209  0.06285948  1  -1.21368  0  -0.311643  -0.190805  0  3.494716  0
N  N243  1  0.75212097  0.37918248  0.43713896  1  -1.213584  0  -0.311623  -0.190692  0  3.494876  0
O  O244  1  0.66674983  0.56109500  0.76585311  1  -1.174076  0  -0.301014  -0.511348  0  2.191832  0
O  O245  1  0.43890050  0.33325430  0.73414599  1  -1.173591  0  -0.301072  -0.5115  0  2.191721  0
O  O246  1  0.33325287  0.43890552  0.23414645  1  -1.173981  0  -0.301059  -0.511428  0  2.191568  0
O  O247  1  0.56109567  0.66674483  0.26585227  1  -1.173674  0  -0.301058  -0.511416  0  2.191589  0
O  O248  1  0.59582878  0.95128568  0.80627991  1  -1.164828  0  -0.297799  -0.509785  0  2.230611  0
O  O249  1  0.04871536  0.40417620  0.69371818  1  -1.164968  0  -0.297765  -0.509752  0  2.230832  0
O  O250  1  0.40416895  0.04872169  0.19372039  1  -1.16538  0  -0.297833  -0.509799  0  2.231025  0
O  O251  1  0.95127098  0.59582480  0.30627797  1  -1.165373  0  -0.297835  -0.509758  0  2.231753  0
