# generated using pymatgen
data_Zn4H18C36O13
_symmetry_space_group_name_H-M   'P 1'
_cell_length_a   19.69069437
_cell_length_b   23.15165180
_cell_length_c   21.20043825
_cell_angle_alpha   119.61518227
_cell_angle_beta   119.59803970
_cell_angle_gamma   90.06623206
_symmetry_Int_Tables_number   1
_chemical_formula_structural   Zn4H18C36O13
_chemical_formula_sum   'Zn8 H36 C72 O26'
_cell_volume   6910.61695608
_cell_formula_units_Z   2
loop_
 _symmetry_equiv_pos_site_id
 _symmetry_equiv_pos_as_xyz
  1  'x, y, z'
loop_
 _atom_site_type_symbol
 _atom_site_label
 _atom_site_symmetry_multiplicity
 _atom_site_fract_x
 _atom_site_fract_y
 _atom_site_fract_z
 _atom_site_occupancy
 _atom_site_pbe_bader_charge
 _atom_site_pbe_bader_spin_density
 _atom_site_pbe_cm5_charge
 _atom_site_pbe_ddec_charge
 _atom_site_pbe_ddec_spin_density
 _atom_site_pbe_ddec_sum_bond_order
 _atom_site_pbe_magmom
Zn  Zn0  1  0.13277523  0.06506593  0.12968754  1  1.318118  0  0.66921  0.952648  0  2.422273  0
Zn  Zn1  1  0.97351590  0.06330936  0.13138159  1  1.320217  0  0.670128  0.960817  0  2.386095  0
Zn  Zn2  1  0.97502938  0.92657872  0.97957037  1  1.317602  0  0.671108  0.968255  0  2.355366  0
Zn  Zn3  1  0.97310909  0.06768981  0.98165588  1  1.317262  0  0.671404  0.968176  0  2.355999  0
Zn  Zn4  1  0.39455964  0.49957178  0.98587148  1  1.303556  0  0.669234  0.953072  0  2.417719  0
Zn  Zn5  1  0.54896959  0.49263582  0.97602525  1  1.316346  0  0.670426  0.96175  0  2.384015  0
Zn  Zn6  1  0.55466937  0.49510260  0.13174506  1  1.31716  0  0.671323  0.966722  0  2.363168  0
Zn  Zn7  1  0.55638797  0.63455497  0.13070599  1  1.313711  0  0.672033  0.969965  0  2.351801  0
H  H8  1  0.30563887  0.19440423  0.39447880  1  0.098007  0  0.107134  0.114629  0  0.996993  0
H  H9  1  0.40038878  0.27936904  0.55789594  1  0.042142  0  0.105268  0.105795  0  0.989884  0
H  H10  1  0.42051782  0.35379983  0.70316693  1  0.106172  0  0.108895  0.115875  0  0.996082  0
H  H11  1  0.21132997  0.35484272  0.71923417  1  0.094883  0  0.107064  0.114033  0  0.996555  0
H  H12  1  0.11627879  0.26992658  0.55592910  1  0.060867  0  0.10481  0.105262  0  0.990757  0
H  H13  1  0.09559121  0.19664279  0.40922529  1  0.093096  0  0.108965  0.116197  0  0.994748  0
H  H14  1  0.31151737  0.97207379  0.17885656  1  0.131149  0  0.107313  0.114431  0  0.997064  0
H  H15  1  0.40823079  0.90300544  0.19646799  1  0.071949  0  0.104982  0.105806  0  0.990134  0
H  H16  1  0.43141805  0.78659371  0.14742687  1  0.091453  0  0.108667  0.115712  0  0.995978  0
H  H17  1  0.22594974  0.59693589  0.92884924  1  0.076743  0  0.10748  0.115204  0  0.998352  0
H  H18  1  0.12954512  0.66628488  0.91117259  1  0.063367  0  0.105095  0.106014  0  0.989779  0
H  H19  1  0.10623087  0.78207201  0.96174369  1  0.109813  0  0.10851  0.114925  0  0.996338  0
H  H20  1  0.30707485  0.20687319  0.18113445  1  0.091469  0  0.107131  0.114208  0  0.997526  0
H  H21  1  0.40378743  0.29455382  0.20187535  1  0.03674  0  0.105045  0.105702  0  0.990145  0
H  H22  1  0.42678372  0.36963705  0.15667825  1  0.116084  0  0.108641  0.115513  0  0.996448  0
H  H23  1  0.21931360  0.38194653  0.96070428  1  0.075118  0  0.107466  0.114845  0  0.997769  0
H  H24  1  0.12222374  0.29679386  0.94288148  1  0.038292  0  0.105007  0.105635  0  0.990629  0
H  H25  1  0.09955713  0.21723822  0.98297817  1  0.112282  0  0.108676  0.115047  0  0.996114  0
H  H26  1  0.83969990  0.96247114  0.16551855  1  0.097586  0  0.107086  0.113972  0  0.996598  0
H  H27  1  0.75952682  0.89117283  0.17923654  1  0.037538  0  0.105132  0.105466  0  0.990865  0
H  H28  1  0.68960546  0.77452165  0.13252805  1  0.092226  0  0.10889  0.116268  0  0.997744  0
H  H29  1  0.68341732  0.58620582  0.92993613  1  0.054126  0  0.107152  0.114156  0  0.99733  0
H  H30  1  0.76250234  0.65700436  0.91487728  1  0.083367  0  0.104686  0.105002  0  0.991341  0
H  H31  1  0.83433174  0.77475119  0.96288729  1  0.095022  0  0.108478  0.115066  0  0.996094  0
H  H32  1  0.83749058  0.19580458  0.17191485  1  0.094422  0  0.107156  0.114214  0  0.996287  0
H  H33  1  0.75884319  0.28046504  0.18693947  1  0.083191  0  0.104602  0.104939  0  0.990279  0
H  H34  1  0.68779263  0.35454027  0.13917526  1  0.107304  0  0.10865  0.115532  0  0.996448  0
H  H35  1  0.67282132  0.35159471  0.92842246  1  0.096901  0  0.106929  0.113655  0  0.996516  0
H  H36  1  0.74925994  0.26523496  0.91164171  1  0.073832  0  0.104812  0.104921  0  0.99104  0
H  H37  1  0.82291336  0.19348165  0.96168065  1  0.111193  0  0.108573  0.115366  0  0.99783  0
H  H38  1  0.84985440  0.97075545  0.71189034  1  0.096886  0  0.106948  0.113538  0  0.995437  0
H  H39  1  0.77175629  0.89890359  0.54796421  1  0.036891  0  0.105303  0.106439  0  0.989903  0
H  H40  1  0.69967888  0.78129313  0.40440508  1  0.073259  0  0.108894  0.116136  0  0.997421  0
H  H41  1  0.69214304  0.59408420  0.40079955  1  0.102556  0  0.107173  0.114513  0  0.997673  0
H  H42  1  0.77154000  0.66599201  0.56483084  1  0.03897  0  0.105214  0.105628  0  0.990894  0
H  H43  1  0.84200446  0.78341727  0.70798232  1  0.085634  0  0.108848  0.116015  0  0.995985  0
C  C44  1  0.14029384  0.14145295  0.29504610  1  1.566814  0  0.226437  0.603925  0  4.172099  0
C  C45  1  0.19516647  0.19104391  0.39312218  1  -0.003963  0  -0.01793  -0.036136  0  3.990485  0
C  C46  1  0.28189224  0.21426661  0.43527014  1  -0.040239  0  -0.086945  -0.098008  0  3.998593  0
C  C47  1  0.33379113  0.26100434  0.52528833  1  -0.05079  0  -0.08689  -0.130889  0  4.002134  0
C  C48  1  0.30191428  0.28654549  0.57768064  1  0.026198  0  -0.001988  0.079435  0  4.001205  0
C  C49  1  0.35397131  0.33502223  0.67027101  1  -0.051031  0  -0.073033  -0.129179  0  3.920751  0
C  C50  1  0.32152849  0.35913961  0.72001620  1  -0.053916  0  -0.019028  -0.035535  0  3.990088  0
C  C51  1  0.23496582  0.33511593  0.67830780  1  -0.007072  0  -0.086643  -0.098625  0  3.996314  0
C  C52  1  0.18283412  0.28820367  0.58821772  1  -0.022177  0  -0.08643  -0.130849  0  3.996441  0
C  C53  1  0.21430226  0.26268044  0.53534550  1  -0.017235  0  -0.00172  0.080377  0  3.994674  0
C  C54  1  0.16228035  0.21484613  0.44249556  1  -0.03385  0  -0.073404  -0.130532  0  3.916927  0
C  C55  1  0.37754778  0.41074482  0.81765427  1  1.544577  0  0.226466  0.603379  0  4.170086  0
C  C56  1  0.14660290  0.92296873  0.06040847  1  1.542146  0  0.226955  0.604853  0  4.166097  0
C  C57  1  0.20328334  0.88041335  0.06889647  1  -0.064381  0  -0.01893  -0.036185  0  3.990337  0
C  C58  1  0.28923903  0.91492219  0.13560429  1  -0.04764  0  -0.086339  -0.098248  0  3.998624  0
C  C59  1  0.34225499  0.87652848  0.14495435  1  -0.035667  0  -0.086675  -0.130907  0  3.999159  0
C  C60  1  0.31241886  0.80194238  0.08801937  1  -0.003524  0  -0.001807  0.079501  0  3.997304  0
C  C61  1  0.36536936  0.76095929  0.09609887  1  -0.056909  0  -0.073282  -0.131262  0  3.920339  0
C  C62  1  0.33417708  0.68836671  0.03966915  1  0.021637  0  -0.018145  -0.03577  0  3.987593  0
C  C63  1  0.24830795  0.65404827  0.97227454  1  0.001856  0  -0.086943  -0.097691  0  4.00007  0
C  C64  1  0.19550213  0.69253327  0.96289646  1  -0.104168  0  -0.087061  -0.132311  0  4.001562  0
C  C65  1  0.22550524  0.76705858  0.02019352  1  0.06119  0  -0.002292  0.079848  0  3.998204  0
C  C66  1  0.17236149  0.80783608  0.01255449  1  -0.05276  0  -0.072846  -0.128779  0  3.919898  0
C  C67  1  0.38952132  0.64478735  0.04880865  1  1.54873  0  0.227719  0.606717  0  4.161764  0
C  C68  1  0.14187800  0.15298262  0.06778506  1  1.549193  0  0.226874  0.604606  0  4.16679  0
C  C69  1  0.19775896  0.20687123  0.07999234  1  0.002809  0  -0.018361  -0.03606  0  3.988516  0
C  C70  1  0.28429594  0.22916526  0.14274261  1  -0.080978  0  -0.08737  -0.099096  0  3.998723  0
C  C71  1  0.33730483  0.27746908  0.15385623  1  -0.016324  0  -0.087115  -0.130989  0  3.999733  0
C  C72  1  0.30682942  0.30576064  0.10283755  1  0.056955  0  -0.001613  0.080534  0  3.999304  0
C  C73  1  0.36011330  0.35362549  0.11065696  1  -0.05212  0  -0.07362  -0.130644  0  3.922513  0
C  C74  1  0.32864135  0.37999584  0.05968355  1  -0.012351  0  -0.018468  -0.035999  0  3.992485  0
C  C75  1  0.24195690  0.35986084  0.99935974  1  -0.024542  0  -0.086738  -0.099076  0  3.998795  0
C  C76  1  0.18876891  0.31295367  0.98989185  1  0.000665  0  -0.086758  -0.130337  0  3.996691  0
C  C77  1  0.21923635  0.28419940  0.04040638  1  -0.045191  0  -0.0021  0.078622  0  3.995044  0
C  C78  1  0.16611721  0.23450312  0.03047871  1  -0.038811  0  -0.073004  -0.128586  0  3.916899  0
C  C79  1  0.38531499  0.42832832  0.06573218  1  1.527745  0  0.227128  0.606551  0  4.164451  0
C  C80  1  0.89000145  0.91656313  0.05729729  1  1.547494  0  0.227625  0.607559  0  4.161012  0
C  C81  1  0.84132252  0.87205661  0.06308929  1  -0.03509  0  -0.018563  -0.039273  0  3.988371  0
C  C82  1  0.82006833  0.90533501  0.12469142  1  0.003954  0  -0.08681  -0.096073  0  3.997724  0
C  C83  1  0.77592409  0.86579376  0.13198891  1  -0.082925  0  -0.086883  -0.131345  0  4.001122  0
C  C84  1  0.75084158  0.79126111  0.07845840  1  0.049078  0  -0.001776  0.081632  0  3.997943  0
C  C85  1  0.70598747  0.74950883  0.08528834  1  -0.060674  0  -0.073966  -0.131725  0  3.923341  0
C  C86  1  0.68247357  0.67693510  0.03279988  1  0.009659  0  -0.018406  -0.035327  0  3.986219  0
C  C87  1  0.70299083  0.64336922  0.97058689  1  0.025984  0  -0.087055  -0.100012  0  3.997681  0
C  C88  1  0.74661961  0.68273840  0.96254707  1  -0.034633  0  -0.08646  -0.129378  0  3.996141  0
C  C89  1  0.77200697  0.75738174  0.01591140  1  -0.057749  0  -0.002177  0.077573  0  3.994608  0
C  C90  1  0.81747685  0.79944841  0.00977612  1  -0.022035  0  -0.073034  -0.128022  0  3.914475  0
C  C91  1  0.63532990  0.63409633  0.04163024  1  1.533509  0  0.227913  0.60698  0  4.160604  0
C  C92  1  0.88312831  0.14046911  0.05863135  1  1.525216  0  0.227378  0.607111  0  4.158624  0
C  C93  1  0.83452472  0.19012274  0.06556160  1  -0.034002  0  -0.018717  -0.037105  0  3.987892  0
C  C94  1  0.81614988  0.21462138  0.12958503  1  -0.031272  0  -0.086752  -0.098688  0  3.995674  0
C  C95  1  0.77279840  0.26136731  0.13762161  1  -0.062228  0  -0.085985  -0.128973  0  3.994498  0
C  C96  1  0.74551724  0.28591706  0.08235037  1  0.038973  0  -0.002162  0.078363  0  3.996467  0
C  C97  1  0.70180244  0.33469128  0.08990052  1  -0.050249  0  -0.073053  -0.129175  0  3.919255  0
C  C98  1  0.67664142  0.35803154  0.03551887  1  -0.019689  0  -0.018785  -0.037032  0  3.987755  0
C  C99  1  0.69376812  0.33251325  0.97045148  1  -0.056767  0  -0.086925  -0.097857  0  3.995505  0
C  C100  1  0.73598749  0.28496254  0.96152507  1  -0.015366  0  -0.086534  -0.129815  0  3.995931  0
C  C101  1  0.76343329  0.26067537  0.01706168  1  -0.048397  0  -0.002482  0.078984  0  3.995428  0
C  C102  1  0.80829750  0.21279038  0.01043845  1  -0.045898  0  -0.073334  -0.129206  0  3.92066  0
C  C103  1  0.63171830  0.41045626  0.04506577  1  1.545908  0  0.226634  0.605884  0  4.16569  0
C  C104  1  0.89601219  0.92430338  0.81724817  1  1.528575  0  0.227833  0.607368  0  4.160427  0
C  C105  1  0.84997084  0.88064000  0.71898728  1  0.000591  0  -0.018285  -0.036745  0  3.985927  0
C  C106  1  0.83018052  0.91361276  0.67353617  1  -0.06515  0  -0.086297  -0.096941  0  3.998087  0
C  C107  1  0.78703316  0.87371642  0.58304514  1  0.051951  0  -0.087086  -0.132827  0  3.99856  0
C  C108  1  0.76131978  0.79912201  0.53335717  1  -0.055685  0  -0.001584  0.081176  0  3.994985  0
C  C109  1  0.71599729  0.75673571  0.44022853  1  0.012944  0  -0.07349  -0.130564  0  3.92182  0
C  C110  1  0.69153620  0.68413378  0.39355904  1  -0.043418  0  -0.018103  -0.036976  0  3.988924  0
C  C111  1  0.71212898  0.65121686  0.43915666  1  -0.04617  0  -0.086936  -0.099249  0  4.001026  0
C  C112  1  0.75599742  0.69113198  0.52968384  1  -0.024092  0  -0.086176  -0.129055  0  3.998404  0
C  C113  1  0.78164384  0.76570877  0.57924861  1  0.017714  0  -0.002598  0.078531  0  3.99684  0
C  C114  1  0.82621275  0.80804641  0.67228409  1  -0.003589  0  -0.073398  -0.129594  0  3.916514  0
C  C115  1  0.64270706  0.63994078  0.29505500  1  1.550792  0  0.228243  0.607967  0  4.159428  0
O  O116  1  0.01194888  0.02980360  0.05378135  1  -1.235858  0  -0.571923  -1.027474  0  2.535621  0
O  O117  1  0.06235659  0.12380160  0.25830649  1  -1.181448  0  -0.316557  -0.547327  0  2.329639  0
O  O118  1  0.17639279  0.12077293  0.25547808  1  -1.176722  0  -0.315832  -0.547189  0  2.3545  0
O  O119  1  0.45443941  0.43277692  0.85141773  1  -1.166434  0  -0.317332  -0.550518  0  2.337864  0
O  O120  1  0.34382380  0.42893463  0.85981698  1  -1.171255  0  -0.314861  -0.543661  0  2.338804  0
O  O121  1  0.06905540  0.89010367  0.00554881  1  -1.176314  0  -0.316658  -0.550713  0  2.32902  0
O  O122  1  0.18100215  0.98952311  0.10957429  1  -1.162714  0  -0.315398  -0.543182  0  2.350831  0
O  O123  1  0.46676265  0.67637665  0.10878390  1  -1.176284  0  -0.316233  -0.548735  0  2.31957  0
O  O124  1  0.35401490  0.57835311  0.99487621  1  -1.182566  0  -0.316827  -0.547935  0  2.357294  0
O  O125  1  0.06415502  0.13544607  0.01306152  1  -1.1696  0  -0.316327  -0.54871  0  2.324444  0
O  O126  1  0.17727804  0.12846192  0.11367663  1  -1.176662  0  -0.31604  -0.54572  0  2.355777  0
O  O127  1  0.46264303  0.43873425  0.11257437  1  -1.172275  0  -0.316336  -0.549134  0  2.326971  0
O  O128  1  0.35118902  0.45503949  0.02233140  1  -1.164085  0  -0.317999  -0.548627  0  2.346822  0
O  O129  1  0.90756059  0.88540021  0.00073700  1  -1.169645  0  -0.3159  -0.54796  0  2.325971  0
O  O130  1  0.91026135  0.98293097  0.11032613  1  -1.176127  0  -0.316253  -0.548842  0  2.349113  0
O  O131  1  0.62059282  0.66734469  0.10021197  1  -1.172164  0  -0.31692  -0.552413  0  2.338908  0
O  O132  1  0.61360950  0.56736707  0.98951335  1  -1.163244  0  -0.315998  -0.545196  0  2.333641  0
O  O133  1  0.90078939  0.12205968  0.00237157  1  -1.167365  0  -0.317577  -0.55174  0  2.332175  0
O  O134  1  0.90337775  0.12063812  0.11022371  1  -1.154915  0  -0.315798  -0.546455  0  2.338278  0
O  O135  1  0.61575837  0.43073168  0.10286647  1  -1.173809  0  -0.316559  -0.548499  0  2.332894  0
O  O136  1  0.61310334  0.43092384  0.99429573  1  -1.165028  0  -0.31555  -0.548062  0  2.344293  0
O  O137  1  0.91226879  0.89164311  0.85435517  1  -1.18355  0  -0.316621  -0.550138  0  2.337931  0
O  O138  1  0.91517662  0.99091479  0.85609969  1  -1.183868  0  -0.315272  -0.547919  0  2.330605  0
O  O139  1  0.62365075  0.67187948  0.25687863  1  -1.156699  0  -0.316973  -0.549895  0  2.328558  0
O  O140  1  0.62380939  0.57346111  0.25704172  1  -1.18037  0  -0.315529  -0.548383  0  2.338391  0
O  O141  1  0.51550968  0.53136986  0.05794769  1  -1.217643  0  -0.572187  -1.027461  0  2.538129  0
