# generated using pymatgen
data_CuH4(CN)4
_symmetry_space_group_name_H-M   'P 1'
_cell_length_a   5.93006573
_cell_length_b   7.75306748
_cell_length_c   12.81826381
_cell_angle_alpha   90.00042302
_cell_angle_beta   89.99940135
_cell_angle_gamma   104.24035896
_symmetry_Int_Tables_number   1
_chemical_formula_structural   CuH4(CN)4
_chemical_formula_sum   'Cu4 H16 C16 N16'
_cell_volume   571.22615546
_cell_formula_units_Z   4
loop_
 _symmetry_equiv_pos_site_id
 _symmetry_equiv_pos_as_xyz
  1  'x, y, z'
loop_
 _atom_site_type_symbol
 _atom_site_label
 _atom_site_symmetry_multiplicity
 _atom_site_fract_x
 _atom_site_fract_y
 _atom_site_fract_z
 _atom_site_occupancy
 _atom_site_hle17_bader_spin_density
 _atom_site_hle17_ddec_charge
 _atom_site_hle17_ddec_spin_density
 _atom_site_hle17_ddec_sum_bond_order
 _atom_site_hle17_magmom
 _atom_site_hse06_10hf_bader_spin_density
 _atom_site_hse06_10hf_ddec_charge
 _atom_site_hse06_10hf_ddec_spin_density
 _atom_site_hse06_10hf_ddec_sum_bond_order
 _atom_site_hse06_10hf_magmom
 _atom_site_hse06_bader_spin_density
 _atom_site_hse06_ddec_charge
 _atom_site_hse06_ddec_spin_density
 _atom_site_hse06_ddec_sum_bond_order
 _atom_site_hse06_magmom
 _atom_site_pbe_bader_spin_density
 _atom_site_pbe_cm5_charge
 _atom_site_pbe_ddec_charge
 _atom_site_pbe_ddec_spin_density
 _atom_site_pbe_ddec_sum_bond_order
 _atom_site_pbe_magmom
Cu  Cu0  1  0.96542693  0.50065273  0.34707890  1  0  0.354839  0  2.433496  0  0  0.256324  0  2.961936  0  0  0.244872  0  2.922773  0  0  0.50673  0.26764  0  2.985409  0
Cu  Cu1  1  0.53458166  0.99934341  0.84708006  1  0  0.354905  0  2.433486  0  0  0.25642  0  2.961939  0  0  0.244977  0  2.92278  0  0  0.506748  0.26772  0  2.985403  0
Cu  Cu2  1  0.03457758  0.49934366  0.65292416  1  0  0.354716  0  2.433228  0  0  0.25615  0  2.961664  0  0  0.244717  0  2.922505  0  0  0.506655  0.26745  0  2.985124  0
Cu  Cu3  1  0.46541859  0.00066093  0.15292378  1  0  0.354827  0  2.433449  0  0  0.25632  0  2.961909  0  0  0.244906  0  2.922763  0  0  0.506705  0.267604  0  2.985355  0
H  H4  1  0.56058996  0.71265448  0.35963968  1  0  0.113451  0  0.949479  0  0  0.125763  0  1.009251  0  0  0.127743  0  1.006802  0  0  0.141288  0.12415  0  1.011248  0
H  H5  1  0.93941662  0.78734704  0.85964203  1  0  0.113482  0  0.949631  0  0  0.125825  0  1.009365  0  0  0.127805  0  1.006916  0  0  0.141309  0.124212  0  1.011361  0
H  H6  1  0.43942801  0.28735261  0.64036572  1  0  0.113544  0  0.949327  0  0  0.12584  0  1.009086  0  0  0.127817  0  1.006641  0  0  0.141322  0.124227  0  1.01108  0
H  H7  1  0.06056172  0.21264653  0.14036026  1  0  0.113518  0  0.949612  0  0  0.125874  0  1.009295  0  0  0.127852  0  1.006849  0  0  0.1413  0.12426  0  1.011291  0
H  H8  1  0.70920443  0.78627832  0.68058082  1  0  0.110272  0  0.944189  0  0  0.1167  0  1.012773  0  0  0.120134  0  1.008612  0  0  0.140028  0.114073  0  1.015858  0
H  H9  1  0.79080115  0.71373251  0.18057594  1  0  0.110365  0  0.944303  0  0  0.116781  0  1.012881  0  0  0.120215  0  1.008722  0  0  0.140055  0.114149  0  1.015966  0
H  H10  1  0.29080299  0.21372738  0.31942926  1  0  0.110378  0  0.944305  0  0  0.116795  0  1.012872  0  0  0.120234  0  1.008703  0  0  0.140096  0.114165  0  1.015954  0
H  H11  1  0.20919450  0.28626249  0.81943024  1  0  0.110397  0  0.944419  0  0  0.116813  0  1.012975  0  0  0.120252  0  1.008809  0  0  0.140082  0.114188  0  1.01605  0
H  H12  1  0.40807659  0.93350828  0.60962992  1  0  0.092999  0  0.943154  0  0  0.106606  0  1.008599  0  0  0.107141  0  1.008702  0  0  0.115615  0.106029  0  1.008754  0
H  H13  1  0.09191880  0.56649157  0.10962831  1  0  0.093012  0  0.943175  0  0  0.106613  0  1.008622  0  0  0.107149  0  1.008726  0  0  0.115609  0.106037  0  1.008772  0
H  H14  1  0.59194012  0.06650013  0.39037236  1  0  0.092967  0  0.943155  0  0  0.106523  0  1.00866  0  0  0.107076  0  1.008752  0  0  0.115607  0.105946  0  1.008811  0
H  H15  1  0.90805830  0.43349801  0.89037241  1  0  0.093018  0  0.943147  0  0  0.106535  0  1.008669  0  0  0.107087  0  1.008776  0  0  0.115611  0.105959  0  1.008816  0
H  H16  1  0.27523410  0.85003721  0.48846851  1  0  0.101927  0  0.918958  0  0  0.113271  0  0.982588  0  0  0.114537  0  0.982281  0  0  0.116527  0.112264  0  0.98294  0
H  H17  1  0.22476401  0.64995878  0.98846410  1  0  0.101909  0  0.91898  0  0  0.113282  0  0.982569  0  0  0.114549  0  0.982258  0  0  0.116509  0.112273  0  0.982921  0
H  H18  1  0.72478895  0.14996991  0.51153377  1  0  0.101823  0  0.918965  0  0  0.113202  0  0.982553  0  0  0.11448  0  0.982249  0  0  0.116502  0.11219  0  0.98291  0
H  H19  1  0.77520843  0.35003210  0.01153428  1  0  0.10187  0  0.919059  0  0  0.113231  0  0.982626  0  0  0.114513  0  0.982325  0  0  0.116503  0.112219  0  0.982981  0
C  C20  1  0.63880171  0.70293251  0.43526440  1  0  0.156893  0  3.609463  0  0  0.097814  0  3.869269  0  0  0.108953  0  3.882004  0  0  0.158241  0.090478  0  3.861007  0
C  C21  1  0.86121668  0.79706433  0.93525464  1  0  0.156825  0  3.608963  0  0  0.097681  0  3.868805  0  0  0.108823  0  3.881533  0  0  0.158096  0.090347  0  3.860538  0
C  C22  1  0.36121541  0.29707724  0.56472852  1  0  0.156632  0  3.609696  0  0  0.097558  0  3.869522  0  0  0.108695  0  3.882262  0  0  0.158096  0.090226  0  3.861251  0
C  C23  1  0.13876249  0.20293191  0.06474062  1  0  0.156663  0  3.60905  0  0  0.097544  0  3.86887  0  0  0.108681  0  3.881606  0  0  0.158127  0.090211  0  3.8606  0
C  C24  1  0.71481084  0.74037038  0.60089284  1  0  0.152932  0  3.625966  0  0  0.098696  0  3.880143  0  0  0.108391  0  3.894502  0  0  0.160849  0.092354  0  3.870791  0
C  C25  1  0.78518735  0.75962654  0.10090225  1  0  0.152859  0  3.625808  0  0  0.098626  0  3.879945  0  0  0.108315  0  3.894311  0  0  0.160795  0.092291  0  3.87059  0
C  C26  1  0.28518733  0.25962729  0.39910242  1  0  0.152896  0  3.625918  0  0  0.098689  0  3.880066  0  0  0.108381  0  3.894424  0  0  0.160776  0.092352  0  3.870716  0
C  C27  1  0.21481041  0.24036980  0.89909613  1  0  0.152722  0  3.625878  0  0  0.098498  0  3.880044  0  0  0.108191  0  3.894394  0  0  0.160724  0.092164  0  3.870689  0
C  C28  1  0.44061666  0.91245146  0.52694388  1  0  -0.021973  0  3.59822  0  0  -0.085215  0  3.852033  0  0  -0.082168  0  3.863861  0  0  -0.045953  -0.087076  0  3.844094  0
C  C29  1  0.05938105  0.58754913  0.02694095  1  0  -0.02195  0  3.598283  0  0  -0.085202  0  3.852043  0  0  -0.08215  0  3.863872  0  0  -0.045936  -0.087082  0  3.844145  0
C  C30  1  0.55940215  0.08755830  0.47305762  1  0  -0.021669  0  3.598152  0  0  -0.084865  0  3.851918  0  0  -0.081887  0  3.863804  0  0  -0.045918  -0.086739  0  3.844017  0
C  C31  1  0.94059735  0.41243382  0.97305743  1  0  -0.021854  0  3.598382  0  0  -0.084958  0  3.852076  0  0  -0.082  0  3.86399  0  0  -0.045927  -0.086837  0  3.844183  0
C  C32  1  0.78348619  0.33856432  0.25482772  1  0  -0.158506  0  3.562358  0  0  -0.169491  0  3.960787  0  0  -0.150567  0  3.949969  0  0  -0.087675  -0.182916  0  3.96744  0
C  C33  1  0.71650696  0.16142218  0.75483822  1  0  -0.158526  0  3.561605  0  0  -0.169514  0  3.960044  0  0  -0.150581  0  3.949217  0  0  -0.087753  -0.182951  0  3.966713  0
C  C34  1  0.21652628  0.66144673  0.74517846  1  0  -0.158139  0  3.562894  0  0  -0.169065  0  3.961216  0  0  -0.150161  0  3.95041  0  0  -0.087418  -0.182477  0  3.967865  0
C  C35  1  0.28349214  0.83856222  0.24516719  1  0  -0.15854  0  3.561789  0  0  -0.169541  0  3.960257  0  0  -0.150623  0  3.949447  0  0  -0.087692  -0.182952  0  3.96689  0
N  N36  1  0.78573047  0.60581919  0.45953470  1  0  -0.200137  0  3.200191  0  0  -0.157853  0  3.527284  0  0  -0.162551  0  3.530139  0  0  -0.26298  -0.155562  0  3.52587  0
N  N37  1  0.71427461  0.89419103  0.95953460  1  0  -0.200152  0  3.199704  0  0  -0.157859  0  3.526829  0  0  -0.162556  0  3.529685  0  0  -0.262948  -0.155563  0  3.525404  0
N  N38  1  0.21428925  0.39417729  0.54045978  1  0  -0.20003  0  3.200301  0  0  -0.157662  0  3.527302  0  0  -0.162366  0  3.53017  0  0  -0.262862  -0.155366  0  3.525883  0
N  N39  1  0.28571040  0.10581853  0.04046066  1  0  -0.199968  0  3.199551  0  0  -0.157663  0  3.526647  0  0  -0.16237  0  3.529517  0  0  -0.26283  -0.155364  0  3.525216  0
N  N40  1  0.83334325  0.62883867  0.56519716  1  0  -0.204504  0  3.211324  0  0  -0.158758  0  3.53367  0  0  -0.164099  0  3.537473  0  0  -0.262065  -0.156032  0  3.531626  0
N  N41  1  0.66665488  0.87116596  0.06519746  1  0  -0.204487  0  3.211225  0  0  -0.158713  0  3.533528  0  0  -0.164065  0  3.537351  0  0  -0.262016  -0.155989  0  3.531473  0
N  N42  1  0.16664647  0.37115896  0.43480044  1  0  -0.204561  0  3.211341  0  0  -0.158857  0  3.533683  0  0  -0.1642  0  3.537487  0  0  -0.262086  -0.156139  0  3.531649  0
N  N43  1  0.33335382  0.12883842  0.93480092  1  0  -0.204541  0  3.211153  0  0  -0.158804  0  3.533485  0  0  -0.164148  0  3.537296  0  0  -0.262068  -0.156083  0  3.531439  0
N  N44  1  0.59057302  0.78952143  0.52178500  1  0  -0.076549  0  3.549161  0  0  0.020398  0  3.765133  0  0  0.003636  0  3.791677  0  0  -0.229921  0.031418  0  3.747135  0
N  N45  1  0.90943666  0.71048428  0.02178507  1  0  -0.076558  0  3.549104  0  0  0.020398  0  3.765101  0  0  0.003635  0  3.791641  0  0  -0.22987  0.031417  0  3.747093  0
N  N46  1  0.40944202  0.21048166  0.47821416  1  0  -0.07664  0  3.549206  0  0  0.02029  0  3.765165  0  0  0.003542  0  3.791721  0  0  -0.229991  0.031308  0  3.747164  0
N  N47  1  0.09055179  0.28951467  0.97821097  1  0  -0.076466  0  3.549115  0  0  0.020449  0  3.765066  0  0  0.003709  0  3.791629  0  0  -0.229941  0.031467  0  3.747058  0
N  N48  1  0.67272408  0.22122328  0.20348297  1  0  -0.421637  0  3.339417  0  0  -0.364283  0  3.679553  0  0  -0.376046  0  3.680512  0  0  -0.450594  -0.35682  0  3.678457  0
N  N49  1  0.82727938  0.27879212  0.70348263  1  0  -0.42174  0  3.338628  0  0  -0.36438  0  3.678785  0  0  -0.376138  0  3.679724  0  0  -0.450619  -0.356921  0  3.677703  0
N  N50  1  0.32725931  0.77877563  0.79651229  1  0  -0.421872  0  3.340125  0  0  -0.36455  0  3.680237  0  0  -0.376304  0  3.681183  0  0  -0.450799  -0.357095  0  3.679157  0
N  N51  1  0.17272683  0.72120428  0.29651575  1  0  -0.421642  0  3.33879  0  0  -0.364278  0  3.678915  0  0  -0.376032  0  3.679859  0  0  -0.450646  -0.356825  0  3.677837  0
