# generated using pymatgen
data_MnH3C5N5O2
_symmetry_space_group_name_H-M   'P 1'
_cell_length_a   7.28983673
_cell_length_b   10.81089236
_cell_length_c   10.78207413
_cell_angle_alpha   90.00184206
_cell_angle_beta   89.99913759
_cell_angle_gamma   89.99985328
_symmetry_Int_Tables_number   1
_chemical_formula_structural   MnH3C5N5O2
_chemical_formula_sum   'Mn4 H12 C20 N20 O8'
_cell_volume   849.73138318
_cell_formula_units_Z   4
loop_
 _symmetry_equiv_pos_site_id
 _symmetry_equiv_pos_as_xyz
  1  'x, y, z'
loop_
 _atom_site_type_symbol
 _atom_site_label
 _atom_site_symmetry_multiplicity
 _atom_site_fract_x
 _atom_site_fract_y
 _atom_site_fract_z
 _atom_site_occupancy
 _atom_site_pbe_bader_charge
 _atom_site_pbe_bader_spin_density
 _atom_site_pbe_cm5_charge
 _atom_site_pbe_ddec_charge
 _atom_site_pbe_ddec_spin_density
 _atom_site_pbe_ddec_sum_bond_order
 _atom_site_pbe_magmom
Mn  Mn0  1  0.65813583  0.05713044  0.78245941  1  1.499494  4.436225  0.638409  0.849573  4.586875  2.598713  4.366
Mn  Mn1  1  0.84185687  0.94287160  0.28245308  1  1.499487  4.436222  0.638386  0.849515  4.586931  2.598688  4.366
Mn  Mn2  1  0.34186215  0.55713179  0.71753626  1  1.499432  4.436166  0.638412  0.849452  4.586788  2.599007  4.366
Mn  Mn3  1  0.15811789  0.44286969  0.21753874  1  1.49957  4.436421  0.638348  0.849542  4.587079  2.598295  4.366
H  H4  1  0.95398315  0.89159914  0.97483797  1  0.193691  0.001743  0.122954  0.104552  0.000497  1.052804  0.001
H  H5  1  0.54598038  0.10838500  0.47484001  1  0.192958  0.001745  0.122954  0.10451  0.000499  1.052737  0.001
H  H6  1  0.04602689  0.39158474  0.52516202  1  0.193632  0.001742  0.122967  0.104544  0.000497  1.052865  0.001
H  H7  1  0.45399328  0.60839486  0.02516883  1  0.194074  0.001743  0.122924  0.104536  0.000498  1.052775  0.001
H  H8  1  0.02734892  0.69912067  0.56979671  1  0.175252  0.00203  0.131353  0.11494  0.000703  0.992414  0.001
H  H9  1  0.47262220  0.30087331  0.06978691  1  0.175191  0.002031  0.131302  0.114818  0.000703  0.992397  0.001
H  H10  1  0.97265932  0.19913476  0.93019891  1  0.175365  0.002029  0.131356  0.114987  0.000702  0.99243  0.001
H  H11  1  0.52737384  0.80089327  0.43021610  1  0.175108  0.002033  0.131303  0.114792  0.000705  0.992247  0.001
H  H12  1  0.14878074  0.69931070  0.94660210  1  0.124163  0.001696  0.125328  0.096184  0.000612  1.013841  0.001
H  H13  1  0.35121044  0.30068146  0.44659997  1  0.124078  0.001696  0.125396  0.096274  0.000612  1.013893  0.001
H  H14  1  0.85122202  0.19930178  0.55338889  1  0.123658  0.001697  0.125335  0.096231  0.000613  1.013807  0.001
H  H15  1  0.64878285  0.80068645  0.05338912  1  0.123717  0.001695  0.125373  0.096286  0.000612  1.013904  0.001
C  C16  1  0.90527233  0.84694036  0.67629845  1  0.522798  0.008672  0.124719  0.062738  0.005431  3.953737  0.004
C  C17  1  0.59471871  0.15305273  0.17629868  1  0.523199  0.008664  0.124826  0.062706  0.005423  3.9543  0.004
C  C18  1  0.09473518  0.34693083  0.82369453  1  0.521925  0.00867  0.124831  0.062856  0.005428  3.953449  0.004
C  C19  1  0.40528766  0.65307221  0.32370789  1  0.522761  0.00866  0.124967  0.062996  0.005419  3.954123  0.004
C  C20  1  0.80840570  0.90611327  0.56864990  1  1.597988  0.022405  0.231032  0.558723  0.021629  4.199572  0.019
C  C21  1  0.69157825  0.09389857  0.06863893  1  1.59769  0.022408  0.231027  0.558778  0.02163  4.19998  0.019
C  C22  1  0.19159192  0.40609967  0.93136354  1  1.596693  0.022412  0.230948  0.558659  0.021626  4.199595  0.019
C  C23  1  0.30840510  0.59389386  0.43136573  1  1.598473  0.022404  0.231145  0.558632  0.021629  4.199362  0.019
C  C24  1  0.97116714  0.84792136  0.88438612  1  0.471965  0.006194  0.060668  0.05627  0.004505  3.888895  0.003
C  C25  1  0.52881084  0.15206358  0.38437398  1  0.473826  0.006177  0.060729  0.056279  0.004497  3.888707  0.003
C  C26  1  0.02883077  0.34791173  0.61561245  1  0.471906  0.00619  0.060648  0.056212  0.004502  3.889186  0.003
C  C27  1  0.47117358  0.65207632  0.11562792  1  0.47293  0.006179  0.06071  0.05629  0.004495  3.888582  0.003
C  C28  1  0.01201134  0.74111867  0.66086436  1  0.489973  0.011763  0.075186  0.06583  0.008959  3.851879  0.006
C  C29  1  0.48796864  0.25887915  0.16087438  1  0.490015  0.011756  0.075232  0.065954  0.008954  3.851765  0.006
C  C30  1  0.98799533  0.24111781  0.83913541  1  0.489936  0.011757  0.075112  0.06569  0.008954  3.852067  0.006
C  C31  1  0.51202760  0.75888234  0.33912170  1  0.489844  0.011758  0.075166  0.065888  0.008955  3.852058  0.006
C  C32  1  0.07824498  0.74217737  0.86854487  1  0.490315  0.018868  0.064604  0.06209  0.014548  3.890105  0.011
C  C33  1  0.42173430  0.25781877  0.36855087  1  0.489722  0.018858  0.064511  0.062059  0.014538  3.89004  0.011
C  C34  1  0.92175345  0.24217549  0.63145029  1  0.490656  0.018864  0.064554  0.061973  0.014546  3.890325  0.011
C  C35  1  0.57825372  0.75783744  0.13144518  1  0.489959  0.018861  0.064554  0.062021  0.014541  3.889818  0.011
N  N36  1  0.88439389  0.90055013  0.78817492  1  -1.215239  0.066251  -0.282467  -0.222593  0.049666  3.458209  0.038
N  N37  1  0.61559730  0.09946596  0.28816302  1  -1.216034  0.066234  -0.282488  -0.222454  0.049641  3.458984  0.038
N  N38  1  0.11561885  0.40053607  0.71181793  1  -1.214786  0.066254  -0.282459  -0.222522  0.049667  3.458068  0.038
N  N39  1  0.38441208  0.59947263  0.21184832  1  -1.215644  0.066209  -0.282578  -0.222716  0.049629  3.458873  0.038
N  N40  1  0.47223462  0.91265829  0.83051128  1  -0.200608  0.085083  -0.259019  -0.470967  0.0646  2.88638  0.036
N  N41  1  0.02775377  0.08734959  0.33050355  1  -0.200871  0.085066  -0.259038  -0.470938  0.064584  2.887339  0.036
N  N42  1  0.52775063  0.41265533  0.66948289  1  -0.200598  0.085066  -0.258896  -0.470674  0.064579  2.887456  0.036
N  N43  1  0.97223235  0.58736252  0.16949441  1  -0.200626  0.085106  -0.25912  -0.471064  0.064598  2.887399  0.036
N  N44  1  0.49377334  0.80595721  0.80907666  1  -0.371372  0.052308  0.096373  0.426967  0.034478  4.493613  0.038
N  N45  1  0.00620732  0.19403703  0.30907258  1  -0.370791  0.052308  0.096439  0.427045  0.034481  4.493914  0.038
N  N46  1  0.50622341  0.30597254  0.69092335  1  -0.37103  0.052313  0.096294  0.426931  0.034484  4.493949  0.038
N  N47  1  0.99378376  0.69405154  0.19092511  1  -0.371153  0.05228  0.096452  0.42703  0.034458  4.494636  0.038
N  N48  1  0.09983948  0.68877850  0.75682792  1  -1.223024  0.059386  -0.292171  -0.200724  0.04209  3.468935  0.029
N  N49  1  0.40016159  0.31121777  0.25684606  1  -1.22297  0.059337  -0.292142  -0.200767  0.042053  3.469071  0.029
N  N50  1  0.90017567  0.18878022  0.74317108  1  -1.22304  0.059379  -0.292148  -0.200649  0.042079  3.468967  0.029
N  N51  1  0.59984400  0.81121963  0.24316470  1  -1.223177  0.059363  -0.292153  -0.200716  0.042069  3.469182  0.029
N  N52  1  0.51731344  0.69925895  0.79029364  1  -0.185473  0.091719  -0.246971  -0.448874  0.069829  2.888688  0.042
N  N53  1  0.98265438  0.30074518  0.29028652  1  -0.185912  0.091741  -0.247047  -0.449078  0.069838  2.888043  0.042
N  N54  1  0.48268932  0.19926011  0.70971589  1  -0.185809  0.091735  -0.247012  -0.449145  0.069849  2.888049  0.042
N  N55  1  0.01733343  0.80074575  0.20970998  1  -0.185795  0.091701  -0.246937  -0.44882  0.069809  2.888573  0.042
O  O56  1  0.69684577  0.99292987  0.59306274  1  -1.179964  0.066978  -0.289376  -0.525276  0.048217  2.349091  0.037
O  O57  1  0.80315132  0.00705500  0.09306550  1  -1.17943  0.066994  -0.289534  -0.525587  0.048234  2.348114  0.037
O  O58  1  0.30316102  0.49294958  0.90693310  1  -1.178011  0.066985  -0.289368  -0.525415  0.048227  2.347808  0.037
O  O59  1  0.19687086  0.50705889  0.40695027  1  -1.179782  0.066978  -0.289498  -0.525304  0.048212  2.348616  0.037
O  O60  1  0.84435847  0.86405765  0.46150640  1  -1.18998  0.06871  -0.300674  -0.529411  0.047376  2.355842  0.03
O  O61  1  0.65567122  0.13592976  0.96151994  1  -1.190156  0.068703  -0.300518  -0.529156  0.047372  2.357324  0.03
O  O62  1  0.15568390  0.36405095  0.03847546  1  -1.190006  0.068682  -0.300512  -0.529153  0.047362  2.357254  0.03
O  O63  1  0.34434282  0.63595221  0.53850054  1  -1.190167  0.068703  -0.300702  -0.529346  0.047378  2.356422  0.03
