# generated using pymatgen
data_AgH7C6BrN
_symmetry_space_group_name_H-M   'P 1'
_cell_length_a   4.31664044
_cell_length_b   9.27132603
_cell_length_c   18.52733277
_cell_angle_alpha   90.00003038
_cell_angle_beta   90.00101858
_cell_angle_gamma   94.94484289
_symmetry_Int_Tables_number   1
_chemical_formula_structural   AgH7C6BrN
_chemical_formula_sum   'Ag4 H28 C24 Br4 N4'
_cell_volume   738.72233764
_cell_formula_units_Z   4
loop_
 _symmetry_equiv_pos_site_id
 _symmetry_equiv_pos_as_xyz
  1  'x, y, z'
loop_
 _atom_site_type_symbol
 _atom_site_label
 _atom_site_symmetry_multiplicity
 _atom_site_fract_x
 _atom_site_fract_y
 _atom_site_fract_z
 _atom_site_occupancy
 _atom_site_hle17_bader_spin_density
 _atom_site_hle17_ddec_charge
 _atom_site_hle17_ddec_spin_density
 _atom_site_hle17_ddec_sum_bond_order
 _atom_site_hle17_magmom
 _atom_site_hse06_10hf_bader_spin_density
 _atom_site_hse06_10hf_ddec_charge
 _atom_site_hse06_10hf_ddec_spin_density
 _atom_site_hse06_10hf_ddec_sum_bond_order
 _atom_site_hse06_10hf_magmom
 _atom_site_hse06_bader_spin_density
 _atom_site_hse06_ddec_charge
 _atom_site_hse06_ddec_spin_density
 _atom_site_hse06_ddec_sum_bond_order
 _atom_site_hse06_magmom
 _atom_site_pbe_bader_spin_density
 _atom_site_pbe_cm5_charge
 _atom_site_pbe_ddec_charge
 _atom_site_pbe_ddec_spin_density
 _atom_site_pbe_ddec_sum_bond_order
 _atom_site_pbe_magmom
Ag  Ag0  1  0.26447701  0.60946044  0.48741295  1  0  0.379057  0  1.735029  0  0  0.261354  0  2.246964  0  0  0.291047  0  2.192097  0  0  0.264694  0.240798  0  2.284593  0
Ag  Ag1  1  0.73551995  0.89053884  0.98740715  1  0  0.379072  0  1.735084  0  0  0.26138  0  2.247023  0  0  0.291068  0  2.192157  0  0  0.264705  0.240826  0  2.284658  0
Ag  Ag2  1  0.73551976  0.39053747  0.51258913  1  0  0.379031  0  1.735287  0  0  0.261342  0  2.247237  0  0  0.291037  0  2.192371  0  0  0.264687  0.240794  0  2.284866  0
Ag  Ag3  1  0.26447949  0.10945247  0.01258899  1  0  0.37903  0  1.735225  0  0  0.261338  0  2.247182  0  0  0.291031  0  2.192314  0  0  0.264652  0.240781  0  2.284819  0
H  H4  1  0.12225665  0.69505827  0.64784321  1  0  0.071421  0  0.958328  0  0  0.080998  0  1.024575  0  0  0.082915  0  1.02306  0  0  0.106148  0.079697  0  1.025452  0
H  H5  1  0.87772194  0.80495038  0.14783974  1  0  0.071454  0  0.958312  0  0  0.081039  0  1.024549  0  0  0.082955  0  1.023032  0  0  0.106185  0.07973  0  1.025424  0
H  H6  1  0.87773918  0.30492877  0.35216049  1  0  0.071414  0  0.958345  0  0  0.080992  0  1.024599  0  0  0.082907  0  1.023086  0  0  0.106167  0.079691  0  1.025478  0
H  H7  1  0.12227374  0.19506717  0.85216126  1  0  0.071417  0  0.958377  0  0  0.080973  0  1.024654  0  0  0.082888  0  1.023139  0  0  0.106179  0.079675  0  1.025534  0
H  H8  1  0.30656901  0.87121463  0.74428924  1  0  0.106763  0  0.968337  0  0  0.117487  0  1.029278  0  0  0.12066  0  1.028476  0  0  0.097237  0.115076  0  1.030383  0
H  H9  1  0.69343218  0.62879074  0.24428818  1  0  0.106768  0  0.968244  0  0  0.11753  0  1.029159  0  0  0.120703  0  1.028358  0  0  0.097248  0.115118  0  1.030259  0
H  H10  1  0.69342812  0.12877673  0.25571230  1  0  0.10679  0  0.968316  0  0  0.117542  0  1.029213  0  0  0.120717  0  1.028407  0  0  0.097255  0.115129  0  1.030318  0
H  H11  1  0.30656520  0.37121695  0.75571174  1  0  0.106796  0  0.96827  0  0  0.117521  0  1.029211  0  0  0.120696  0  1.028406  0  0  0.097252  0.115112  0  1.030311  0
H  H12  1  0.58377674  0.14625618  0.75760947  1  0  0.110075  0  0.975644  0  0  0.131419  0  1.038834  0  0  0.13221  0  1.040211  0  0  0.090016  0.130756  0  1.038022  0
H  H13  1  0.41624630  0.35374331  0.25760357  1  0  0.110141  0  0.975635  0  0  0.131478  0  1.038826  0  0  0.132264  0  1.040207  0  0  0.09002  0.130813  0  1.038015  0
H  H14  1  0.41620496  0.85373013  0.24239369  1  0  0.110041  0  0.975697  0  0  0.131437  0  1.038841  0  0  0.132235  0  1.040211  0  0  0.090014  0.130772  0  1.038031  0
H  H15  1  0.58378101  0.64626364  0.74239366  1  0  0.110092  0  0.975651  0  0  0.131428  0  1.038856  0  0  0.132226  0  1.040224  0  0  0.090006  0.130765  0  1.038044  0
H  H16  1  0.88068298  0.03200124  0.77415805  1  0  0.113841  0  0.958296  0  0  0.131661  0  1.028167  0  0  0.133321  0  1.027407  0  0  0.087476  0.130532  0  1.028784  0
H  H17  1  0.11933576  0.46799519  0.27415258  1  0  0.113836  0  0.958448  0  0  0.131696  0  1.028252  0  0  0.133355  0  1.02749  0  0  0.087427  0.130569  0  1.028867  0
H  H18  1  0.11930724  0.96799030  0.22584727  1  0  0.113796  0  0.958489  0  0  0.131637  0  1.028351  0  0  0.133296  0  1.02759  0  0  0.087466  0.130512  0  1.028962  0
H  H19  1  0.88066263  0.53200813  0.72584897  1  0  0.113785  0  0.958616  0  0  0.131664  0  1.028386  0  0  0.133325  0  1.027621  0  0  0.087452  0.130534  0  1.029002  0
H  H20  1  0.93946928  0.17449001  0.70879962  1  0  0.113928  0  0.961696  0  0  0.132714  0  1.026064  0  0  0.134618  0  1.025379  0  0  0.083789  0.131252  0  1.026701  0
H  H21  1  0.06055524  0.32551134  0.20879386  1  0  0.113988  0  0.961814  0  0  0.132771  0  1.026158  0  0  0.134672  0  1.025477  0  0  0.083738  0.131314  0  1.026787  0
H  H22  1  0.06052191  0.82550477  0.29120516  1  0  0.113882  0  0.961709  0  0  0.132692  0  1.026066  0  0  0.134592  0  1.025383  0  0  0.083734  0.131229  0  1.026702  0
H  H23  1  0.93945465  0.67449169  0.79120283  1  0  0.113922  0  0.96181  0  0  0.132696  0  1.026185  0  0  0.134595  0  1.025505  0  0  0.083731  0.131236  0  1.026817  0
H  H24  1  0.93454827  0.07977293  0.58829062  1  0  0.100799  0  0.977022  0  0  0.108851  0  1.04639  0  0  0.112132  0  1.045168  0  0  0.094219  0.106624  0  1.047145  0
H  H25  1  0.06545908  0.42022488  0.08828382  1  0  0.100813  0  0.976966  0  0  0.108848  0  1.046361  0  0  0.112119  0  1.045145  0  0  0.094192  0.106619  0  1.047119  0
H  H26  1  0.06545282  0.92021616  0.41171470  1  0  0.100852  0  0.97716  0  0  0.108936  0  1.04645  0  0  0.112215  0  1.04523  0  0  0.094244  0.106708  0  1.047206  0
H  H27  1  0.93455312  0.57977809  0.91171340  1  0  0.100871  0  0.9772  0  0  0.108952  0  1.046488  0  0  0.11223  0  1.04527  0  0  0.094271  0.106724  0  1.047246  0
H  H28  1  0.73390804  0.89050145  0.49887541  1  0  0.065046  0  0.96729  0  0  0.073673  0  1.035935  0  0  0.075686  0  1.034318  0  0  0.103617  0.072285  0  1.036917  0
H  H29  1  0.26609538  0.60950099  0.99887136  1  0  0.064903  0  0.967513  0  0  0.073586  0  1.036089  0  0  0.075598  0  1.034472  0  0  0.103584  0.072204  0  1.037064  0
H  H30  1  0.26609434  0.10949196  0.50112937  1  0  0.064965  0  0.967423  0  0  0.073672  0  1.035979  0  0  0.075686  0  1.03436  0  0  0.103577  0.072291  0  1.036952  0
H  H31  1  0.73390725  0.39050875  0.00112641  1  0  0.064969  0  0.967484  0  0  0.073677  0  1.036021  0  0  0.07569  0  1.034403  0  0  0.103603  0.072289  0  1.037  0
C  C32  1  0.30292152  0.78184845  0.63691866  1  0  0.11908  0  3.742346  0  0  0.090039  0  3.990947  0  0  0.097196  0  4.010698  0  0  0.03631  0.085523  0  3.976932  0
C  C33  1  0.69708685  0.71815394  0.13691441  1  0  0.119256  0  3.742199  0  0  0.090219  0  3.990825  0  0  0.097379  0  4.010574  0  0  0.036394  0.085713  0  3.976797  0
C  C34  1  0.69708417  0.21814052  0.36308666  1  0  0.119304  0  3.742224  0  0  0.090242  0  3.990838  0  0  0.097405  0  4.010589  0  0  0.036427  0.085724  0  3.976822  0
C  C35  1  0.30291251  0.28185262  0.86308551  1  0  0.119333  0  3.742517  0  0  0.090309  0  3.991108  0  0  0.097469  0  4.010856  0  0  0.036414  0.085789  0  3.977103  0
C  C36  1  0.40600843  0.88011770  0.69011111  1  0  -0.184206  0  3.70308  0  0  -0.19622  0  3.937403  0  0  -0.204934  0  3.959184  0  0  -0.08883  -0.190314  0  3.922773  0
C  C37  1  0.59398332  0.61988542  0.19010479  1  0  -0.184314  0  3.702967  0  0  -0.196459  0  3.937294  0  0  -0.205177  0  3.959078  0  0  -0.088904  -0.190549  0  3.922651  0
C  C38  1  0.59399694  0.11987020  0.30989259  1  0  -0.18441  0  3.702934  0  0  -0.196509  0  3.937212  0  0  -0.205224  0  3.958987  0  0  -0.088979  -0.190601  0  3.922575  0
C  C39  1  0.40598941  0.38011745  0.80989298  1  0  -0.184398  0  3.703086  0  0  -0.196398  0  3.937424  0  0  -0.205113  0  3.959201  0  0  -0.088963  -0.190491  0  3.922791  0
C  C40  1  0.64097518  0.98943741  0.67431334  1  0  0.20819  0  3.727068  0  0  0.231751  0  3.955271  0  0  0.237668  0  3.977733  0  0  0.013734  0.228038  0  3.939017  0
C  C41  1  0.35902655  0.51056428  0.17430492  1  0  0.20816  0  3.72701  0  0  0.231941  0  3.954939  0  0  0.23786  0  3.977395  0  0  0.013753  0.228227  0  3.938686  0
C  C42  1  0.35901371  0.01055743  0.32569145  1  0  0.208013  0  3.727052  0  0  0.231741  0  3.955049  0  0  0.237656  0  3.977516  0  0  0.013675  0.228029  0  3.938791  0
C  C43  1  0.64097248  0.48944120  0.82568852  1  0  0.207925  0  3.726752  0  0  0.231458  0  3.955023  0  0  0.237372  0  3.97749  0  0  0.013651  0.227747  0  3.93877  0
C  C44  1  0.76933180  0.09185554  0.73132220  1  0  -0.34642  0  3.704275  0  0  -0.424553  0  3.932848  0  0  -0.427844  0  3.94126  0  0  -0.243433  -0.421878  0  3.926882  0
C  C45  1  0.23068101  0.40813970  0.23131932  1  0  -0.346623  0  3.70449  0  0  -0.424808  0  3.932921  0  0  -0.428088  0  3.941331  0  0  -0.243395  -0.422143  0  3.926957  0
C  C46  1  0.23065548  0.90813390  0.26867988  1  0  -0.346258  0  3.704358  0  0  -0.424551  0  3.932871  0  0  -0.427838  0  3.941282  0  0  -0.243349  -0.421883  0  3.9269  0
C  C47  1  0.76933575  0.59187078  0.76867412  1  0  -0.346231  0  3.704397  0  0  -0.424409  0  3.932982  0  0  -0.427697  0  3.941387  0  0  -0.2433  -0.421733  0  3.927019  0
C  C48  1  0.75585375  0.99492994  0.60365473  1  0  -0.185551  0  3.716649  0  0  -0.202431  0  3.958625  0  0  -0.211687  0  3.981561  0  0  -0.091241  -0.196564  0  3.94277  0
C  C49  1  0.24415500  0.50507442  0.10364907  1  0  -0.185389  0  3.71674  0  0  -0.202327  0  3.958636  0  0  -0.211574  0  3.981579  0  0  -0.091139  -0.196462  0  3.942785  0
C  C50  1  0.24413647  0.00506160  0.39635006  1  0  -0.185405  0  3.717048  0  0  -0.202344  0  3.958917  0  0  -0.2116  0  3.981854  0  0  -0.091159  -0.19648  0  3.943065  0
C  C51  1  0.75585223  0.49493521  0.89635193  1  0  -0.185536  0  3.716865  0  0  -0.202418  0  3.958857  0  0  -0.211675  0  3.981795  0  0  -0.091254  -0.196554  0  3.943007  0
C  C52  1  0.64350493  0.89119581  0.55376818  1  0  0.119202  0  3.745481  0  0  0.091532  0  3.994527  0  0  0.09837  0  4.014799  0  0  0.035861  0.087106  0  3.981047  0
C  C53  1  0.35649569  0.60880956  0.05376195  1  0  0.11922  0  3.745424  0  0  0.091524  0  3.994485  0  0  0.098364  0  4.014758  0  0  0.035807  0.08709  0  3.981006  0
C  C54  1  0.35649846  0.10879322  0.44623498  1  0  0.119108  0  3.745579  0  0  0.091369  0  3.994638  0  0  0.098212  0  4.014913  0  0  0.035773  0.08694  0  3.981153  0
C  C55  1  0.64350265  0.39120138  0.94623474  1  0  0.119165  0  3.745585  0  0  0.091449  0  3.994635  0  0  0.098286  0  4.014909  0  0  0.03581  0.087025  0  3.981156  0
Br  Br56  1  0.21623607  0.38800355  0.60069896  1  0  -0.487077  0  1.252288  0  0  -0.400389  0  1.63278  0  0  -0.423545  0  1.599102  0  0  -0.242601  -0.384443  0  1.655482  0
Br  Br57  1  0.78377546  0.11200511  0.10069773  1  0  -0.48706  0  1.252206  0  0  -0.400386  0  1.632727  0  0  -0.423537  0  1.599042  0  0  -0.242572  -0.384418  0  1.655395  0
Br  Br58  1  0.78380634  0.61194530  0.39929233  1  0  -0.48709  0  1.252134  0  0  -0.400412  0  1.632621  0  0  -0.423553  0  1.598913  0  0  -0.2426  -0.384444  0  1.655282  0
Br  Br59  1  0.21618576  0.88806012  0.89928870  1  0  -0.48709  0  1.252271  0  0  -0.400388  0  1.632743  0  0  -0.423522  0  1.599025  0  0  -0.242581  -0.384422  0  1.655411  0
N  N60  1  0.42112621  0.78531370  0.56961834  1  0  -0.304129  0  3.3027  0  0  -0.227888  0  3.583161  0  0  -0.247824  0  3.601441  0  0  -0.346991  -0.214502  0  3.570298  0
N  N61  1  0.57888218  0.71469811  0.06961306  1  0  -0.304188  0  3.302675  0  0  -0.227986  0  3.583197  0  0  -0.247927  0  3.601477  0  0  -0.347008  -0.214604  0  3.570339  0
N  N62  1  0.57886829  0.21467665  0.43038428  1  0  -0.304063  0  3.302677  0  0  -0.227819  0  3.583158  0  0  -0.247766  0  3.601447  0  0  -0.34694  -0.214439  0  3.570298  0
N  N63  1  0.42112958  0.28532666  0.93038308  1  0  -0.30408  0  3.30277  0  0  -0.227864  0  3.583249  0  0  -0.247799  0  3.601528  0  0  -0.346954  -0.214482  0  3.570395  0
