# generated using pymatgen
data_CuH25C33N5O4
_symmetry_space_group_name_H-M   'P 1'
_cell_length_a   10.94115943
_cell_length_b   16.10085269
_cell_length_c   18.23603827
_cell_angle_alpha   90.00010715
_cell_angle_beta   98.14939830
_cell_angle_gamma   89.99993612
_symmetry_Int_Tables_number   1
_chemical_formula_structural   CuH25C33N5O4
_chemical_formula_sum   'Cu4 H100 C132 N20 O16'
_cell_volume   3180.05650095
_cell_formula_units_Z   4
loop_
 _symmetry_equiv_pos_site_id
 _symmetry_equiv_pos_as_xyz
  1  'x, y, z'
loop_
 _atom_site_type_symbol
 _atom_site_label
 _atom_site_symmetry_multiplicity
 _atom_site_fract_x
 _atom_site_fract_y
 _atom_site_fract_z
 _atom_site_occupancy
 _atom_site_pbe_bader_charge
 _atom_site_pbe_bader_spin_density
 _atom_site_pbe_cm5_charge
 _atom_site_pbe_ddec_charge
 _atom_site_pbe_ddec_spin_density
 _atom_site_pbe_ddec_sum_bond_order
 _atom_site_pbe_magmom
Cu  Cu0  1  0.80180553  0.79807680  0.10928475  1  1.060707  -0.582491  0.746764  0.720234  -0.762345  2.309154  -0.581
Cu  Cu1  1  0.19819180  0.29807834  0.39071359  1  1.060703  0.582481  0.746738  0.72016  0.762336  2.309187  0.581
Cu  Cu2  1  0.19819048  0.20192247  0.89071591  1  1.060775  -0.582491  0.746761  0.720226  -0.762344  2.309137  -0.581
Cu  Cu3  1  0.80181061  0.70192217  0.60928481  1  1.060675  0.582487  0.746747  0.720179  0.762344  2.309212  0.581
H  H4  1  0.79471155  0.95740865  0.03023959  1  0.142222  -0.00141  0.11971  0.104754  -0.000679  1.03414  -0.001
H  H5  1  0.20528637  0.45741159  0.46975302  1  0.141322  0.001411  0.119696  0.104708  0.000679  1.034146  0.001
H  H6  1  0.20528254  0.04258813  0.96975762  1  0.142217  -0.00141  0.119667  0.104709  -0.000679  1.034153  -0.001
H  H7  1  0.79470208  0.54259202  0.53023937  1  0.141754  0.001411  0.119707  0.104698  0.000679  1.034095  0.001
H  H8  1  0.50951727  0.11110707  0.10109169  1  0.090653  -0.000167  0.103673  0.103472  -7.7e-05  1.031921  0.0
H  H9  1  0.49048780  0.61111072  0.39891188  1  0.09055  0.000167  0.103714  0.103523  7.7e-05  1.031891  0.0
H  H10  1  0.49048429  0.88889157  0.89890994  1  0.090623  -0.000167  0.103686  0.103468  -7.7e-05  1.031901  0.0
H  H11  1  0.50951483  0.38889227  0.60109642  1  0.090521  0.000167  0.103668  0.103435  7.7e-05  1.031977  0.0
H  H12  1  0.58055442  0.85858928  0.17711649  1  0.167277  -0.001241  0.113712  0.099369  -0.000554  1.053431  -0.001
H  H13  1  0.41945483  0.35859175  0.32288233  1  0.167273  0.001241  0.113735  0.099391  0.000554  1.053481  0.001
H  H14  1  0.41943784  0.14140812  0.82288114  1  0.167269  -0.001241  0.113707  0.099332  -0.000554  1.053436  -0.001
H  H15  1  0.58055606  0.64141000  0.67712441  1  0.167129  0.001242  0.1137  0.099358  0.000554  1.053469  0.001
H  H16  1  0.34631159  0.87871251  0.16929687  1  0.087686  -2.2e-05  0.096519  0.097789  -5e-06  1.054965  0.0
H  H17  1  0.65369852  0.37871669  0.33070040  1  0.087492  2.2e-05  0.096537  0.09783  5e-06  1.054816  0.0
H  H18  1  0.65368899  0.12128613  0.83070195  1  0.087672  -2.2e-05  0.096502  0.097793  -5e-06  1.05485  0.0
H  H19  1  0.34631230  0.62128258  0.66930304  1  0.087506  2.2e-05  0.096522  0.097828  5e-06  1.054831  0.0
H  H20  1  0.17757171  0.90506716  0.24368087  1  0.053139  5.7e-05  0.096914  0.09827  3.8e-05  1.008331  0.0
H  H21  1  0.82243183  0.40506981  0.25631264  1  0.053194  -5.7e-05  0.096906  0.098312  -3.8e-05  1.008266  0.0
H  H22  1  0.82242889  0.09493210  0.75631904  1  0.053173  5.7e-05  0.09693  0.098336  3.8e-05  1.008344  0.0
H  H23  1  0.17756962  0.59492759  0.74368405  1  0.053272  -5.6e-05  0.096945  0.098339  -3.8e-05  1.008294  0.0
H  H24  1  0.16955396  0.03978636  0.31180025  1  0.08857  0.000124  0.097797  0.101516  0.000101  1.016357  0.0
H  H25  1  0.83044731  0.53979179  0.18819413  1  0.088539  -0.000124  0.09784  0.101644  -0.000101  1.016334  0.0
H  H26  1  0.83044755  0.96021167  0.68819919  1  0.088647  0.000124  0.097791  0.101544  0.000101  1.016315  0.0
H  H27  1  0.16954855  0.46020437  0.81179993  1  0.088582  -0.000124  0.097821  0.101639  -0.000101  1.016233  0.0
H  H28  1  0.49499644  0.12171907  0.22776330  1  0.090018  4.1e-05  0.096444  0.094928  1.7e-05  1.05232  0.0
H  H29  1  0.50501417  0.62172493  0.27224125  1  0.089849  -4.1e-05  0.096464  0.094949  -1.7e-05  1.052266  0.0
H  H30  1  0.50500792  0.87827833  0.77223964  1  0.090018  4.1e-05  0.096439  0.09492  1.7e-05  1.052298  0.0
H  H31  1  0.49499772  0.37827495  0.72776885  1  0.089942  -4.1e-05  0.096374  0.094883  -1.7e-05  1.052305  0.0
H  H32  1  0.50444188  0.16699201  0.99140296  1  0.060169  0.000109  0.098249  0.098366  8e-05  1.030918  0.0
H  H33  1  0.49555830  0.66699297  0.50859654  1  0.060095  -0.000109  0.098255  0.09841  -8e-05  1.030877  0.0
H  H34  1  0.49555231  0.83300229  0.00859865  1  0.060086  0.000109  0.098274  0.09841  8e-05  1.030891  0.0
H  H35  1  0.50443956  0.33300319  0.49140481  1  0.060319  -0.000109  0.098241  0.09835  -8e-05  1.030901  0.0
H  H36  1  0.55833128  0.27647616  0.90733951  1  0.081788  -0.000136  0.098463  0.103235  -6.3e-05  1.014709  0.0
H  H37  1  0.44167067  0.77647424  0.59266304  1  0.081774  0.000136  0.098442  0.103189  6.3e-05  1.014753  0.0
H  H38  1  0.44166200  0.72352000  0.09266257  1  0.081385  -0.000136  0.098454  0.1032  -6.3e-05  1.014763  0.0
H  H39  1  0.55833555  0.22352068  0.40734114  1  0.081809  0.000136  0.098453  0.103247  6.3e-05  1.014765  0.0
H  H40  1  0.77611053  0.28854373  0.87909292  1  0.087451  -0.000302  0.098807  0.102027  -0.000228  1.003954  0.0
H  H41  1  0.22389326  0.78854204  0.62091035  1  0.08626  0.000301  0.098803  0.102017  0.000228  1.003938  0.0
H  H42  1  0.22388273  0.71145553  0.12090862  1  0.086104  -0.000302  0.098789  0.101974  -0.000228  1.003988  0.0
H  H43  1  0.77611387  0.21145723  0.37909336  1  0.086298  0.000302  0.098821  0.102028  0.000228  1.003915  0.0
H  H44  1  0.87789939  0.07235112  0.00942471  1  0.075547  -0.000123  0.104666  0.114573  -6.9e-05  1.017038  0.0
H  H45  1  0.12210375  0.57235028  0.49057261  1  0.075561  0.000123  0.104673  0.114585  6.9e-05  1.01706  0.0
H  H46  1  0.12209934  0.92764876  0.99057396  1  0.075565  -0.000123  0.10466  0.114572  -6.9e-05  1.017019  0.0
H  H47  1  0.87789221  0.42765395  0.50942584  1  0.07545  0.000123  0.104622  0.114552  6.9e-05  1.017067  0.0
H  H48  1  0.64928382  0.65407135  0.02462035  1  0.163973  -0.000415  0.136851  0.113649  -0.000106  1.004581  0.0
H  H49  1  0.35070808  0.15407171  0.47537404  1  0.163174  0.000415  0.136925  0.11365  0.000106  1.00466  0.0
H  H50  1  0.35071487  0.34592667  0.97537667  1  0.163172  -0.000415  0.136854  0.113578  -0.000106  1.004686  0.0
H  H51  1  0.64928325  0.84592569  0.52462351  1  0.163758  0.000415  0.136869  0.113572  0.000106  1.004677  0.0
H  H52  1  0.69229388  0.77250006  0.82233478  1  0.191901  -0.001044  0.120277  0.129661  -0.000542  1.063268  -0.001
H  H53  1  0.30770609  0.27250169  0.67766158  1  0.191907  0.001044  0.120286  0.129657  0.000542  1.063148  0.001
H  H54  1  0.30770579  0.22750106  0.17766451  1  0.191921  -0.001044  0.120263  0.129643  -0.000542  1.06321  -0.001
H  H55  1  0.69229721  0.72750192  0.32233580  1  0.191948  0.001044  0.120278  0.129656  0.000542  1.063208  0.001
H  H56  1  0.81760004  0.86290219  0.94241094  1  0.128827  -0.000884  0.12326  0.126406  -0.000393  1.001854  -0.001
H  H57  1  0.18240172  0.36290552  0.55758790  1  0.128697  0.000884  0.123261  0.126342  0.000393  1.001838  0.001
H  H58  1  0.18239783  0.13709770  0.05759040  1  0.128779  -0.000884  0.123278  0.12639  -0.000393  1.00181  -0.001
H  H59  1  0.81760712  0.63709871  0.44240936  1  0.128732  0.000884  0.123305  0.126464  0.000393  1.001743  0.001
H  H60  1  0.58506498  0.57351258  0.89296021  1  0.040471  3.9e-05  0.114514  0.097029  2.4e-05  0.964095  0.0
H  H61  1  0.41493323  0.07351336  0.60702801  1  0.040334  -3.9e-05  0.114539  0.097051  -2.4e-05  0.96406  0.0
H  H62  1  0.41493272  0.42648731  0.10703345  1  0.040367  3.9e-05  0.114522  0.096987  2.4e-05  0.964123  0.0
H  H63  1  0.58506540  0.92648715  0.39296626  1  0.040393  -3.9e-05  0.11452  0.096995  -2.4e-05  0.964111  0.0
H  H64  1  0.58843732  0.63525767  0.81234130  1  0.080686  -0.000335  0.121192  0.114564  -0.000184  0.977008  0.0
H  H65  1  0.41155812  0.13525179  0.68765065  1  0.080862  0.000335  0.121199  0.114659  0.000184  0.976872  0.0
H  H66  1  0.41156135  0.36474718  0.18765462  1  0.080764  -0.000335  0.121175  0.114614  -0.000184  0.976899  0.0
H  H67  1  0.58843872  0.86474499  0.31234623  1  0.080799  0.000335  0.121174  0.114598  0.000184  0.976942  0.0
H  H68  1  0.43549420  0.75338747  0.78582622  1  0.113  -1.3e-05  0.104006  0.114097  -5e-06  1.024676  0.0
H  H69  1  0.56450026  0.25338712  0.71416969  1  0.113055  1.3e-05  0.104057  0.114153  5e-06  1.024588  0.0
H  H70  1  0.56450356  0.24661304  0.21417018  1  0.113057  -1.3e-05  0.104026  0.114122  -5e-06  1.024654  0.0
H  H71  1  0.43549845  0.74661277  0.28582844  1  0.113013  1.3e-05  0.104002  0.114088  5e-06  1.024637  0.0
H  H72  1  0.22151546  0.80171606  0.79399716  1  0.065669  -6e-06  0.102207  0.101408  -6e-06  0.992741  0.0
H  H73  1  0.77847999  0.30171614  0.70600439  1  0.065652  6e-06  0.102198  0.101402  6e-06  0.99278  0.0
H  H74  1  0.77848237  0.19828569  0.20600254  1  0.065497  -6e-06  0.10221  0.101449  -6e-06  0.992777  0.0
H  H75  1  0.22151782  0.69828622  0.29399421  1  0.065465  6e-06  0.102199  0.101434  6e-06  0.992703  0.0
H  H76  1  0.19136300  0.62034262  0.96404328  1  0.056375  1.6e-05  0.102858  0.101468  1.1e-05  0.99336  0.0
H  H77  1  0.80863907  0.12034357  0.53595573  1  0.056348  -1.6e-05  0.102863  0.101461  -1.1e-05  0.993359  0.0
H  H78  1  0.80863944  0.37965850  0.03595677  1  0.056357  1.6e-05  0.102901  0.101528  1.1e-05  0.993347  0.0
H  H79  1  0.19136059  0.87965631  0.46404356  1  0.056347  -1.6e-05  0.102877  0.101506  -1.1e-05  0.993414  0.0
H  H80  1  0.40509759  0.57286120  0.95637449  1  0.052764  8e-06  0.098053  0.092851  2e-06  1.003363  0.0
H  H81  1  0.59490540  0.07286233  0.54362123  1  0.052591  -8e-06  0.098027  0.092837  -2e-06  1.00334  0.0
H  H82  1  0.59490571  0.42713931  0.04362234  1  0.052584  8e-06  0.098026  0.092824  2e-06  1.00333  0.0
H  H83  1  0.40509518  0.92713880  0.45637758  1  0.052596  -8e-06  0.098029  0.092828  -2e-06  1.003311  0.0
H  H84  1  0.03021988  0.72374836  0.93515333  1  0.124838  0.000247  0.118608  0.111866  0.000156  0.97633  0.0
H  H85  1  0.96977838  0.22374987  0.56484611  1  0.124858  -0.000247  0.1186  0.111889  -0.000156  0.976268  0.0
H  H86  1  0.96978164  0.27625215  0.06484666  1  0.124841  0.000247  0.118601  0.11183  0.000156  0.976395  0.0
H  H87  1  0.03022218  0.77625064  0.43515215  1  0.124879  -0.000247  0.118596  0.111866  -0.000156  0.976312  0.0
H  H88  1  0.04826748  0.80718797  0.87442922  1  0.104677  2e-05  0.120696  0.108776  1e-05  0.963009  0.0
H  H89  1  0.95172979  0.30718962  0.62557192  1  0.104632  -2e-05  0.12074  0.108778  -9e-06  0.962903  0.0
H  H90  1  0.95173316  0.19281254  0.12557234  1  0.104669  2e-05  0.120704  0.108769  1e-05  0.963029  0.0
H  H91  1  0.04826985  0.69281213  0.37442627  1  0.104649  -2e-05  0.120754  0.108785  -9e-06  0.962982  0.0
H  H92  1  0.95349338  0.79509744  0.73867214  1  0.154996  0.000512  0.145264  0.120713  0.000154  0.975897  0.0
H  H93  1  0.04650020  0.29509882  0.76132815  1  0.154944  -0.000512  0.145239  0.120661  -0.000154  0.975921  0.0
H  H94  1  0.04650258  0.20490369  0.26132631  1  0.154995  0.000512  0.14526  0.120681  0.000154  0.975929  0.0
H  H95  1  0.95349764  0.70490293  0.23867210  1  0.154986  -0.000512  0.145254  0.120647  -0.000154  0.975919  0.0
H  H96  1  0.96013816  0.57763455  0.87016071  1  0.080274  0.001337  0.128936  0.131085  0.000678  0.987236  0.001
H  H97  1  0.03986674  0.07763691  0.62983846  1  0.080162  -0.001337  0.128935  0.131109  -0.000678  0.987189  -0.001
H  H98  1  0.03986613  0.42236719  0.12983949  1  0.080261  0.001337  0.128932  0.131057  0.000678  0.987212  0.001
H  H99  1  0.96013477  0.92236484  0.37016098  1  0.080159  -0.001337  0.128945  0.131116  -0.000678  0.987244  -0.001
H  H100  1  0.82597564  0.54797268  0.73096538  1  0.100773  0.00099  0.120681  0.115402  0.000431  1.002953  0.001
H  H101  1  0.17402558  0.04797460  0.76903235  1  0.100781  -0.00099  0.120639  0.115363  -0.000431  1.002932  -0.001
H  H102  1  0.17403049  0.45202659  0.26903441  1  0.100713  0.00099  0.120651  0.11539  0.000431  1.002948  0.001
H  H103  1  0.82596857  0.95202591  0.23096761  1  0.100946  -0.00099  0.120646  0.115356  -0.000431  1.002991  -0.001
C  C104  1  0.71798652  0.96852489  0.06100902  1  0.477054  0.001107  0.044451  0.029507  0.000179  3.898825  0.001
C  C105  1  0.28201791  0.46852771  0.43898686  1  0.478081  -0.001108  0.044392  0.029476  -0.000179  3.898861  -0.001
C  C106  1  0.28201315  0.03147126  0.93899027  1  0.476886  0.001106  0.044443  0.029504  0.000179  3.898868  0.001
C  C107  1  0.71797710  0.53147465  0.56101042  1  0.4776  -0.001107  0.044365  0.029478  -0.000179  3.898756  -0.001
C  C108  1  0.65488878  0.04462540  0.05718792  1  0.027762  -0.004705  -0.005061  0.035553  -0.003217  4.008246  -0.004
C  C109  1  0.34511536  0.54462615  0.44281162  1  0.028633  0.004704  -0.005055  0.035616  0.003216  4.008414  0.004
C  C110  1  0.34511001  0.95537200  0.94281349  1  0.027876  -0.004704  -0.00497  0.035728  -0.003216  4.008371  -0.004
C  C111  1  0.65488343  0.45537498  0.55718980  1  0.028712  0.004704  -0.005007  0.035526  0.003216  4.008342  0.004
C  C112  1  0.56086940  0.05304180  0.10130254  1  -0.121467  0.003099  -0.069962  -0.134248  0.00207  3.90136  0.002
C  C113  1  0.43913662  0.55304425  0.39869936  1  -0.121543  -0.003098  -0.070009  -0.134424  -0.002069  3.901472  -0.002
C  C114  1  0.43913034  0.94695622  0.89870005  1  -0.121563  0.003099  -0.069977  -0.134341  0.00207  3.901395  0.002
C  C115  1  0.56086687  0.44695811  0.60130626  1  -0.121561  -0.003098  -0.069978  -0.134106  -0.002069  3.901435  -0.002
C  C116  1  0.53093360  0.98739114  0.14590105  1  0.032761  -0.004434  -0.00367  0.0398  -0.003049  4.001815  -0.004
C  C117  1  0.46907461  0.48739488  0.35410009  1  0.032712  0.004434  -0.003694  0.03984  0.003049  4.001835  0.004
C  C118  1  0.46906610  0.01260689  0.85409989  1  0.032466  -0.004435  -0.003711  0.039828  -0.003049  4.001892  -0.004
C  C119  1  0.53093534  0.51260749  0.64590548  1  0.035661  0.004427  -0.003659  0.039633  0.003049  4.001809  0.004
C  C120  1  0.59799172  0.91335963  0.14467075  1  0.429832  0.000669  0.041166  0.015604  -0.000227  3.928637  0.0
C  C121  1  0.40201837  0.41336218  0.35532767  1  0.429432  -0.000669  0.04106  0.015481  0.000227  3.928998  0.0
C  C122  1  0.40200702  0.08663715  0.85532847  1  0.430032  0.00067  0.041182  0.015627  -0.000227  3.928703  0.0
C  C123  1  0.59799154  0.58663957  0.64467625  1  0.427086  -0.000661  0.041113  0.015643  0.000227  3.92882  0.0
C  C124  1  0.43296796  0.99824282  0.19305685  1  -0.007117  -9.2e-05  -0.015497  0.059799  -8.8e-05  4.019198  0.0
C  C125  1  0.56704301  0.49824763  0.30694452  1  -0.006778  9.2e-05  -0.015549  0.059787  8.8e-05  4.01902  0.0
C  C126  1  0.56703453  0.00175520  0.80694485  1  -0.006988  -9.2e-05  -0.015531  0.059788  -8.8e-05  4.019246  0.0
C  C127  1  0.43296790  0.50175287  0.69306332  1  -0.006779  9.2e-05  -0.015527  0.059855  8.8e-05  4.018995  0.0
C  C128  1  0.34319100  0.93725168  0.19887701  1  -0.053665  -0.000383  -0.0871  -0.116242  -0.000246  3.941164  0.0
C  C129  1  0.65682185  0.43725641  0.30112276  1  -0.053467  0.000383  -0.087047  -0.116185  0.000246  3.940946  0.0
C  C130  1  0.65681147  0.06274634  0.80112415  1  -0.053721  -0.000383  -0.087057  -0.116148  -0.000246  3.94107  0.0
C  C131  1  0.34319176  0.56274347  0.69888199  1  -0.053382  0.000383  -0.087068  -0.116155  0.000246  3.941019  0.0
C  C132  1  0.24793751  0.95238636  0.24062263  1  -0.027551  0.000179  -0.092469  -0.071258  0.00011  4.018794  0.0
C  C133  1  0.75206698  0.45239093  0.25937487  1  -0.028019  -0.000179  -0.092484  -0.071331  -0.00011  4.018708  0.0
C  C134  1  0.75206402  0.04761166  0.75937790  1  -0.027622  0.000179  -0.092508  -0.071472  0.00011  4.018913  0.0
C  C135  1  0.24793639  0.54760771  0.74062525  1  -0.027998  -0.000179  -0.092539  -0.071426  -0.00011  4.018893  0.0
C  C136  1  0.24258616  0.02731987  0.27833927  1  -0.042381  -0.000393  -0.093142  -0.109722  -0.000235  3.989887  0.0
C  C137  1  0.75741889  0.52732668  0.22165867  1  -0.042242  0.000393  -0.093183  -0.109893  0.000235  3.989915  0.0
C  C138  1  0.75741537  0.97267691  0.72166126  1  -0.042478  -0.000393  -0.093134  -0.109713  -0.000235  3.989819  0.0
C  C139  1  0.24258261  0.47267383  0.77834022  1  -0.042273  0.000393  -0.093162  -0.10985  0.000235  3.989903  0.0
C  C140  1  0.33252004  0.08846132  0.27365164  1  -0.044329  0.00633  -0.029678  -0.035528  0.004448  4.005141  0.005
C  C141  1  0.66748590  0.58846695  0.22634867  1  -0.044096  -0.00633  -0.029656  -0.035474  -0.004447  4.005353  -0.005
C  C142  1  0.66748243  0.91153484  0.72634951  1  -0.043861  0.006329  -0.029702  -0.035527  0.004447  4.005418  0.005
C  C143  1  0.33251751  0.41153107  0.77365366  1  -0.044276  -0.00633  -0.029544  -0.03539  -0.004448  4.005322  -0.005
C  C144  1  0.42635232  0.07335644  0.23094899  1  -0.08458  -9.2e-05  -0.093624  -0.158227  -6.4e-05  3.98162  0.0
C  C145  1  0.57365833  0.57336225  0.26905494  1  -0.084539  9.2e-05  -0.093617  -0.158234  6.4e-05  3.981618  0.0
C  C146  1  0.57365202  0.92663971  0.76905340  1  -0.084978  -9.2e-05  -0.093587  -0.158176  -6.4e-05  3.981699  0.0
C  C147  1  0.42635076  0.42663702  0.73095385  1  -0.084642  9.2e-05  -0.093597  -0.158279  6.4e-05  3.981665  0.0
C  C148  1  0.68698379  0.11180997  0.00824845  1  -0.054612  -0.001012  -0.012269  0.059486  -0.000704  4.020428  -0.001
C  C149  1  0.31302027  0.61180961  0.49175120  1  -0.055558  0.001012  -0.012216  0.059509  0.000703  4.020711  0.001
C  C150  1  0.31301500  0.88818867  0.99175296  1  -0.055036  -0.001011  -0.012263  0.059404  -0.000703  4.020592  -0.001
C  C151  1  0.68697941  0.38819214  0.50824864  1  -0.055497  0.001011  -0.012203  0.05959  0.000703  4.020675  0.001
C  C152  1  0.59883090  0.17105075  0.97906778  1  -0.022541  0.000214  -0.088142  -0.119655  0.000165  3.954191  0.0
C  C153  1  0.40117300  0.67105057  0.52093365  1  -0.022409  -0.000214  -0.088126  -0.119649  -0.000165  3.954358  0.0
C  C154  1  0.40116698  0.82894665  0.02093411  1  -0.02218  0.000214  -0.088158  -0.119653  0.000165  3.954127  0.0
C  C155  1  0.59882952  0.32894807  0.47906970  1  -0.022798  -0.000214  -0.088135  -0.119646  -0.000165  3.954254  0.0
C  C156  1  0.62958974  0.23364737  0.93213160  1  -0.075379  -0.000292  -0.092409  -0.080962  -0.000169  4.024596  0.0
C  C157  1  0.37041225  0.73364545  0.56787034  1  -0.075164  0.000292  -0.092387  -0.080905  0.000169  4.024564  0.0
C  C158  1  0.37040540  0.76635251  0.06787173  1  -0.074618  -0.000292  -0.092473  -0.081034  -0.000169  4.024973  0.0
C  C159  1  0.62959026  0.26635257  0.43213246  1  -0.075392  0.000292  -0.092412  -0.081007  0.000169  4.024662  0.0
C  C160  1  0.74971618  0.23952153  0.91500408  1  -0.052086  1.4e-05  -0.088488  -0.106503  -3.4e-05  3.977641  0.0
C  C161  1  0.25028674  0.73951974  0.58499849  1  -0.050828  -1.4e-05  -0.088462  -0.106485  3.4e-05  3.977447  0.0
C  C162  1  0.25027987  0.76047711  0.08499878  1  -0.051232  1.4e-05  -0.088468  -0.106378  -3.4e-05  3.977859  0.0
C  C163  1  0.74971482  0.26048139  0.41500314  1  -0.050587  -1.4e-05  -0.088448  -0.106408  3.3e-05  3.977511  0.0
C  C164  1  0.83854645  0.18086315  0.94339967  1  -0.025255  -0.010529  -0.018973  -0.018206  -0.007301  3.975908  -0.009
C  C165  1  0.16145651  0.68086198  0.55660116  1  -0.025498  0.010531  -0.019004  -0.018197  0.007302  3.97578  0.009
C  C166  1  0.16145235  0.81913674  0.05660229  1  -0.025429  -0.01053  -0.018924  -0.018184  -0.007301  3.975797  -0.009
C  C167  1  0.83854590  0.31914225  0.44339725  1  -0.025532  0.010532  -0.019002  -0.018243  0.007303  3.975728  0.009
C  C168  1  0.80627051  0.11708646  0.98892008  1  -0.039313  -0.00017  -0.084129  -0.150296  -9.5e-05  3.935735  0.0
C  C169  1  0.19373159  0.61708642  0.51108002  1  -0.039297  0.00017  -0.084185  -0.150393  9.5e-05  3.93584  0.0
C  C170  1  0.19372734  0.88291280  0.01108071  1  -0.038981  -0.00017  -0.084108  -0.150267  -9.5e-05  3.935791  0.0
C  C171  1  0.80626529  0.38291720  0.48891850  1  -0.039176  0.00017  -0.084163  -0.150389  9.6e-05  3.935821  0.0
C  C172  1  0.96932534  0.18452562  0.92640196  1  1.592615  0.002275  0.17775  0.544818  0.000862  4.271152  0.003
C  C173  1  0.03067670  0.68452397  0.57359936  1  1.59266  -0.002276  0.17776  0.544816  -0.000862  4.270959  -0.003
C  C174  1  0.03066883  0.81547551  0.07359910  1  1.592971  0.002276  0.177662  0.544676  0.000862  4.270996  0.003
C  C175  1  0.96932758  0.31547965  0.42640029  1  1.592679  -0.002275  0.177762  0.544871  -0.000862  4.271109  -0.003
C  C176  1  0.32749270  0.17175322  0.31117148  1  1.565434  -0.000624  0.186099  0.541301  0.000228  4.283002  -0.001
C  C177  1  0.67250852  0.67175815  0.18882805  1  1.565071  0.000623  0.186189  0.5414  -0.000229  4.283127  0.001
C  C178  1  0.67250978  0.82824418  0.68882968  1  1.565299  -0.000624  0.186163  0.541303  0.000228  4.283187  -0.001
C  C179  1  0.32748935  0.32824297  0.81117329  1  1.565468  0.000623  0.186134  0.541331  -0.000229  4.28313  0.001
C  C180  1  0.67756934  0.69902028  0.98617845  1  0.937442  0.002008  0.138859  0.086091  0.000664  3.902464  0.001
C  C181  1  0.32242427  0.19902093  0.51381729  1  0.938441  -0.002009  0.138798  0.086078  -0.000665  3.902573  -0.001
C  C182  1  0.32242938  0.30097836  0.01381967  1  0.93826  0.002009  0.13887  0.086163  0.000664  3.902542  0.001
C  C183  1  0.67757076  0.80097833  0.48618054  1  0.937671  -0.002009  0.138906  0.086215  -0.000664  3.902398  -0.001
C  C184  1  0.70411386  0.76278200  0.88181234  1  0.264062  -0.004033  -0.002177  -0.107911  -0.002733  3.912078  -0.003
C  C185  1  0.29588520  0.26278352  0.61818393  1  0.263571  0.004033  -0.002157  -0.107911  0.002733  3.911809  0.003
C  C186  1  0.29588579  0.23721850  0.11818640  1  0.264102  -0.004033  -0.00219  -0.107966  -0.002733  3.912086  -0.003
C  C187  1  0.70411536  0.73721823  0.38181433  1  0.263552  0.004033  -0.002195  -0.107849  0.002733  3.911994  0.003
C  C188  1  0.76239658  0.80697101  0.94120945  1  0.401696  -0.001218  -0.004585  -0.040978  -0.00163  3.98003  -0.001
C  C189  1  0.23760335  0.30697306  0.55878697  1  0.402268  0.001218  -0.004496  -0.040784  0.001629  3.979882  0.001
C  C190  1  0.23760124  0.19302950  0.05878970  1  0.401707  -0.001218  -0.004577  -0.040925  -0.00163  3.979999  -0.001
C  C191  1  0.76240088  0.69302993  0.44121048  1  0.402067  0.001218  -0.004587  -0.041125  0.00163  3.980058  0.001
C  C192  1  0.56676786  0.63571796  0.86925516  1  0.345614  -0.001227  -0.040488  -0.109283  -0.000921  3.899877  -0.001
C  C193  1  0.43322762  0.13571691  0.63073844  1  0.34559  0.001227  -0.040425  -0.109307  0.000921  3.899738  0.001
C  C194  1  0.43323083  0.36428441  0.13074186  1  0.345616  -0.001228  -0.040407  -0.109193  -0.000921  3.899769  -0.001
C  C195  1  0.56676924  0.86428235  0.36925899  1  0.345571  0.001227  -0.040406  -0.109216  0.000921  3.899857  0.001
C  C196  1  0.43448612  0.66095891  0.87139883  1  0.005109  0.000399  -0.01135  0.087339  0.000267  3.981142  0.0
C  C197  1  0.56551211  0.16095962  0.62859557  1  0.005179  -0.000399  -0.011411  0.087205  -0.000267  3.981103  0.0
C  C198  1  0.56551350  0.33904221  0.12859826  1  0.005113  0.000399  -0.011373  0.087229  0.000267  3.981134  0.0
C  C199  1  0.43448753  0.83904150  0.37140262  1  0.00516  -0.000399  -0.011424  0.087193  -0.000267  3.981094  0.0
C  C200  1  0.38188912  0.72529647  0.82559282  1  -0.108241  -0.000217  -0.08712  -0.125915  -0.000142  3.957458  0.0
C  C201  1  0.61810443  0.22529786  0.67440187  1  -0.108014  0.000217  -0.087138  -0.125907  0.000141  3.95754  0.0
C  C202  1  0.61810957  0.27470465  0.17440420  1  -0.107895  -0.000217  -0.087099  -0.125851  -0.000142  3.957524  0.0
C  C203  1  0.38189246  0.77470327  0.32559666  1  -0.10792  0.000217  -0.087082  -0.125844  0.000142  3.957343  0.0
C  C204  1  0.26196384  0.75171873  0.83006319  1  -0.088333  0.000271  -0.086796  -0.123302  0.000167  3.981708  0.0
C  C205  1  0.73802976  0.25171939  0.66993539  1  -0.088467  -0.000271  -0.086837  -0.12336  -0.000167  3.981886  0.0
C  C206  1  0.73803396  0.24828240  0.16993486  1  -0.08839  0.000271  -0.086812  -0.123394  0.000167  3.981848  0.0
C  C207  1  0.26196529  0.74828174  0.33006354  1  -0.088341  -0.000271  -0.086819  -0.123391  -0.000167  3.981683  0.0
C  C208  1  0.19221499  0.71416179  0.87978468  1  0.090706  -0.0003  -0.011118  0.08365  -0.0002  3.985847  0.0
C  C209  1  0.80778420  0.21416416  0.62021426  1  0.090616  0.0003  -0.011064  0.083718  0.0002  3.985746  0.0
C  C210  1  0.80778559  0.28583934  0.12021413  1  0.090882  -0.0003  -0.011114  0.083655  -0.0002  3.98587  0.0
C  C211  1  0.19221546  0.78583759  0.37978503  1  0.090757  0.0003  -0.011064  0.083808  0.0002  3.985794  0.0
C  C212  1  0.24461865  0.64950934  0.92476960  1  -0.08704  0.000315  -0.086198  -0.121092  0.000219  3.997496  0.0
C  C213  1  0.75538246  0.14951103  0.57522939  1  -0.08707  -0.000315  -0.086194  -0.121066  -0.000219  3.997403  0.0
C  C214  1  0.75538376  0.35049117  0.07522881  1  -0.087141  0.000315  -0.086235  -0.121128  0.000219  3.997382  0.0
C  C215  1  0.24461629  0.85049009  0.42477038  1  -0.0871  -0.000315  -0.086253  -0.121246  -0.000219  3.997564  0.0
C  C216  1  0.36496441  0.62323925  0.92068213  1  -0.048785  -0.000231  -0.089615  -0.128641  -0.00015  4.011094  0.0
C  C217  1  0.63503576  0.12324043  0.57931400  1  -0.048684  0.000231  -0.08955  -0.128555  0.000149  4.010938  0.0
C  C218  1  0.63503616  0.37676250  0.07931613  1  -0.048679  -0.000231  -0.089596  -0.128592  -0.00015  4.010951  0.0
C  C219  1  0.36496298  0.87676070  0.42068522  1  -0.048674  0.000231  -0.089512  -0.128466  0.00015  4.010853  0.0
C  C220  1  0.06007430  0.73990333  0.88197215  1  0.223505  0.001306  -0.042079  -0.120406  0.000982  3.910224  0.001
C  C221  1  0.93992490  0.23990498  0.61802903  1  0.223634  -0.001307  -0.042145  -0.120489  -0.000982  3.910076  -0.001
C  C222  1  0.93992447  0.26009779  0.11802817  1  0.223385  0.001306  -0.042082  -0.120394  0.000982  3.910337  0.001
C  C223  1  0.06007663  0.76009677  0.38197150  1  0.223465  -0.001307  -0.04216  -0.120491  -0.000982  3.91024  -0.001
C  C224  1  0.93577286  0.73216974  0.75532147  1  1.007745  -0.002328  0.148654  0.102377  -0.000987  3.882689  -0.001
C  C225  1  0.06422448  0.23217107  0.74467846  1  1.007843  0.002328  0.14867  0.102401  0.000987  3.882659  0.001
C  C226  1  0.06422680  0.26783077  0.24467782  1  1.00789  -0.002328  0.148593  0.102319  -0.000986  3.882647  -0.001
C  C227  1  0.93577151  0.76783005  0.25532110  1  1.008081  0.002328  0.148656  0.102431  0.000987  3.882624  0.001
C  C228  1  0.93749049  0.61764357  0.82242777  1  0.288673  0.003507  -0.001424  -0.116396  0.002341  3.941287  0.002
C  C229  1  0.06251434  0.11764477  0.67757035  1  0.288812  -0.003506  -0.00132  -0.116345  -0.002341  3.941166  -0.002
C  C230  1  0.06251287  0.38235693  0.17757180  1  0.288549  0.003507  -0.001367  -0.116264  0.002341  3.941144  0.002
C  C231  1  0.93748626  0.88235574  0.32242956  1  0.288656  -0.003507  -0.001357  -0.116317  -0.002341  3.941213  -0.002
C  C232  1  0.87181688  0.60389829  0.75346719  1  0.475139  0.001086  0.001547  -0.026998  0.001527  4.000231  0.001
C  C233  1  0.12818793  0.10390082  0.74652981  1  0.47511  -0.001086  0.00155  -0.026997  -0.001528  4.000058  -0.001
C  C234  1  0.12818922  0.39610097  0.24653150  1  0.475345  0.001086  0.001521  -0.027098  0.001528  4.000268  0.001
C  C235  1  0.87180806  0.89609906  0.25347029  1  0.475072  -0.001086  0.001526  -0.027098  -0.001528  4.000221  -0.001
N  N236  1  0.68989128  0.90531650  0.10346193  1  -1.226372  -0.067038  -0.338613  -0.230782  -0.046128  3.647415  -0.06
N  N237  1  0.31011508  0.40531796  0.39653400  1  -1.225865  0.067038  -0.338461  -0.230647  0.046128  3.647445  0.06
N  N238  1  0.31010654  0.09468090  0.89653722  1  -1.226082  -0.067034  -0.338573  -0.230791  -0.046125  3.647326  -0.06
N  N239  1  0.68988551  0.59468378  0.60346536  1  -1.226288  0.067035  -0.3385  -0.230716  0.046126  3.647243  0.06
N  N240  1  0.74483028  0.76642062  0.00576023  1  -1.190884  -0.084522  -0.373468  -0.261845  -0.058076  3.653466  -0.072
N  N241  1  0.25516800  0.26642296  0.49423759  1  -1.191082  0.084515  -0.373556  -0.261932  0.058071  3.653745  0.072
N  N242  1  0.25516846  0.23357864  0.99423899  1  -1.190969  -0.084519  -0.373501  -0.261873  -0.058074  3.653548  -0.072
N  N243  1  0.74483256  0.73357879  0.50576067  1  -1.190901  0.084519  -0.373514  -0.26182  0.058073  3.653549  0.072
N  N244  1  0.65199090  0.69457076  0.91128173  1  -1.206491  -0.002174  -0.244242  0.037059  -0.001341  3.787493  -0.002
N  N245  1  0.34800457  0.19457093  0.58871470  1  -1.206526  0.002174  -0.244355  0.037002  0.001341  3.787348  0.002
N  N246  1  0.34800966  0.30542913  0.08871653  1  -1.20645  -0.002174  -0.244264  0.037091  -0.001341  3.78747  -0.002
N  N247  1  0.65199048  0.80542834  0.41128423  1  -1.20637  0.002174  -0.244343  0.036987  0.001341  3.787418  0.002
N  N248  1  0.97662214  0.69923054  0.82270650  1  -1.236558  0.002207  -0.240788  0.038704  0.00137  3.800289  0.002
N  N249  1  0.02337801  0.19923115  0.67729359  1  -1.236625  -0.002207  -0.24081  0.038717  -0.00137  3.800203  -0.002
N  N250  1  0.02337846  0.30077058  0.17729341  1  -1.236619  0.002207  -0.240758  0.038785  0.00137  3.800056  0.002
N  N251  1  0.97662167  0.80076936  0.32270625  1  -1.236594  -0.002207  -0.240782  0.038706  -0.00137  3.800154  -0.002
N  N252  1  0.87136929  0.67591183  0.71248712  1  -1.176687  0.081833  -0.370729  -0.259301  0.056286  3.645898  0.07
N  N253  1  0.12863181  0.17591445  0.78751301  1  -1.176646  -0.081832  -0.370763  -0.25932  -0.056286  3.645736  -0.07
N  N254  1  0.12863408  0.32408682  0.28751301  1  -1.176809  0.081831  -0.370731  -0.259294  0.056285  3.645831  0.07
N  N255  1  0.87136328  0.82408544  0.21248757  1  -1.176948  -0.081834  -0.370755  -0.25925  -0.056288  3.645773  -0.07
O  O256  1  0.03560988  0.12006294  0.93909253  1  -1.178619  -0.018216  -0.34458  -0.585975  -0.01186  2.167901  -0.018
O  O257  1  0.96439223  0.62005993  0.56090813  1  -1.178636  0.018218  -0.34461  -0.585989  0.011861  2.167735  0.018
O  O258  1  0.96438316  0.87993694  0.06089912  1  -1.178753  -0.01821  -0.344632  -0.585992  -0.011856  2.167849  -0.018
O  O259  1  0.03561310  0.37994120  0.43909708  1  -1.178733  0.01822  -0.344651  -0.586035  0.011862  2.167765  0.018
O  O260  1  0.00595068  0.25275216  0.90113836  1  -1.149171  -0.067293  -0.345583  -0.570546  -0.0441  2.156279  -0.061
O  O261  1  0.99404849  0.75274983  0.59886230  1  -1.149099  0.067301  -0.345556  -0.570514  0.044105  2.156272  0.061
O  O262  1  0.99404644  0.74725332  0.09887116  1  -1.149336  -0.067293  -0.345467  -0.57045  -0.0441  2.156338  -0.061
O  O263  1  0.00594742  0.24725503  0.40113396  1  -1.14915  0.067298  -0.345501  -0.57051  0.044103  2.15648  0.061
O  O264  1  0.39606768  0.22936689  0.29328191  1  -1.198486  0.002913  -0.336666  -0.58013  0.001775  2.179365  0.003
O  O265  1  0.60393721  0.72937316  0.20672074  1  -1.19832  -0.002913  -0.336756  -0.580238  -0.001775  2.179472  -0.003
O  O266  1  0.60393667  0.77062927  0.70672104  1  -1.198494  0.002912  -0.336691  -0.580139  0.001775  2.179455  0.003
O  O267  1  0.39605797  0.27062548  0.79328423  1  -1.198717  -0.002913  -0.336741  -0.580181  -0.001775  2.179349  -0.003
O  O268  1  0.25037011  0.17718344  0.35771051  1  -1.163642  0.049723  -0.335434  -0.56823  0.032736  2.324097  0.046
O  O269  1  0.74962363  0.67718822  0.14228516  1  -1.163624  -0.049717  -0.335437  -0.568254  -0.032732  2.324027  -0.046
O  O270  1  0.74962677  0.82281396  0.64228802  1  -1.163582  0.049714  -0.335432  -0.568197  0.03273  2.324083  0.046
O  O271  1  0.25037049  0.32281415  0.85771370  1  -1.163746  -0.049725  -0.335461  -0.568281  -0.032737  2.324128  -0.046
