# generated using pymatgen
data_MnH16C26N6(OF2)2
_symmetry_space_group_name_H-M   'P 1'
_cell_length_a   7.59307436
_cell_length_b   8.73344676
_cell_length_c   10.16182493
_cell_angle_alpha   68.17152583
_cell_angle_beta   80.49774151
_cell_angle_gamma   78.93806258
_symmetry_Int_Tables_number   1
_chemical_formula_structural   MnH16C26N6(OF2)2
_chemical_formula_sum   'Mn1 H16 C26 N6 O2 F4'
_cell_volume   610.67152663
_cell_formula_units_Z   1
loop_
 _symmetry_equiv_pos_site_id
 _symmetry_equiv_pos_as_xyz
  1  'x, y, z'
loop_
 _atom_site_type_symbol
 _atom_site_label
 _atom_site_symmetry_multiplicity
 _atom_site_fract_x
 _atom_site_fract_y
 _atom_site_fract_z
 _atom_site_occupancy
 _atom_site_hle17_ddec_charge
 _atom_site_hle17_ddec_spin_density
 _atom_site_hle17_ddec_sum_bond_order
 _atom_site_hle17_magmom
 _atom_site_hse06_10hf_ddec_charge
 _atom_site_hse06_10hf_ddec_spin_density
 _atom_site_hse06_10hf_ddec_sum_bond_order
 _atom_site_hse06_10hf_magmom
 _atom_site_hse06_ddec_charge
 _atom_site_hse06_ddec_spin_density
 _atom_site_hse06_ddec_sum_bond_order
 _atom_site_hse06_magmom
 _atom_site_pbe_cm5_charge
 _atom_site_pbe_ddec_charge
 _atom_site_pbe_ddec_spin_density
 _atom_site_pbe_ddec_sum_bond_order
 _atom_site_pbe_magmom
Mn  Mn0  1  0.00000297  0.00000123  0.99999950  1  1.163408  -4.761772  1.971958  -4.65  1.023012  -4.661344  2.490532  -4.482  1.070034  -4.718963  2.421068  -4.559  0.671368  0.992313  -4.585466  2.540687  -4.383
H  H1  1  0.11763271  0.49415361  0.28490393  1  0.104156  0.000163  0.934369  0.0  0.114323  0.000177  0.990789  0.0  0.117675  0.000184  0.988857  0.0  0.106968  0.111195  0.000162  0.993309  0.0
H  H2  1  0.88236840  0.50584397  0.71509832  1  0.104142  0.000173  0.934379  0.0  0.114313  0.000177  0.990805  0.0  0.117666  0.000184  0.988873  0.0  0.106951  0.111185  0.000162  0.993326  0.0
H  H3  1  0.11641035  0.27749335  0.52915256  1  0.120002  7.6e-05  0.932347  0.0  0.127982  7.8e-05  0.992949  0.0  0.132475  8.9e-05  0.989815  0.0  0.109364  0.124089  8.4e-05  0.996051  0.0
H  H4  1  0.88359056  0.72250548  0.47085029  1  0.119948  7.3e-05  0.932409  0.0  0.127967  7.8e-05  0.992964  0.0  0.13246  8.9e-05  0.98983  0.0  0.109373  0.124076  8.4e-05  0.996062  0.0
H  H5  1  0.39269025  0.77162543  0.85529606  1  0.115452  0.000436  0.96682  0.0  0.124992  0.000431  1.028065  0.0  0.128256  0.000456  1.02683  0.0  0.109162  0.121849  0.000437  1.030065  0.0
H  H6  1  0.60730725  0.22836964  0.14470546  1  0.115489  0.000436  0.966764  0.0  0.125025  0.000431  1.028011  0.0  0.128289  0.000456  1.026775  0.0  0.10919  0.121883  0.000437  1.030013  0.0
H  H7  1  0.64152600  0.53143337  0.90496902  1  0.097429  3.8e-05  0.938599  0.0  0.110979  3.8e-05  0.992152  0.0  0.113365  4.6e-05  0.991857  0.0  0.107969  0.108513  2.2e-05  0.993795  0.0
H  H8  1  0.35847017  0.46856169  0.09503266  1  0.097419  3.8e-05  0.938554  0.0  0.110962  3.8e-05  0.99212  0.0  0.113352  4.6e-05  0.991821  0.0  0.107966  0.108494  2.2e-05  0.993763  0.0
H  H9  1  0.17713046  0.00392189  0.72783664  1  0.33641  -0.000146  0.956875  -0.001  0.301629  -0.000667  1.045257  -0.002  0.312183  -0.000416  1.034576  -0.002  0.28897  0.29455  -0.000943  1.052443  -0.002
H  H10  1  0.82287046  0.99607693  0.27216326  1  0.336393  -0.000146  0.956916  -0.001  0.301608  -0.000667  1.045294  -0.002  0.312163  -0.000416  1.034611  -0.002  0.28896  0.29453  -0.000943  1.052478  -0.002
H  H11  1  0.01087007  0.75182453  0.80422285  1  0.069729  6.7e-05  0.945391  0.0  0.0879  -0.000163  1.010007  0.0  0.088573  -5e-06  1.009276  0.0  0.087683  0.087582  -0.000447  1.010356  0.0
H  H12  1  0.98913065  0.24817554  0.19577569  1  0.069729  6.7e-05  0.945387  0.0  0.087903  -0.000163  1.009996  0.0  0.088576  -5e-06  1.009265  0.0  0.087689  0.087587  -0.000447  1.010347  0.0
H  H13  1  0.00953219  0.90642739  0.62901321  1  0.067346  -0.000553  0.95354  0.0  0.080324  -0.000824  1.029749  -0.001  0.080859  -0.000631  1.029232  0.0  0.085796  0.080596  -0.00092  1.02947  -0.001
H  H14  1  0.99046987  0.09357268  0.37098517  1  0.067368  -0.000551  0.953539  0.0  0.080321  -0.000824  1.02977  -0.001  0.080857  -0.000631  1.029253  0.0  0.085798  0.080594  -0.00092  1.029489  -0.001
H  H15  1  0.82478769  0.91528477  0.76161890  1  0.074303  0.00015  0.956659  0.0  0.089928  -6.2e-05  1.027112  0.0  0.089396  2.4e-05  1.029186  0.0  0.090607  0.09045  -0.000184  1.025526  0.0
H  H16  1  0.17521170  0.08471530  0.23837980  1  0.074312  0.000152  0.956639  0.0  0.089924  -6.2e-05  1.027099  0.0  0.089392  2.4e-05  1.029175  0.0  0.09062  0.090447  -0.000184  1.025514  0.0
C  C17  1  0.36271031  0.13070313  0.47665198  1  0.175557  0.000103  3.771239  0.0  0.170817  -0.000398  4.019887  0.0  0.175477  -2.6e-05  4.039645  0.0  0.121551  0.166865  -0.001879  4.009114  -0.001
C  C18  1  0.63728946  0.86929444  0.52335043  1  0.175455  6.7e-05  3.771305  0.0  0.170694  -0.000397  4.02002  0.0  0.175357  -2.6e-05  4.039777  0.0  0.121488  0.166742  -0.001879  4.009247  -0.001
C  C19  1  0.49588077  0.88350746  0.63437887  1  0.178815  0.000126  3.764261  0.0  0.173546  -0.000434  4.012325  0.0  0.17849  -6.1e-05  4.030809  0.0  0.120982  0.169727  -0.001536  4.002437  -0.001
C  C20  1  0.50411940  0.11648763  0.36562429  1  0.178723  0.000109  3.7643  0.0  0.173499  -0.000434  4.012293  0.0  0.178446  -6.2e-05  4.030775  0.0  0.120961  0.169681  -0.001536  4.002408  -0.001
C  C21  1  0.22452125  0.38801585  0.31018429  1  -0.038814  -0.000365  3.732504  0.0  -0.055315  -0.000918  3.98723  -0.001  -0.055785  -0.000337  4.007399  0.0  -0.076057  -0.056758  -0.002774  3.977425  -0.002
C  C22  1  0.77547832  0.61198297  0.68981774  1  -0.038814  -0.000395  3.732545  0.0  -0.055335  -0.000915  3.987286  -0.001  -0.055807  -0.000343  4.007454  0.0  -0.076046  -0.05678  -0.002774  3.977489  -0.002
C  C23  1  0.22325789  0.26958191  0.44492780  1  -0.146189  0.000241  3.707222  0.0  -0.168354  -0.000184  3.967632  0.0  -0.17318  0.000109  3.987819  0.0  -0.084867  -0.166106  -0.001902  3.956742  -0.001
C  C24  1  0.77674322  0.73041567  0.55507543  1  -0.146109  0.000275  3.707251  0.0  -0.168287  -0.000188  3.967646  0.0  -0.173115  0.000118  3.987837  0.0  -0.084861  -0.166041  -0.001901  3.956754  -0.001
C  C25  1  0.49941108  0.75858513  0.77252535  1  -0.141555  -0.000412  3.698893  0.0  -0.163007  -0.000636  3.948924  -0.001  -0.166724  -0.000306  3.968265  0.0  -0.086624  -0.161752  -0.002214  3.9393  -0.002
C  C26  1  0.50058509  0.24140994  0.22747731  1  -0.14151  -0.000421  3.698767  0.0  -0.162962  -0.000633  3.948753  -0.001  -0.166679  -0.000308  3.968093  0.0  -0.086618  -0.161709  -0.002214  3.939135  -0.002
C  C27  1  0.63665344  0.62667178  0.79899877  1  -0.040114  0.000367  3.738994  0.0  -0.055175  -0.000174  3.990753  0.0  -0.05651  0.00017  4.01218  0.0  -0.076008  -0.056209  -0.001789  3.980548  -0.001
C  C28  1  0.36334273  0.37332329  0.20100389  1  -0.040141  0.000382  3.739007  0.0  -0.05521  -0.000177  3.990772  0.0  -0.056548  0.000175  4.012199  0.0  -0.076023  -0.05624  -0.00179  3.980564  -0.001
C  C29  1  0.37170702  0.78317953  0.13147928  1  0.330503  -0.01827  3.841486  -0.018  0.306906  -0.023984  4.117527  -0.023  0.324254  -0.021054  4.13591  -0.021  0.191749  0.295821  -0.026863  4.102287  -0.025
C  C30  1  0.62829770  0.21682056  0.86852173  1  0.330595  -0.018297  3.84175  -0.018  0.306987  -0.023976  4.117763  -0.023  0.324335  -0.021048  4.136139  -0.021  0.191846  0.295902  -0.026855  4.102531  -0.025
C  C31  1  0.68925776  0.76857020  0.13119541  1  0.330291  -0.023819  3.842139  -0.023  0.3075  -0.029648  4.113406  -0.028  0.325317  -0.026283  4.131447  -0.025  0.188454  0.296182  -0.032787  4.098244  -0.03
C  C32  1  0.31075039  0.23143363  0.86880004  1  0.330247  -0.023834  3.842166  -0.023  0.307443  -0.029651  4.113427  -0.028  0.325261  -0.026287  4.13147  -0.025  0.188376  0.29613  -0.032791  4.098259  -0.03
C  C33  1  0.52452593  0.72423971  0.20431057  1  -0.213228  -0.006417  3.98972  -0.004  -0.201181  -0.008207  4.25475  -0.004  -0.217235  -0.006513  4.276112  -0.004  -0.058243  -0.18744  -0.008912  4.236428  -0.005
C  C34  1  0.47547401  0.27576534  0.79568745  1  -0.213284  -0.006417  3.989735  -0.004  -0.201177  -0.008201  4.254722  -0.004  -0.217233  -0.006522  4.276079  -0.004  -0.058264  -0.187443  -0.008911  4.236397  -0.005
C  C35  1  0.36687446  0.63214685  0.45328744  1  0.150298  -0.000892  3.802893  -0.001  0.114529  -0.00133  4.110721  -0.001  0.121595  -0.001051  4.120931  -0.001  0.077748  0.110256  -0.001412  4.102493  -0.001
C  C36  1  0.63312300  0.36785695  0.54671031  1  0.150359  -0.000878  3.802828  -0.001  0.114599  -0.001332  4.110694  -0.001  0.121664  -0.001048  4.120904  -0.001  0.077813  0.110322  -0.001411  4.102463  -0.001
C  C37  1  0.51264859  0.61263432  0.35342719  1  -0.074535  -0.002147  3.90667  -0.001  -0.088671  -0.003406  4.178386  -0.002  -0.088066  -0.002539  4.201484  -0.002  -0.025813  -0.088373  -0.004045  4.160515  -0.003
C  C38  1  0.48734962  0.38737322  0.64657025  1  -0.074448  -0.002162  3.90685  -0.001  -0.08866  -0.003405  4.17862  -0.002  -0.088053  -0.002539  4.201718  -0.002  -0.025791  -0.088348  -0.004044  4.160732  -0.003
C  C39  1  0.97142906  0.88437755  0.74299421  1  -0.022272  -0.001564  3.678956  -0.002  -0.121651  -0.003105  3.958677  -0.002  -0.114883  -0.002367  3.964122  -0.002  -0.157492  -0.126195  -0.004  3.95365  -0.003
C  C40  1  0.02857166  0.11562252  0.25700532  1  -0.022283  -0.001574  3.678932  -0.002  -0.121639  -0.003103  3.958667  -0.002  -0.114873  -0.002369  3.964114  -0.002  -0.157508  -0.126187  -0.004  3.953647  -0.003
C  C41  1  0.64530117  0.47603465  0.40634003  1  0.153066  -0.000926  3.804929  -0.001  0.123376  -0.001462  4.108188  -0.001  0.130638  -0.001064  4.118723  -0.001  0.079922  0.119086  -0.001817  4.099718  -0.001
C  C42  1  0.35469629  0.52396915  0.59365968  1  0.153032  -0.000903  3.805076  -0.001  0.123376  -0.001463  4.108321  -0.001  0.130638  -0.001061  4.118857  -0.001  0.079922  0.119082  -0.001817  4.099848  -0.001
N  N43  1  0.36212583  0.01373678  0.60830572  1  -0.325037  -0.000816  3.096076  -0.001  -0.275805  -0.002302  3.340201  -0.002  -0.284982  -0.000899  3.352792  -0.001  -0.281294  -0.273306  -0.009728  3.335435  -0.01
N  N44  1  0.63787414  0.98625954  0.39169706  1  -0.324977  -0.000795  3.096139  -0.001  -0.275761  -0.002301  3.340263  -0.002  -0.284941  -0.000902  3.352854  -0.001  -0.281281  -0.273263  -0.009727  3.335499  -0.01
N  N45  1  0.82956946  0.80626234  0.07083287  1  -0.495822  -0.013739  2.829268  0.002  -0.45648  -0.02348  3.112286  -0.002  -0.475524  -0.018339  3.115867  0.002  -0.347922  -0.441836  -0.027497  3.108017  -0.005
N  N46  1  0.17043374  0.19373897  0.92916398  1  -0.495856  -0.013722  2.829121  0.002  -0.456515  -0.02348  3.112143  -0.002  -0.475563  -0.01833  3.115725  0.002  -0.34791  -0.441875  -0.027494  3.107875  -0.005
N  N47  1  0.24214805  0.82622404  0.06980179  1  -0.502775  -0.018969  2.839061  -0.003  -0.466351  -0.027253  3.129562  -0.006  -0.484912  -0.022835  3.132044  -0.002  -0.345144  -0.452284  -0.030509  3.126814  -0.008
N  N48  1  0.75785228  0.17377851  0.93019403  1  -0.502796  -0.018935  2.839586  -0.003  -0.466379  -0.02726  3.130092  -0.006  -0.484938  -0.02284  3.13257  -0.002  -0.345179  -0.452309  -0.030515  3.127347  -0.008
O  O49  1  0.05572733  0.98900160  0.78627219  1  -0.552835  -0.031863  2.265093  -0.021  -0.475452  -0.041141  2.539436  -0.028  -0.498824  -0.036727  2.527268  -0.024  -0.404358  -0.457857  -0.045437  2.547088  -0.033
O  O50  1  0.94427187  0.01099970  0.21372713  1  -0.552844  -0.03186  2.265147  -0.021  -0.475437  -0.041141  2.539465  -0.028  -0.498808  -0.036724  2.527295  -0.024  -0.404351  -0.457843  -0.045435  2.54712  -0.033
F  F51  1  0.78913491  0.44407091  0.31655861  1  -0.164427  -7.5e-05  1.2565  0.0  -0.115225  -0.000259  1.430476  0.0  -0.124534  -0.000184  1.422607  0.0  -0.079814  -0.108043  -0.000329  1.435281  0.0
F  F52  1  0.21086122  0.55593289  0.68344028  1  -0.16441  -7.7e-05  1.256483  0.0  -0.115209  -0.000259  1.430449  0.0  -0.12452  -0.000184  1.422579  0.0  -0.079801  -0.108029  -0.000329  1.435255  0.0
F  F53  1  0.23319174  0.76310481  0.41321706  1  -0.16742  8.7e-05  1.257333  0.0  -0.103546  -1.5e-05  1.417823  0.0  -0.112383  3.6e-05  1.409808  0.0  -0.078969  -0.096733  -5e-05  1.422673  0.0
F  F54  1  0.76680533  0.23690148  0.58678091  1  -0.167483  8.9e-05  1.257354  0.0  -0.103584  -1.5e-05  1.417828  0.0  -0.11242  3.6e-05  1.409812  0.0  -0.079005  -0.09677  -5e-05  1.422679  0.0
