# generated using pymatgen
data_ZnH12C10S2(NO)4
_symmetry_space_group_name_H-M   'P 1'
_cell_length_a   8.29422027
_cell_length_b   10.79353020
_cell_length_c   15.84155149
_cell_angle_alpha   90.00021010
_cell_angle_beta   90.00006437
_cell_angle_gamma   90.00002707
_symmetry_Int_Tables_number   1
_chemical_formula_structural   ZnH12C10S2(NO)4
_chemical_formula_sum   'Zn4 H48 C40 S8 N16 O16'
_cell_volume   1418.19774011
_cell_formula_units_Z   4
loop_
 _symmetry_equiv_pos_site_id
 _symmetry_equiv_pos_as_xyz
  1  'x, y, z'
loop_
 _atom_site_type_symbol
 _atom_site_label
 _atom_site_symmetry_multiplicity
 _atom_site_fract_x
 _atom_site_fract_y
 _atom_site_fract_z
 _atom_site_occupancy
 _atom_site_hle17_bader_spin_density
 _atom_site_hle17_ddec_charge
 _atom_site_hle17_ddec_spin_density
 _atom_site_hle17_ddec_sum_bond_order
 _atom_site_hle17_magmom
 _atom_site_hse06_10hf_bader_spin_density
 _atom_site_hse06_10hf_ddec_charge
 _atom_site_hse06_10hf_ddec_spin_density
 _atom_site_hse06_10hf_ddec_sum_bond_order
 _atom_site_hse06_10hf_magmom
 _atom_site_hse06_bader_spin_density
 _atom_site_hse06_ddec_charge
 _atom_site_hse06_ddec_spin_density
 _atom_site_hse06_ddec_sum_bond_order
 _atom_site_hse06_magmom
 _atom_site_pbe_bader_spin_density
 _atom_site_pbe_cm5_charge
 _atom_site_pbe_ddec_charge
 _atom_site_pbe_ddec_spin_density
 _atom_site_pbe_ddec_sum_bond_order
 _atom_site_pbe_magmom
Zn  Zn0  1  0.81877958  0.90191723  0.66145110  1  0  0.847658  0  2.066626  0  0  0.68851  0  2.549055  0  0  0.731404  0  2.497786  0  0  0.533392  0.658535  0  2.584444  0
Zn  Zn1  1  0.68122036  0.09808246  0.16144916  1  0  0.847695  0  2.066586  0  0  0.688544  0  2.549004  0  0  0.73144  0  2.497739  0  0  0.533411  0.658567  0  2.584396  0
Zn  Zn2  1  0.18122240  0.40191620  0.83855037  1  0  0.847682  0  2.066644  0  0  0.688517  0  2.549082  0  0  0.731414  0  2.497809  0  0  0.533392  0.65854  0  2.584484  0
Zn  Zn3  1  0.31878036  0.59808425  0.33854912  1  0  0.847672  0  2.066611  0  0  0.6885  0  2.549049  0  0  0.731398  0  2.497785  0  0  0.533394  0.65853  0  2.58444  0
H  H4  1  0.72265949  0.97968374  0.50392620  1  0  0.340917  0  0.927148  0  0  0.320458  0  0.992071  0  0  0.328326  0  0.985596  0  0  0.299054  0.314928  0  0.996634  0
H  H5  1  0.77733890  0.02031510  0.00392664  1  0  0.340926  0  0.927168  0  0  0.320456  0  0.992093  0  0  0.328331  0  0.985608  0  0  0.299058  0.314928  0  0.996654  0
H  H6  1  0.27733771  0.47968175  0.99607294  1  0  0.340864  0  0.927198  0  0  0.320451  0  0.992065  0  0  0.328286  0  0.985636  0  0  0.299051  0.314918  0  0.996634  0
H  H7  1  0.22265935  0.52031770  0.49607334  1  0  0.340912  0  0.927187  0  0  0.320453  0  0.992107  0  0  0.328323  0  0.985631  0  0  0.299048  0.314927  0  0.996667  0
H  H8  1  0.79493953  0.00183102  0.39945480  1  0  0.341495  0  0.910089  0  0  0.321545  0  0.975949  0  0  0.329328  0  0.96996  0  0  0.300837  0.316045  0  0.980298  0
H  H9  1  0.70506091  0.99816810  0.89945502  1  0  0.341549  0  0.909977  0  0  0.321586  0  0.975849  0  0  0.329369  0  0.969868  0  0  0.300871  0.316087  0  0.980199  0
H  H10  1  0.20505992  0.50182964  0.10054513  1  0  0.341484  0  0.910138  0  0  0.321583  0  0.975938  0  0  0.329366  0  0.969948  0  0  0.300833  0.316084  0  0.980285  0
H  H11  1  0.29493991  0.49817047  0.60054542  1  0  0.341487  0  0.910151  0  0  0.32159  0  0.975944  0  0  0.329377  0  0.969945  0  0  0.300823  0.31609  0  0.980297  0
H  H12  1  0.03147317  0.73324959  0.39622853  1  0  0.342387  0  0.882492  0  0  0.321958  0  0.950426  0  0  0.329195  0  0.944394  0  0  0.30889  0.316791  0  0.954827  0
H  H13  1  0.46852609  0.26674933  0.89622961  1  0  0.342377  0  0.882496  0  0  0.321951  0  0.950428  0  0  0.32919  0  0.944396  0  0  0.308894  0.316785  0  0.954827  0
H  H14  1  0.96852522  0.23324852  0.10377135  1  0  0.342522  0  0.882299  0  0  0.322057  0  0.950314  0  0  0.329293  0  0.944281  0  0  0.30892  0.316891  0  0.954717  0
H  H15  1  0.53147579  0.76674993  0.60377215  1  0  0.342471  0  0.882354  0  0  0.322018  0  0.950336  0  0  0.329255  0  0.944303  0  0  0.308912  0.316853  0  0.954736  0
H  H16  1  0.92855203  0.83792988  0.33216008  1  0  0.358581  0  0.874188  0  0  0.340728  0  0.93274  0  0  0.348415  0  0.926547  0  0  0.31329  0.335276  0  0.937214  0
H  H17  1  0.57144706  0.16206980  0.83216066  1  0  0.358571  0  0.87424  0  0  0.340722  0  0.93277  0  0  0.348409  0  0.926576  0  0  0.313296  0.335253  0  0.93727  0
H  H18  1  0.07144642  0.33792883  0.16784006  1  0  0.358553  0  0.874199  0  0  0.340699  0  0.932745  0  0  0.348385  0  0.926555  0  0  0.313286  0.335258  0  0.9372  0
H  H19  1  0.42855476  0.66207164  0.66784084  1  0  0.35856  0  0.874174  0  0  0.340704  0  0.932723  0  0  0.34839  0  0.926532  0  0  0.313285  0.335262  0  0.937184  0
H  H20  1  0.04193748  0.76192979  0.76083301  1  0  0.324293  0  0.915793  0  0  0.303773  0  0.987959  0  0  0.310556  0  0.982754  0  0  0.29384  0.298483  0  0.99255  0
H  H21  1  0.45806270  0.23806933  0.26083221  1  0  0.324298  0  0.915781  0  0  0.30378  0  0.98794  0  0  0.310562  0  0.982737  0  0  0.293856  0.298488  0  0.992532  0
H  H22  1  0.95806079  0.26192944  0.73916874  1  0  0.324233  0  0.915798  0  0  0.303706  0  0.987992  0  0  0.310491  0  0.982787  0  0  0.29381  0.298417  0  0.992578  0
H  H23  1  0.54194051  0.73807066  0.23916768  1  0  0.324298  0  0.915825  0  0  0.303779  0  0.987993  0  0  0.310562  0  0.982789  0  0  0.293843  0.298487  0  0.992584  0
H  H24  1  0.24857054  0.75916154  0.77788569  1  0  0.354265  0  0.906978  0  0  0.336367  0  0.964846  0  0  0.34466  0  0.958042  0  0  0.303037  0.330564  0  0.969576  0
H  H25  1  0.25142967  0.24083766  0.27788414  1  0  0.354269  0  0.906925  0  0  0.336373  0  0.964788  0  0  0.344665  0  0.957985  0  0  0.303049  0.330568  0  0.969517  0
H  H26  1  0.75142893  0.25916103  0.72211668  1  0  0.354213  0  0.907049  0  0  0.336321  0  0.964916  0  0  0.344614  0  0.958112  0  0  0.303016  0.33052  0  0.969632  0
H  H27  1  0.74857113  0.74083898  0.22211449  1  0  0.35422  0  0.907036  0  0  0.336327  0  0.9649  0  0  0.344621  0  0.958094  0  0  0.303004  0.330524  0  0.969622  0
H  H28  1  0.27694190  0.09212584  0.77672715  1  0  0.343755  0  0.918918  0  0  0.319259  0  0.989797  0  0  0.327743  0  0.982981  0  0  0.296293  0.313004  0  0.995008  0
H  H29  1  0.22305952  0.90787428  0.27672473  1  0  0.343692  0  0.91899  0  0  0.319203  0  0.989858  0  0  0.327689  0  0.983041  0  0  0.296279  0.312948  0  0.995072  0
H  H30  1  0.72305868  0.59212624  0.72327355  1  0  0.343718  0  0.918927  0  0  0.319233  0  0.989782  0  0  0.327719  0  0.982964  0  0  0.296288  0.312978  0  0.994993  0
H  H31  1  0.77694139  0.40787564  0.22327432  1  0  0.343761  0  0.918888  0  0  0.319277  0  0.989738  0  0  0.327762  0  0.982921  0  0  0.29631  0.313021  0  0.994948  0
H  H32  1  0.38858860  0.95343539  0.79123757  1  0  0.352747  0  0.899145  0  0  0.333706  0  0.959359  0  0  0.341965  0  0.95265  0  0  0.305775  0.327927  0  0.96404  0
H  H33  1  0.11141285  0.04656481  0.29123672  1  0  0.352715  0  0.899193  0  0  0.333681  0  0.9594  0  0  0.341938  0  0.952694  0  0  0.305763  0.327902  0  0.96408  0
H  H34  1  0.61141099  0.45343569  0.70876277  1  0  0.352745  0  0.899133  0  0  0.333704  0  0.959343  0  0  0.341962  0  0.952636  0  0  0.305782  0.327923  0  0.964024  0
H  H35  1  0.88858904  0.54656518  0.20876269  1  0  0.35274  0  0.899188  0  0  0.333697  0  0.959409  0  0  0.341954  0  0.952703  0  0  0.30577  0.327916  0  0.964088  0
H  H36  1  0.91762575  0.81356681  0.90190790  1  0  0.090466  0  0.961732  0  0  0.100308  0  1.025143  0  0  0.102929  0  1.02512  0  0  0.095539  0.098498  0  1.025185  0
H  H37  1  0.58237470  0.18643417  0.40190738  1  0  0.090405  0  0.961675  0  0  0.100216  0  1.02514  0  0  0.102837  0  1.025117  0  0  0.095504  0.098407  0  1.02518  0
H  H38  1  0.08237497  0.31356168  0.59809272  1  0  0.090453  0  0.961757  0  0  0.100253  0  1.025216  0  0  0.102873  0  1.025193  0  0  0.095517  0.098443  0  1.025256  0
H  H39  1  0.41762486  0.68643748  0.09809302  1  0  0.090426  0  0.961701  0  0  0.10022  0  1.025184  0  0  0.102838  0  1.025164  0  0  0.095511  0.098412  0  1.025215  0
H  H40  1  0.00633114  0.67664614  0.01911640  1  0  0.087135  0  0.984307  0  0  0.094526  0  1.049714  0  0  0.096912  0  1.04946  0  0  0.095539  0.092717  0  1.050118  0
H  H41  1  0.49366972  0.32335538  0.51911637  1  0  0.08714  0  0.984318  0  0  0.094529  0  1.049732  0  0  0.096916  0  1.049477  0  0  0.095529  0.09272  0  1.050133  0
H  H42  1  0.99366842  0.17664340  0.48088334  1  0  0.087156  0  0.984293  0  0  0.094562  0  1.049682  0  0  0.09695  0  1.049425  0  0  0.09556  0.092753  0  1.050083  0
H  H43  1  0.50632979  0.82335800  0.98088427  1  0  0.087137  0  0.984362  0  0  0.094542  0  1.049754  0  0  0.096929  0  1.049498  0  0  0.095536  0.092736  0  1.050158  0
H  H44  1  0.83719766  0.49582975  0.06100310  1  0  0.088742  0  0.981804  0  0  0.095433  0  1.049799  0  0  0.09862  0  1.048663  0  0  0.094659  0.093173  0  1.050723  0
H  H45  1  0.66280809  0.50416939  0.56100459  1  0  0.088701  0  0.981839  0  0  0.095411  0  1.049817  0  0  0.098583  0  1.048697  0  0  0.094636  0.093151  0  1.050739  0
H  H46  1  0.16280450  0.99582925  0.43899365  1  0  0.088692  0  0.981823  0  0  0.095378  0  1.04984  0  0  0.098564  0  1.048704  0  0  0.094626  0.093122  0  1.050763  0
H  H47  1  0.33719244  0.00417082  0.93899336  1  0  0.088686  0  0.98184  0  0  0.095389  0  1.049869  0  0  0.098552  0  1.048758  0  0  0.094634  0.093143  0  1.050761  0
H  H48  1  0.57989537  0.45565906  0.98826316  1  0  0.088779  0  0.997033  0  0  0.094527  0  1.06846  0  0  0.098151  0  1.066189  0  0  0.089338  0.091874  0  1.070283  0
H  H49  1  0.92010888  0.54433961  0.48826437  1  0  0.088729  0  0.99705  0  0  0.094474  0  1.068484  0  0  0.098097  0  1.066213  0  0  0.089333  0.09182  0  1.070309  0
H  H50  1  0.42010905  0.95566006  0.51173339  1  0  0.088746  0  0.997003  0  0  0.094492  0  1.068433  0  0  0.098115  0  1.066163  0  0  0.089339  0.091841  0  1.070259  0
H  H51  1  0.07989180  0.04434328  0.01173567  1  0  0.088738  0  0.99699  0  0  0.094493  0  1.068419  0  0  0.098116  0  1.066148  0  0  0.08934  0.091841  0  1.070246  0
C  C52  1  0.88099858  0.84965483  0.46058058  1  0  0.604673  0  3.84466  0  0  0.559883  0  4.140517  0  0  0.588127  0  4.14512  0  0  0.255346  0.540737  0  4.136745  0
C  C53  1  0.61900079  0.15034368  0.96058179  1  0  0.604666  0  3.844625  0  0  0.559921  0  4.14041  0  0  0.588169  0  4.145009  0  0  0.255361  0.540781  0  4.136627  0
C  C54  1  0.11900109  0.34965311  0.03941896  1  0  0.604645  0  3.844708  0  0  0.55986  0  4.140568  0  0  0.588104  0  4.145169  0  0  0.255366  0.540714  0  4.136798  0
C  C55  1  0.38099982  0.65034852  0.53941968  1  0  0.604695  0  3.844475  0  0  0.559919  0  4.140315  0  0  0.588164  0  4.144916  0  0  0.255374  0.540771  0  4.136548  0
C  C56  1  0.14521789  0.93397826  0.76644634  1  0  0.609839  0  3.830325  0  0  0.567308  0  4.119724  0  0  0.594699  0  4.125253  0  0  0.258137  0.548684  0  4.115165  0
C  C57  1  0.35478350  0.06602274  0.26644316  1  0  0.60976  0  3.830369  0  0  0.567239  0  4.119763  0  0  0.59463  0  4.125291  0  0  0.258127  0.548626  0  4.115182  0
C  C58  1  0.85478048  0.43397877  0.73355521  1  0  0.609741  0  3.830415  0  0  0.567227  0  4.11979  0  0  0.594618  0  4.12532  0  0  0.258107  0.548609  0  4.115215  0
C  C59  1  0.64521840  0.56602131  0.23355378  1  0  0.609789  0  3.830213  0  0  0.56726  0  4.119625  0  0  0.594651  0  4.125154  0  0  0.258092  0.548649  0  4.115038  0
C  C60  1  0.66033563  0.79563169  0.80549174  1  0  0.671516  0  3.902133  0  0  0.608378  0  4.215109  0  0  0.643748  0  4.203312  0  0  0.21396  0.58426  0  4.222572  0
C  C61  1  0.83966099  0.20436970  0.30549078  1  0  0.671533  0  3.902319  0  0  0.60834  0  4.215357  0  0  0.643709  0  4.203566  0  0  0.213938  0.584214  0  4.222833  0
C  C62  1  0.33965904  0.29562810  0.69451010  1  0  0.671689  0  3.902315  0  0  0.608533  0  4.215261  0  0  0.643905  0  4.203464  0  0  0.214128  0.5844  0  4.222747  0
C  C63  1  0.16033858  0.70437251  0.19450965  1  0  0.671635  0  3.902052  0  0  0.608432  0  4.215086  0  0  0.643802  0  4.20329  0  0  0.214055  0.584312  0  4.222546  0
C  C64  1  0.69910605  0.71072825  0.87791069  1  0  -0.061914  0  3.7486  0  0  -0.046859  0  3.981532  0  0  -0.049298  0  4.000883  0  0  -0.012044  -0.045265  0  3.968763  0
C  C65  1  0.80089555  0.28927167  0.37791055  1  0  -0.061954  0  3.748718  0  0  -0.046873  0  3.981637  0  0  -0.049321  0  4.00101  0  0  -0.012024  -0.045283  0  3.968873  0
C  C66  1  0.30089460  0.21072148  0.62209030  1  0  -0.061908  0  3.748687  0  0  -0.046843  0  3.981597  0  0  -0.04929  0  4.000961  0  0  -0.012071  -0.045246  0  3.968826  0
C  C67  1  0.19910649  0.78927874  0.12209010  1  0  -0.06198  0  3.74885  0  0  -0.046896  0  3.981778  0  0  -0.049337  0  4.001142  0  0  -0.012083  -0.045296  0  3.969003  0
C  C68  1  0.84323659  0.73488824  0.92090024  1  0  -0.1051  0  3.746974  0  0  -0.122885  0  3.991292  0  0  -0.126655  0  4.01263  0  0  -0.096866  -0.120475  0  3.97707  0
C  C69  1  0.65676510  0.26511285  0.42090122  1  0  -0.105018  0  3.746961  0  0  -0.122781  0  3.991267  0  0  -0.126548  0  4.012609  0  0  -0.096859  -0.120364  0  3.977039  0
C  C70  1  0.15676166  0.23488489  0.57910018  1  0  -0.105211  0  3.746889  0  0  -0.122967  0  3.991211  0  0  -0.126735  0  4.012552  0  0  -0.096921  -0.120554  0  3.976984  0
C  C71  1  0.34323451  0.76511603  0.07910063  1  0  -0.105086  0  3.746868  0  0  -0.122842  0  3.991195  0  0  -0.12661  0  4.012537  0  0  -0.096898  -0.12043  0  3.976966  0
C  C72  1  0.89329559  0.65813874  0.98664813  1  0  -0.040583  0  3.743845  0  0  -0.055988  0  3.993351  0  0  -0.055354  0  4.012785  0  0  -0.087781  -0.056167  0  3.980133  0
C  C73  1  0.60670865  0.34186084  0.48664865  1  0  -0.040631  0  3.743915  0  0  -0.056028  0  3.993412  0  0  -0.055393  0  4.012841  0  0  -0.087802  -0.056207  0  3.980193  0
C  C74  1  0.10670743  0.15813409  0.51335146  1  0  -0.040487  0  3.743825  0  0  -0.055889  0  3.993292  0  0  -0.055255  0  4.012725  0  0  -0.087717  -0.056063  0  3.980067  0
C  C75  1  0.39329583  0.84186462  0.01335087  1  0  -0.040626  0  3.743815  0  0  -0.056033  0  3.993294  0  0  -0.055396  0  4.012718  0  0  -0.087784  -0.056221  0  3.980089  0
C  C76  1  0.79858399  0.55713300  0.01042352  1  0  -0.071432  0  3.763034  0  0  -0.084629  0  4.013497  0  0  -0.088187  0  4.034814  0  0  -0.097332  -0.082386  0  3.999083  0
C  C77  1  0.70142165  0.44286587  0.51042614  1  0  -0.071452  0  3.763031  0  0  -0.084672  0  4.013492  0  0  -0.088216  0  4.034816  0  0  -0.097289  -0.08243  0  3.999079  0
C  C78  1  0.20141670  0.05713280  0.48957465  1  0  -0.071444  0  3.763202  0  0  -0.084648  0  4.013664  0  0  -0.088205  0  4.034985  0  0  -0.097304  -0.082403  0  3.999253  0
C  C79  1  0.29857914  0.94286940  0.98957669  1  0  -0.071439  0  3.763203  0  0  -0.084673  0  4.013654  0  0  -0.088214  0  4.034981  0  0  -0.09729  -0.082422  0  3.999247  0
C  C80  1  0.65351772  0.53442009  0.96933521  1  0  -0.058025  0  3.726232  0  0  -0.079907  0  3.969541  0  0  -0.079046  0  3.989019  0  0  -0.088013  -0.080227  0  3.956457  0
C  C81  1  0.84648769  0.46557754  0.46933617  1  0  -0.057824  0  3.726174  0  0  -0.079698  0  3.969474  0  0  -0.078837  0  3.988946  0  0  -0.087951  -0.080021  0  3.956396  0
C  C82  1  0.34648643  0.03441933  0.53066218  1  0  -0.057918  0  3.726114  0  0  -0.079781  0  3.969415  0  0  -0.078922  0  3.988889  0  0  -0.087998  -0.080106  0  3.956346  0
C  C83  1  0.15351807  0.96558318  0.03066428  1  0  -0.057806  0  3.726169  0  0  -0.079672  0  3.969474  0  0  -0.078808  0  3.988944  0  0  -0.087976  -0.080002  0  3.956407  0
C  C84  1  0.60217228  0.61019122  0.90260824  1  0  -0.105697  0  3.762426  0  0  -0.090507  0  3.995537  0  0  -0.099241  0  4.018762  0  0  -0.024522  -0.084839  0  3.979956  0
C  C85  1  0.89782937  0.38980698  0.40260904  1  0  -0.105748  0  3.7625  0  0  -0.090548  0  3.99562  0  0  -0.099281  0  4.018846  0  0  -0.024557  -0.084885  0  3.980047  0
C  C86  1  0.39782710  0.11019084  0.59739124  1  0  -0.105838  0  3.762464  0  0  -0.090654  0  3.995614  0  0  -0.099375  0  4.018819  0  0  -0.024585  -0.08499  0  3.980043  0
C  C87  1  0.10217514  0.88981203  0.09739312  1  0  -0.105809  0  3.76258  0  0  -0.090672  0  3.995722  0  0  -0.099407  0  4.018945  0  0  -0.024542  -0.085014  0  3.980155  0
C  C88  1  0.44761520  0.58263382  0.85797806  1  0  0.672816  0  3.868141  0  0  0.615846  0  4.16753  0  0  0.650909  0  4.158236  0  0  0.217461  0.592132  0  4.17304  0
C  C89  1  0.05238518  0.41736581  0.35797684  1  0  0.672695  0  3.86821  0  0  0.615683  0  4.167666  0  0  0.650753  0  4.158371  0  0  0.217405  0.591982  0  4.173159  0
C  C90  1  0.55238657  0.08263096  0.64202387  1  0  0.672961  0  3.868094  0  0  0.615953  0  4.167555  0  0  0.651015  0  4.158256  0  0  0.217516  0.592246  0  4.173052  0
C  C91  1  0.94761332  0.91737048  0.14202287  1  0  0.672915  0  3.868199  0  0  0.616007  0  4.167513  0  0  0.65108  0  4.158211  0  0  0.217559  0.592306  0  4.173009  0
S  S92  1  0.91685374  0.77498814  0.55505925  1  0  -0.431987  0  2.026264  0  0  -0.397942  0  2.38261  0  0  -0.417744  0  2.370248  0  0  -0.172829  -0.384046  0  2.390965  0
S  S93  1  0.58314355  0.22501190  0.05505945  1  0  -0.43198  0  2.026271  0  0  -0.397948  0  2.38259  0  0  -0.41775  0  2.370227  0  0  -0.17285  -0.384058  0  2.390941  0
S  S94  1  0.08314574  0.27498580  0.94494064  1  0  -0.431969  0  2.026266  0  0  -0.397932  0  2.382627  0  0  -0.417733  0  2.370264  0  0  -0.172831  -0.384039  0  2.390983  0
S  S95  1  0.41685121  0.72501523  0.44494167  1  0  -0.431974  0  2.026212  0  0  -0.397949  0  2.382572  0  0  -0.41775  0  2.370208  0  0  -0.172834  -0.384055  0  2.390926  0
S  S96  1  0.96817983  0.01750621  0.75379706  1  0  -0.450628  0  2.076865  0  0  -0.417657  0  2.447236  0  0  -0.434768  0  2.431341  0  0  -0.179076  -0.405311  0  2.458118  0
S  S97  1  0.53181910  0.98249212  0.25379345  1  0  -0.450608  0  2.076946  0  0  -0.417643  0  2.447327  0  0  -0.434755  0  2.431432  0  0  -0.179041  -0.405303  0  2.458207  0
S  S98  1  0.03181950  0.51750554  0.74620598  1  0  -0.450608  0  2.076908  0  0  -0.417661  0  2.447319  0  0  -0.434773  0  2.431426  0  0  -0.179053  -0.405323  0  2.458207  0
S  S99  1  0.46818065  0.48249442  0.24620390  1  0  -0.450617  0  2.076942  0  0  -0.417647  0  2.447318  0  0  -0.434762  0  2.431428  0  0  -0.179057  -0.405313  0  2.458195  0
N  N100  1  0.78773727  0.94917831  0.45317105  1  0  -0.672379  0  3.135351  0  0  -0.627496  0  3.367126  0  0  -0.64936  0  3.363676  0  0  -0.566315  -0.612577  0  3.369489  0
N  N101  1  0.71226208  0.05081925  0.95317270  1  0  -0.672451  0  3.135235  0  0  -0.627565  0  3.367077  0  0  -0.649441  0  3.363615  0  0  -0.56633  -0.61265  0  3.369445  0
N  N102  1  0.21226125  0.44917665  0.04682874  1  0  -0.672314  0  3.135544  0  0  -0.627525  0  3.367192  0  0  -0.649362  0  3.363799  0  0  -0.566324  -0.612604  0  3.369555  0
N  N103  1  0.28773606  0.55082131  0.54682853  1  0  -0.672404  0  3.135355  0  0  -0.627577  0  3.367055  0  0  -0.649448  0  3.363599  0  0  -0.566314  -0.612659  0  3.369423  0
N  N104  1  0.95234817  0.80441460  0.39125211  1  0  -0.650425  0  3.071759  0  0  -0.602186  0  3.300679  0  0  -0.62233  0  3.295641  0  0  -0.56054  -0.588476  0  3.304306  0
N  N105  1  0.54765105  0.19558540  0.89125213  1  0  -0.650376  0  3.071747  0  0  -0.602168  0  3.300685  0  0  -0.622312  0  3.295642  0  0  -0.560558  -0.588447  0  3.304336  0
N  N106  1  0.04765026  0.30441136  0.10874795  1  0  -0.650537  0  3.071603  0  0  -0.602265  0  3.300511  0  0  -0.622409  0  3.295477  0  0  -0.560565  -0.588562  0  3.304121  0
N  N107  1  0.45234959  0.69558786  0.60874820  1  0  -0.650494  0  3.071662  0  0  -0.602224  0  3.300569  0  0  -0.622366  0  3.29553  0  0  -0.560551  -0.588526  0  3.304185  0
N  N108  1  0.14638011  0.81047927  0.76608637  1  0  -0.672783  0  3.135528  0  0  -0.626307  0  3.364131  0  0  -0.647707  0  3.36078  0  0  -0.564984  -0.611494  0  3.366797  0
N  N109  1  0.35362008  0.18951894  0.26608476  1  0  -0.672749  0  3.135501  0  0  -0.62628  0  3.364121  0  0  -0.64768  0  3.36077  0  0  -0.565015  -0.611469  0  3.366778  0
N  N110  1  0.85361699  0.31047794  0.73391550  1  0  -0.67267  0  3.135514  0  0  -0.626203  0  3.364105  0  0  -0.647605  0  3.360755  0  0  -0.564951  -0.611396  0  3.366757  0
N  N111  1  0.64638190  0.68952399  0.23391312  1  0  -0.672772  0  3.135501  0  0  -0.626278  0  3.364057  0  0  -0.647677  0  3.360702  0  0  -0.564959  -0.611472  0  3.366714  0
N  N112  1  0.28030115  0.99686506  0.77965287  1  0  -0.652881  0  3.110537  0  0  -0.602662  0  3.339611  0  0  -0.625139  0  3.336478  0  0  -0.556469  -0.587362  0  3.34195  0
N  N113  1  0.21969666  0.00313322  0.27965008  1  0  -0.652791  0  3.110598  0  0  -0.60258  0  3.339652  0  0  -0.625059  0  3.336525  0  0  -0.556461  -0.587282  0  3.341986  0
N  N114  1  0.71969847  0.49686546  0.72034821  1  0  -0.652771  0  3.110669  0  0  -0.602531  0  3.339703  0  0  -0.625009  0  3.336573  0  0  -0.556425  -0.587231  0  3.342032  0
N  N115  1  0.78030279  0.50313547  0.22034796  1  0  -0.652845  0  3.110545  0  0  -0.60262  0  3.339608  0  0  -0.6251  0  3.336482  0  0  -0.556455  -0.587321  0  3.341934  0
O  O116  1  0.72131777  0.76292210  0.73360987  1  0  -0.653941  0  2.113137  0  0  -0.573615  0  2.379863  0  0  -0.602229  0  2.365454  0  0  -0.324928  -0.55334  0  2.389292  0
O  O117  1  0.77868111  0.23707890  0.23361085  1  0  -0.653931  0  2.113272  0  0  -0.573558  0  2.379967  0  0  -0.602165  0  2.365547  0  0  -0.32489  -0.55328  0  2.389397  0
O  O118  1  0.27868171  0.26291702  0.76639062  1  0  -0.653973  0  2.113376  0  0  -0.57356  0  2.380003  0  0  -0.602179  0  2.365609  0  0  -0.324902  -0.553282  0  2.389437  0
O  O119  1  0.22131607  0.73708027  0.26639093  1  0  -0.653873  0  2.113334  0  0  -0.573474  0  2.380031  0  0  -0.602087  0  2.365623  0  0  -0.324856  -0.553203  0  2.389459  0
O  O120  1  0.59056179  0.89679695  0.81900757  1  0  -0.620634  0  1.993834  0  0  -0.566821  0  2.226142  0  0  -0.590252  0  2.216571  0  0  -0.308862  -0.550406  0  2.232321  0
O  O121  1  0.90943486  0.10320451  0.31900640  1  0  -0.620673  0  1.993805  0  0  -0.566894  0  2.226237  0  0  -0.59032  0  2.216662  0  0  -0.308886  -0.550467  0  2.232404  0
O  O122  1  0.40943054  0.39679238  0.68099389  1  0  -0.620794  0  1.993857  0  0  -0.567054  0  2.226306  0  0  -0.59049  0  2.216733  0  0  -0.309027  -0.5506  0  2.232424  0
O  O123  1  0.09056465  0.60320630  0.18099126  1  0  -0.620798  0  1.993586  0  0  -0.566999  0  2.225969  0  0  -0.590424  0  2.216392  0  0  -0.309  -0.55058  0  2.232145  0
O  O124  1  0.40575347  0.64476716  0.79460491  1  0  -0.618952  0  1.995708  0  0  -0.561409  0  2.219553  0  0  -0.584394  0  2.209756  0  0  -0.305916  -0.5453  0  2.225649  0
O  O125  1  0.09424557  0.35523213  0.29460230  1  0  -0.618872  0  1.995759  0  0  -0.561312  0  2.219603  0  0  -0.584299  0  2.209804  0  0  -0.305886  -0.545208  0  2.225699  0
O  O126  1  0.59424111  0.14475909  0.70539780  1  0  -0.618992  0  1.995755  0  0  -0.561431  0  2.219591  0  0  -0.584422  0  2.209796  0  0  -0.30594  -0.545328  0  2.22569  0
O  O127  1  0.90575410  0.85523991  0.20539599  1  0  -0.618981  0  1.995743  0  0  -0.561466  0  2.219572  0  0  -0.584472  0  2.209794  0  0  -0.305979  -0.545353  0  2.225647  0
O  O128  1  0.36485638  0.49148577  0.88968378  1  0  -0.652662  0  2.148379  0  0  -0.565596  0  2.417055  0  0  -0.593928  0  2.400322  0  0  -0.327922  -0.545915  0  2.428012  0
O  O129  1  0.13514287  0.50851589  0.38968157  1  0  -0.652607  0  2.148308  0  0  -0.565521  0  2.41701  0  0  -0.593861  0  2.400256  0  0  -0.327889  -0.545854  0  2.427967  0
O  O130  1  0.63514565  0.99148553  0.61031539  1  0  -0.652704  0  2.148448  0  0  -0.565623  0  2.41717  0  0  -0.593961  0  2.400436  0  0  -0.327922  -0.545947  0  2.428119  0
O  O131  1  0.86485417  0.00851389  0.11031396  1  0  -0.652696  0  2.148529  0  0  -0.565634  0  2.417195  0  0  -0.593976  0  2.400452  0  0  -0.327929  -0.545959  0  2.428146  0
