# generated using pymatgen
data_Zr3H10C26Cl5O19
_symmetry_space_group_name_H-M   'P 1'
_cell_length_a   14.78687568
_cell_length_b   14.77484286
_cell_length_c   14.79242411
_cell_angle_alpha   60.13673280
_cell_angle_beta   59.99375724
_cell_angle_gamma   60.10785198
_symmetry_Int_Tables_number   1
_chemical_formula_structural   Zr3H10C26Cl5O19
_chemical_formula_sum   'Zr6 H20 C52 Cl10 O38'
_cell_volume   2289.30323743
_cell_formula_units_Z   2
loop_
 _symmetry_equiv_pos_site_id
 _symmetry_equiv_pos_as_xyz
  1  'x, y, z'
loop_
 _atom_site_type_symbol
 _atom_site_label
 _atom_site_symmetry_multiplicity
 _atom_site_fract_x
 _atom_site_fract_y
 _atom_site_fract_z
 _atom_site_occupancy
 _atom_site_pbe_bader_charge
 _atom_site_pbe_bader_spin_density
 _atom_site_pbe_cm5_charge
 _atom_site_pbe_ddec_charge
 _atom_site_pbe_ddec_spin_density
 _atom_site_pbe_ddec_sum_bond_order
 _atom_site_pbe_magmom
Zr  Zr0  1  0.86908802  0.88636673  0.62488639  1  2.632155  0  1.622898  2.373489  0  2.738053  0
Zr  Zr1  1  0.11082164  0.12179040  0.38954199  1  2.635424  0  1.632735  2.37958  0  2.769799  0
Zr  Zr2  1  0.10747770  0.88259722  0.62780138  1  2.631273  0  1.62929  2.37397  0  2.761069  0
Zr  Zr3  1  0.87252099  0.12524762  0.38612826  1  2.633931  0  1.620745  2.369762  0  2.728413  0
Zr  Zr4  1  0.10972663  0.88480862  0.38763179  1  2.636985  0  1.635061  2.375587  0  2.763782  0
Zr  Zr5  1  0.87107482  0.12411703  0.62719535  1  2.637365  0  1.626483  2.381958  0  2.726734  0
H  H6  1  0.07938368  0.71964377  0.60279748  1  0.630481  0  0.319202  0.414777  0  0.895053  0
H  H7  1  0.08899305  0.09389614  0.22386166  1  0.618624  0  0.323955  0.416511  0  0.877429  0
H  H8  1  0.08339781  0.09582691  0.60527061  1  0.613236  0  0.332108  0.42591  0  0.854892  0
H  H9  1  0.70800649  0.10253992  0.59896347  1  0.609235  0  0.331837  0.424522  0  0.853076  0
H  H10  1  0.14711053  0.57333368  0.40034317  1  0.115029  0  0.11246  0.12873  0  1.002091  0
H  H11  1  0.81378447  0.46801919  0.56718745  1  0.142811  0  0.104123  0.120606  0  1.029123  0
H  H12  1  0.58044425  0.14616877  0.91067633  1  0.106816  0  0.107565  0.129265  0  1.013813  0
H  H13  1  0.40603646  0.85802866  0.10958784  1  0.156461  0  0.109316  0.128419  0  1.014793  0
H  H14  1  0.81350291  0.07702024  0.15267229  1  0.152459  0  0.106051  0.127151  0  1.023091  0
H  H15  1  0.14118315  0.88470895  0.89847402  1  0.144507  0  0.111026  0.12863  0  1.009094  0
H  H16  1  0.58888359  0.41500526  0.36358729  1  0.122108  0  0.11478  0.135003  0  0.996574  0
H  H17  1  0.41063419  0.61176670  0.63013676  1  0.136832  0  0.113703  0.132963  0  1.002694  0
H  H18  1  0.57738253  0.87684945  0.65023297  1  0.146855  0  0.109056  0.131169  0  1.010843  0
H  H19  1  0.41098524  0.12288406  0.35540121  1  0.136443  0  0.109995  0.130194  0  1.012447  0
H  H20  1  0.07656282  0.39832475  0.20499455  1  0.65222  0  0.312127  0.35696  0  0.955562  0
H  H21  1  0.06706654  0.71001722  0.90436721  1  0.650257  0  0.313643  0.35756  0  0.946809  0
H  H22  1  0.96948210  0.20634538  0.13151661  1  0.649414  0  0.305911  0.345437  0  0.989902  0
H  H23  1  0.02031879  0.15121268  0.94898470  1  0.629403  0  0.313045  0.351791  0  0.938811  0
H  H24  1  0.02164966  0.32146630  0.71347821  1  0.612134  0  0.331505  0.367408  0  0.881993  0
H  H25  1  0.96919509  0.62253118  0.67921576  1  0.645221  0  0.312452  0.349504  0  0.954417  0
C  C26  1  0.97585273  0.71435356  0.49292873  1  1.574468  0  0.243351  0.65596  0  4.069791  0
C  C27  1  0.29779969  0.00481261  0.20842445  1  1.558128  0  0.238586  0.654805  0  4.078605  0
C  C28  1  0.99205338  0.31240982  0.49705458  1  1.571677  0  0.237645  0.651549  0  4.089305  0
C  C29  1  0.68902469  0.99921805  0.81186317  1  1.567264  0  0.239119  0.65554  0  4.078289  0
C  C30  1  0.99260362  0.69495250  0.80732401  1  1.536632  0  0.236783  0.666405  0  4.075875  0
C  C31  1  0.68853698  0.01011674  0.49800309  1  1.602563  0  0.237471  0.652504  0  4.081635  0
C  C32  1  0.99839964  0.30469056  0.19219552  1  1.45996  0  0.229496  0.647685  0  4.067829  0
C  C33  1  0.29670615  0.99286129  0.51062904  1  1.575145  0  0.238189  0.652316  0  4.082801  0
C  C34  1  0.29605286  0.70350954  0.49966302  1  1.590729  0  0.242015  0.659443  0  4.071164  0
C  C35  1  0.97680166  0.99466825  0.82225296  1  1.591893  0  0.239334  0.654897  0  4.08208  0
C  C36  1  0.69761243  0.31697136  0.50072654  1  1.582687  0  0.2402  0.657112  0  4.076756  0
C  C37  1  0.98800989  0.99019884  0.21196025  1  1.587125  0  0.238537  0.659156  0  4.076645  0
C  C38  1  0.98988517  0.41970500  0.48583824  1  0.090183  0  -0.011693  -0.074332  0  3.918024  0
C  C39  1  0.97171376  0.62023485  0.48388741  1  -0.021004  0  -0.009509  -0.075071  0  3.919843  0
C  C40  1  0.08435737  0.45158057  0.43535529  1  -0.01058  0  0.025789  0.141042  0  3.996079  0
C  C41  1  0.87648949  0.59142393  0.52863255  1  0.094034  0  0.022514  0.135491  0  4.012475  0
C  C42  1  0.07380694  0.55058807  0.43521962  1  0.118778  0  -0.074388  -0.126199  0  3.924353  0
C  C43  1  0.88689575  0.49187765  0.52998244  1  0.00549  0  -0.082219  -0.141436  0  3.945302  0
C  C44  1  0.39886648  0.00725308  0.10714819  1  0.064803  0  -0.010069  -0.070508  0  3.90568  0
C  C45  1  0.58875677  0.99601988  0.91405194  1  0.044797  0  -0.011139  -0.072495  0  3.908053  0
C  C46  1  0.44914001  0.08967516  0.05024059  1  0.063568  0  0.022742  0.137318  0  4.002839  0
C  C47  1  0.53834557  0.91369624  0.97085717  1  0.005701  0  0.024003  0.138408  0  4.003394  0
C  C48  1  0.54189205  0.08253107  0.95548753  1  0.05942  0  -0.086328  -0.153821  0  3.969132  0
C  C49  1  0.44532838  0.92104613  0.06542786  1  0.005971  0  -0.082724  -0.146745  0  3.951231  0
C  C50  1  0.97029805  0.98583654  0.93080194  1  0.092535  0  -0.009512  -0.068156  0  3.90265  0
C  C51  1  0.98573082  0.97957580  0.11765417  1  0.00013  0  -0.012646  -0.084221  0  3.925004  0
C  C52  1  0.87599834  0.03757303  0.00576744  1  0.046356  0  0.023031  0.134643  0  4.016034  0
C  C53  1  0.07842031  0.92167627  0.04658192  1  0.073911  0  0.025033  0.136031  0  3.999337  0
C  C54  1  0.88541342  0.03433679  0.09656073  1  0.014793  0  -0.085201  -0.155012  0  3.950877  0
C  C55  1  0.06888889  0.92635100  0.95512543  1  -0.046389  0  -0.080908  -0.142396  0  3.938031  0
C  C56  1  0.40088438  0.60593858  0.49376752  1  -0.011501  0  -0.008193  -0.069576  0  3.897977  0
C  C57  1  0.59770280  0.41968378  0.50108329  1  0.001153  0  -0.011442  -0.076434  0  3.910548  0
C  C58  1  0.45287200  0.54982952  0.41691000  1  0.125338  0  0.025173  0.138475  0  4.000247  0
C  C59  1  0.54667289  0.47699238  0.57673790  1  0.054544  0  0.02344  0.135839  0  4.005659  0
C  C60  1  0.54927983  0.45888512  0.42207463  1  0.013879  0  -0.081334  -0.146041  0  3.942931  0
C  C61  1  0.45031208  0.56790556  0.57160798  1  0.031023  0  -0.080658  -0.144081  0  3.944052  0
C  C62  1  0.01351833  0.58450356  0.89353278  1  0.015478  0  -0.031905  -0.193561  0  3.951554  0
C  C63  1  0.01056689  0.49013526  0.89113769  1  0.046373  0  -0.021868  -0.031658  0  4.049537  0
C  C64  1  0.03980350  0.57411189  0.97765326  1  0.527721  0  0.086572  0.207194  0  4.02584  0
C  C65  1  0.01998300  0.48711409  0.79227033  1  0.565216  0  0.052649  0.137296  0  4.045411  0
C  C66  1  0.01999492  0.39434688  0.78978956  1  0.518883  0  0.059281  0.114765  0  4.139272  0
C  C67  1  0.01800400  0.39068893  0.08234369  1  0.01947  0  -0.039504  -0.2165  0  3.962404  0
C  C68  1  0.04407139  0.47546986  0.07225239  1  0.588749  0  0.092734  0.223752  0  4.021826  0
C  C69  1  0.01035325  0.39258212  0.98791167  1  0.043015  0  -0.027198  -0.037546  0  4.054332  0
C  C70  1  0.01633902  0.29795667  0.98007604  1  0.545829  0  0.047326  0.129893  0  4.105708  0
C  C71  1  0.01798110  0.29995285  0.88459830  1  0.465767  0  0.049188  0.091053  0  4.158877  0
C  C72  1  0.39899462  0.99115235  0.51050077  1  0.053324  0  -0.011207  -0.072962  0  3.906832  0
C  C73  1  0.58928536  0.00864510  0.49531224  1  -0.021039  0  -0.011698  -0.07208  0  3.910257  0
C  C74  1  0.44750594  0.92009058  0.59431208  1  0.016817  0  0.022385  0.136993  0  4.005329  0
C  C75  1  0.54145380  0.07890181  0.41094020  1  0.031564  0  0.02307  0.135845  0  4.005376  0
C  C76  1  0.54044669  0.93055619  0.58527465  1  0.075772  0  -0.086426  -0.153179  0  3.966636  0
C  C77  1  0.44823970  0.06879415  0.42012209  1  0.016581  0  -0.083435  -0.146487  0  3.951614  0
Cl  Cl78  1  0.21696528  0.37047253  0.37970459  1  -0.178225  0  -0.000694  -0.065177  0  1.512774  0
Cl  Cl79  1  0.74461966  0.67559489  0.58094826  1  -0.183439  0  -0.000185  -0.064451  0  1.552607  0
Cl  Cl80  1  0.40396706  0.20187371  0.08898551  1  -0.177736  0  0.005798  -0.054228  0  1.509268  0
Cl  Cl81  1  0.58339619  0.80183002  0.93181397  1  -0.165477  0  0.005031  -0.054542  0  1.500756  0
Cl  Cl82  1  0.74668537  0.10510546  0.99254942  1  -0.179101  0  0.009404  -0.054139  0  1.562906  0
Cl  Cl83  1  0.20753811  0.84802956  0.06073110  1  -0.170163  0  0.009382  -0.047965  0  1.513814  0
Cl  Cl84  1  0.40473524  0.58458080  0.31496391  1  -0.173671  0  0.008419  -0.056951  0  1.51369  0
Cl  Cl85  1  0.59551425  0.44292061  0.67794535  1  -0.175788  0  0.013235  -0.053605  0  1.533751  0
Cl  Cl86  1  0.39930188  0.81885862  0.71090475  1  -0.166003  0  0.006834  -0.05644  0  1.516588  0
Cl  Cl87  1  0.59063071  0.17918012  0.29376725  1  -0.171048  0  0.011608  -0.052875  0  1.52961  0
O  O88  1  0.90363682  0.74696796  0.57631060  1  -1.188409  0  -0.354281  -0.640417  0  2.340421  0
O  O89  1  0.25516712  0.08139791  0.24916169  1  -1.180805  0  -0.364682  -0.624947  0  2.368719  0
O  O90  1  0.06957774  0.26769981  0.42420340  1  -1.183324  0  -0.365431  -0.627702  0  2.370548  0
O  O91  1  0.72971611  0.92459774  0.76927973  1  -1.166068  0  -0.361689  -0.618389  0  2.369898  0
O  O92  1  0.06089277  0.74494736  0.77346492  1  -1.18626  0  -0.369651  -0.64928  0  2.330657  0
O  O93  1  0.72686168  0.08865288  0.42530356  1  -1.176446  0  -0.358483  -0.6186  0  2.352974  0
O  O94  1  0.92042581  0.26528447  0.23028341  1  -1.178891  0  -0.354819  -0.626825  0  2.268345  0
O  O95  1  0.25382760  0.91871145  0.58755468  1  -1.173353  0  -0.359179  -0.620887  0  2.351523  0
O  O96  1  0.25333143  0.74356416  0.42548355  1  -1.174782  0  -0.360828  -0.619897  0  2.355632  0
O  O97  1  0.90670587  0.07706861  0.77728691  1  -1.176629  0  -0.353356  -0.618656  0  2.318267  0
O  O98  1  0.73442746  0.27224480  0.58026754  1  -1.170214  0  -0.359625  -0.621886  0  2.361829  0
O  O99  1  0.06958291  0.92272190  0.24620560  1  -1.171934  0  -0.358296  -0.613304  0  2.385618  0
O  O100  1  0.05647360  0.92051132  0.78035209  1  -1.189082  0  -0.348647  -0.6128  0  2.279454  0
O  O101  1  0.73716658  0.27938713  0.42235143  1  -1.178747  0  -0.348839  -0.608551  0  2.252825  0
O  O102  1  0.90914274  0.06711820  0.25043498  1  -1.182442  0  -0.347251  -0.618785  0  2.289324  0
O  O103  1  0.25657284  0.73974900  0.57879351  1  -1.176501  0  -0.344833  -0.603388  0  2.26198  0
O  O104  1  0.91054226  0.73813168  0.77479129  1  -1.176337  0  -0.341373  -0.609189  0  2.260677  0
O  O105  1  0.25864017  0.07052614  0.43358158  1  -1.175804  0  -0.347875  -0.60784  0  2.294708  0
O  O106  1  0.05813762  0.27535856  0.24869033  1  -1.186148  0  -0.344391  -0.623859  0  2.318578  0
O  O107  1  0.72675692  0.93268442  0.57501068  1  -1.178365  0  -0.348278  -0.608483  0  2.302436  0
O  O108  1  0.72621637  0.07753546  0.77339880  1  -1.17305  0  -0.34723  -0.610802  0  2.285165  0
O  O109  1  0.05558102  0.75041694  0.42161711  1  -1.175499  0  -0.341559  -0.588969  0  2.29277  0
O  O110  1  0.26016290  0.92707444  0.24646200  1  -1.172058  0  -0.342925  -0.602379  0  2.275687  0
O  O111  1  0.91687503  0.27307347  0.57814565  1  -1.180926  0  -0.343696  -0.605698  0  2.240151  0
O  O112  1  0.78826118  0.07517440  0.57242003  1  -1.2328  0  -0.691279  -1.062483  0  2.357298  0
O  O113  1  0.05701126  0.06976938  0.57737101  1  -1.240733  0  -0.692459  -1.067882  0  2.352624  0
O  O114  1  0.05906857  0.07140011  0.30422882  1  -1.250561  0  -0.695192  -1.068044  0  2.355329  0
O  O115  1  0.05485552  0.80052145  0.57457300  1  -1.256997  0  -0.695567  -1.072865  0  2.339218  0
O  O116  1  0.13822591  0.95342444  0.45921567  1  -1.196559  0  -0.796734  -1.154889  0  2.14832  0
O  O117  1  0.93981581  0.95667449  0.45681799  1  -1.197914  0  -0.791561  -1.144717  0  2.139176  0
O  O118  1  0.94210050  0.15231829  0.45776224  1  -1.196045  0  -0.793141  -1.146993  0  2.138346  0
O  O119  1  0.93881827  0.95532531  0.65514568  1  -1.198358  0  -0.792547  -1.147285  0  2.138922  0
O  O120  1  0.06751360  0.47428327  0.14988616  1  -1.134428  0  -0.341465  -0.405373  0  2.288027  0
O  O121  1  0.05766253  0.65434950  0.97953924  1  -1.140273  0  -0.348038  -0.408961  0  2.274567  0
O  O122  1  0.02809672  0.19547837  0.06134257  1  -1.197035  0  -0.378283  -0.476988  0  2.375233  0
O  O123  1  0.02319399  0.20910156  0.87630599  1  -1.152351  0  -0.363101  -0.440277  0  2.320943  0
O  O124  1  0.02573749  0.39289030  0.69554379  1  -1.107947  0  -0.344261  -0.411389  0  2.341284  0
O  O125  1  0.03972148  0.57182797  0.69262592  1  -1.187683  0  -0.37351  -0.457714  0  2.3473  0
