# generated using pymatgen
data_ZnH12C14(NO2)2
_symmetry_space_group_name_H-M   'P 1'
_cell_length_a   9.28616786
_cell_length_b   9.28606081
_cell_length_c   11.01962960
_cell_angle_alpha   91.28873475
_cell_angle_beta   91.28912246
_cell_angle_gamma   100.48190826
_symmetry_Int_Tables_number   1
_chemical_formula_structural   ZnH12C14(NO2)2
_chemical_formula_sum   'Zn2 H24 C28 N4 O8'
_cell_volume   933.80841896
_cell_formula_units_Z   2
loop_
 _symmetry_equiv_pos_site_id
 _symmetry_equiv_pos_as_xyz
  1  'x, y, z'
loop_
 _atom_site_type_symbol
 _atom_site_label
 _atom_site_symmetry_multiplicity
 _atom_site_fract_x
 _atom_site_fract_y
 _atom_site_fract_z
 _atom_site_occupancy
 _atom_site_hle17_bader_spin_density
 _atom_site_hle17_ddec_charge
 _atom_site_hle17_ddec_spin_density
 _atom_site_hle17_ddec_sum_bond_order
 _atom_site_hle17_magmom
 _atom_site_hse06_10hf_bader_spin_density
 _atom_site_hse06_10hf_ddec_charge
 _atom_site_hse06_10hf_ddec_spin_density
 _atom_site_hse06_10hf_ddec_sum_bond_order
 _atom_site_hse06_10hf_magmom
 _atom_site_hse06_bader_spin_density
 _atom_site_hse06_ddec_charge
 _atom_site_hse06_ddec_spin_density
 _atom_site_hse06_ddec_sum_bond_order
 _atom_site_hse06_magmom
 _atom_site_pbe_bader_spin_density
 _atom_site_pbe_cm5_charge
 _atom_site_pbe_ddec_charge
 _atom_site_pbe_ddec_spin_density
 _atom_site_pbe_ddec_sum_bond_order
 _atom_site_pbe_magmom
Zn  Zn0  1  0.85035008  0.14964498  0.24999000  1  0  0.967423  0  1.889665  0  0  0.771937  0  2.368087  0  0  0.820119  0  2.314783  0  0  0.682889  0.73839  0  2.404679  0
Zn  Zn1  1  0.14964668  0.85035234  0.75000071  1  0  0.967337  0  1.88968  0  0  0.771906  0  2.368108  0  0  0.820087  0  2.314806  0  0  0.682888  0.738356  0  2.40469  0
H  H2  1  0.45858517  0.32478045  0.98810457  1  0  0.107462  0  0.939007  0  0  0.119975  0  0.991881  0  0  0.123261  0  0.991428  0  0  0.109303  0.117634  0  0.992362  0
H  H3  1  0.32477382  0.45856982  0.48814574  1  0  0.107575  0  0.938555  0  0  0.120057  0  0.991495  0  0  0.123342  0  0.991041  0  0  0.10931  0.117715  0  0.991979  0
H  H4  1  0.54141718  0.67521816  0.01188541  1  0  0.107512  0  0.938878  0  0  0.120029  0  0.991754  0  0  0.123315  0  0.9913  0  0  0.109293  0.117687  0  0.992239  0
H  H5  1  0.67521637  0.54142815  0.51186569  1  0  0.10746  0  0.93858  0  0  0.119948  0  0.991522  0  0  0.123233  0  0.991068  0  0  0.109261  0.117606  0  0.992005  0
H  H6  1  0.15678739  0.02675383  0.99593109  1  0  0.14724  0  0.935884  0  0  0.160032  0  0.996542  0  0  0.163333  0  0.994634  0  0  0.112802  0.157569  0  0.998194  0
H  H7  1  0.02672842  0.15678735  0.49593593  1  0  0.147392  0  0.935808  0  0  0.16005  0  0.996585  0  0  0.163348  0  0.994682  0  0  0.112809  0.157579  0  0.998244  0
H  H8  1  0.84321116  0.97325552  0.00406179  1  0  0.147203  0  0.935906  0  0  0.160001  0  0.99657  0  0  0.163305  0  0.994657  0  0  0.11277  0.15752  0  0.998239  0
H  H9  1  0.97327361  0.84321664  0.50405962  1  0  0.147349  0  0.935825  0  0  0.160008  0  0.996618  0  0  0.163309  0  0.994711  0  0  0.112798  0.157524  0  0.998289  0
H  H10  1  0.20094200  0.21384141  0.96822838  1  0  0.135408  0  0.917134  0  0  0.14927  0  0.972242  0  0  0.152859  0  0.969456  0  0  0.106896  0.146794  0  0.974264  0
H  H11  1  0.21382104  0.20094497  0.46823944  1  0  0.135457  0  0.917265  0  0  0.149319  0  0.972326  0  0  0.152902  0  0.969538  0  0  0.106972  0.146843  0  0.974336  0
H  H12  1  0.79905956  0.78615932  0.03176526  1  0  0.135451  0  0.917189  0  0  0.149285  0  0.972321  0  0  0.152876  0  0.969531  0  0  0.106932  0.146814  0  0.974335  0
H  H13  1  0.78618146  0.79906228  0.53175802  1  0  0.135473  0  0.917254  0  0  0.14932  0  0.972326  0  0  0.152908  0  0.969532  0  0  0.106969  0.146845  0  0.97434  0
H  H14  1  0.30105986  0.93833475  0.19005254  1  0  0.116075  0  0.924374  0  0  0.130328  0  0.973979  0  0  0.133556  0  0.973075  0  0  0.115044  0.127957  0  0.974867  0
H  H15  1  0.93830407  0.30106811  0.69004949  1  0  0.116008  0  0.924526  0  0  0.130284  0  0.974138  0  0  0.133509  0  0.97324  0  0  0.114974  0.1279  0  0.975044  0
H  H16  1  0.69893591  0.06167775  0.80994216  1  0  0.116029  0  0.924455  0  0  0.130282  0  0.974054  0  0  0.13351  0  0.97315  0  0  0.115032  0.127885  0  0.974975  0
H  H17  1  0.06170771  0.69892295  0.30996232  1  0  0.115996  0  0.924608  0  0  0.130244  0  0.974236  0  0  0.13347  0  0.973336  0  0  0.114954  0.12785  0  0.975154  0
H  H18  1  0.71075365  0.31652982  0.07063474  1  0  0.081249  0  0.919483  0  0  0.092928  0  0.974969  0  0  0.095622  0  0.972712  0  0  0.120797  0.090921  0  0.97665  0
H  H19  1  0.31654396  0.71073872  0.57068129  1  0  0.081086  0  0.919528  0  0  0.092774  0  0.974992  0  0  0.095465  0  0.972737  0  0  0.120671  0.090768  0  0.976672  0
H  H20  1  0.28924382  0.68346531  0.92935956  1  0  0.081249  0  0.919481  0  0  0.092914  0  0.974978  0  0  0.095608  0  0.972722  0  0  0.120794  0.090906  0  0.976659  0
H  H21  1  0.68344575  0.28924935  0.42933623  1  0  0.081222  0  0.919329  0  0  0.092868  0  0.974838  0  0  0.095558  0  0.972586  0  0  0.120761  0.090861  0  0.976519  0
H  H22  1  0.56055991  0.94320924  0.26183590  1  0  0.082408  0  0.931032  0  0  0.092493  0  0.988958  0  0  0.095132  0  0.986918  0  0  0.119334  0.090527  0  0.99043  0
H  H23  1  0.94319088  0.56056356  0.76183425  1  0  0.08226  0  0.930992  0  0  0.092317  0  0.988952  0  0  0.094953  0  0.986919  0  0  0.119281  0.090363  0  0.990429  0
H  H24  1  0.43943062  0.05680419  0.73815778  1  0  0.082192  0  0.931044  0  0  0.092312  0  0.988951  0  0  0.094952  0  0.986913  0  0  0.119248  0.090354  0  0.990426  0
H  H25  1  0.05681773  0.43942084  0.23817912  1  0  0.082283  0  0.930935  0  0  0.092369  0  0.98888  0  0  0.095007  0  0.986845  0  0  0.119285  0.090416  0  0.990357  0
C  C26  1  0.35806549  0.13212068  0.08300762  1  0  0.209557  0  3.710227  0  0  0.220077  0  3.950728  0  0  0.227459  0  3.971463  0  0  0.022977  0.215278  0  3.936601  0
C  C27  1  0.13209736  0.35805805  0.58302717  1  0  0.209873  0  3.710003  0  0  0.220637  0  3.95013  0  0  0.22802  0  3.970861  0  0  0.023148  0.215829  0  3.936001  0
C  C28  1  0.64192987  0.86788199  0.91698863  1  0  0.209592  0  3.710205  0  0  0.220125  0  3.950671  0  0  0.227507  0  3.971413  0  0  0.023024  0.215328  0  3.936531  0
C  C29  1  0.86790467  0.64193267  0.41698528  1  0  0.209685  0  3.710112  0  0  0.220377  0  3.950337  0  0  0.227751  0  3.971088  0  0  0.023157  0.215579  0  3.936199  0
C  C30  1  0.47625913  0.23871599  0.04940801  1  0  -0.185022  0  3.73197  0  0  -0.20224  0  3.979025  0  0  -0.211658  0  4.001238  0  0  -0.085841  -0.196239  0  3.964182  0
C  C31  1  0.23870753  0.47624664  0.54944849  1  0  -0.185417  0  3.732035  0  0  -0.202715  0  3.979055  0  0  -0.212137  0  4.001265  0  0  -0.085979  -0.196709  0  3.964214  0
C  C32  1  0.52373655  0.76128130  0.95058267  1  0  -0.185279  0  3.732041  0  0  -0.202509  0  3.979101  0  0  -0.21193  0  4.001311  0  0  -0.085873  -0.196507  0  3.964262  0
C  C33  1  0.76129156  0.52374616  0.45056485  1  0  -0.185136  0  3.732048  0  0  -0.202441  0  3.979104  0  0  -0.211861  0  4.001314  0  0  -0.085868  -0.196437  0  3.96426  0
C  C34  1  0.20515188  0.13358793  0.03920971  1  0  -0.336997  0  3.674597  0  0  -0.375215  0  3.906726  0  0  -0.383032  0  3.913066  0  0  -0.163631  -0.369834  0  3.902492  0
C  C35  1  0.13355832  0.20514320  0.53921440  1  0  -0.337254  0  3.674558  0  0  -0.375415  0  3.906521  0  0  -0.383214  0  3.912826  0  0  -0.163749  -0.370011  0  3.902286  0
C  C36  1  0.79484506  0.86641807  0.96078576  1  0  -0.336971  0  3.674552  0  0  -0.375157  0  3.906571  0  0  -0.38298  0  3.912913  0  0  -0.163603  -0.369763  0  3.902351  0
C  C37  1  0.86644127  0.79485195  0.46078449  1  0  -0.33723  0  3.674588  0  0  -0.375303  0  3.906437  0  0  -0.383104  0  3.91274  0  0  -0.163769  -0.369901  0  3.902219  0
C  C38  1  0.10152401  0.15773250  0.14023709  1  0  0.687918  0  3.870979  0  0  0.646971  0  4.165046  0  0  0.679377  0  4.159628  0  0  0.198151  0.625021  0  4.167705  0
C  C39  1  0.15770046  0.10150730  0.64024092  1  0  0.688008  0  3.871385  0  0  0.647201  0  4.165177  0  0  0.679607  0  4.159749  0  0  0.198283  0.625246  0  4.167844  0
C  C40  1  0.89848307  0.84228363  0.85975981  1  0  0.687987  0  3.871258  0  0  0.6471  0  4.165217  0  0  0.679509  0  4.159792  0  0  0.198211  0.62515  0  4.167873  0
C  C41  1  0.84229700  0.89848025  0.35974865  1  0  0.687855  0  3.87133  0  0  0.647005  0  4.165217  0  0  0.679408  0  4.159791  0  0  0.198059  0.625055  0  4.167877  0
C  C42  1  0.38911770  0.02343999  0.16076003  1  0  -0.154693  0  3.692742  0  0  -0.175869  0  3.944301  0  0  -0.183427  0  3.964345  0  0  -0.07631  -0.171099  0  3.930899  0
C  C43  1  0.02341196  0.38911233  0.66077536  1  0  -0.154842  0  3.69266  0  0  -0.176179  0  3.944229  0  0  -0.183739  0  3.964266  0  0  -0.076356  -0.171397  0  3.930844  0
C  C44  1  0.61087982  0.97656938  0.83922828  1  0  -0.154814  0  3.692652  0  0  -0.175991  0  3.944209  0  0  -0.183547  0  3.96425  0  0  -0.076465  -0.1712  0  3.930822  0
C  C45  1  0.97659318  0.61087743  0.33923443  1  0  -0.15478  0  3.692808  0  0  -0.176036  0  3.944378  0  0  -0.183594  0  3.96442  0  0  -0.076387  -0.171246  0  3.930993  0
C  C46  1  0.61624694  0.23516052  0.09491684  1  0  0.123345  0  3.742974  0  0  0.089292  0  3.99861  0  0  0.096916  0  4.017421  0  0  0.042868  0.084382  0  3.985843  0
C  C47  1  0.23516347  0.61623108  0.59495695  1  0  0.123664  0  3.743226  0  0  0.089704  0  3.998761  0  0  0.097338  0  4.017561  0  0  0.043101  0.084792  0  3.985993  0
C  C48  1  0.38374999  0.76483791  0.90507299  1  0  0.123584  0  3.742914  0  0  0.089572  0  3.998541  0  0  0.0972  0  4.017347  0  0  0.042974  0.08466  0  3.985773  0
C  C49  1  0.76483232  0.38376155  0.40506084  1  0  0.123549  0  3.742933  0  0  0.089601  0  3.998459  0  0  0.097235  0  4.017259  0  0  0.043013  0.08469  0  3.985691  0
C  C50  1  0.53175134  0.02622702  0.20206205  1  0  0.126131  0  3.725986  0  0  0.093509  0  3.980154  0  0  0.100517  0  3.998855  0  0  0.046643  0.089029  0  3.967451  0
C  C51  1  0.02620666  0.53174868  0.70206987  1  0  0.126467  0  3.725757  0  0  0.093915  0  3.980002  0  0  0.100923  0  3.9987  0  0  0.046758  0.089412  0  3.967314  0
C  C52  1  0.46824596  0.97378120  0.79793077  1  0  0.126488  0  3.725702  0  0  0.093858  0  3.979916  0  0  0.100862  0  3.998622  0  0  0.046828  0.089363  0  3.967216  0
C  C53  1  0.97379774  0.46824326  0.29793814  1  0  0.126462  0  3.725638  0  0  0.093807  0  3.979892  0  0  0.100815  0  3.998592  0  0  0.04674  0.089306  0  3.967203  0
N  N54  1  0.64376405  0.13150332  0.17098115  1  0  -0.336205  0  3.330979  0  0  -0.255327  0  3.611951  0  0  -0.274894  0  3.628098  0  0  -0.33605  -0.242239  0  3.600985  0
N  N55  1  0.13149338  0.64375578  0.67101076  1  0  -0.336274  0  3.331155  0  0  -0.255544  0  3.612301  0  0  -0.275115  0  3.628452  0  0  -0.336162  -0.242453  0  3.601336  0
N  N56  1  0.35623287  0.86850265  0.82901614  1  0  -0.336267  0  3.330858  0  0  -0.255477  0  3.611939  0  0  -0.275045  0  3.628086  0  0  -0.33611  -0.242388  0  3.600979  0
N  N57  1  0.86850508  0.35624022  0.32900627  1  0  -0.33642  0  3.330858  0  0  -0.255561  0  3.611883  0  0  -0.275137  0  3.628039  0  0  -0.336137  -0.242472  0  3.600925  0
O  O58  1  0.13943437  0.16165075  0.24990672  1  0  -0.626864  0  1.898527  0  0  -0.582646  0  2.117514  0  0  -0.606262  0  2.109641  0  0  -0.328188  -0.566054  0  2.12238  0
O  O59  1  0.16156754  0.13937750  0.74991127  1  0  -0.626911  0  1.899094  0  0  -0.582782  0  2.1181  0  0  -0.606403  0  2.11022  0  0  -0.328186  -0.566189  0  2.122974  0
O  O60  1  0.86059763  0.83840216  0.75009176  1  0  -0.626882  0  1.89898  0  0  -0.58271  0  2.117963  0  0  -0.606328  0  2.110083  0  0  -0.328204  -0.566118  0  2.122832  0
O  O61  1  0.83843410  0.86061006  0.25009111  1  0  -0.626699  0  1.899276  0  0  -0.582544  0  2.118264  0  0  -0.60616  0  2.110387  0  0  -0.328029  -0.565955  0  2.123136  0
O  O62  1  0.97057922  0.16965256  0.10232874  1  0  -0.660714  0  2.003521  0  0  -0.589537  0  2.26258  0  0  -0.618804  0  2.248598  0  0  -0.346251  -0.568824  0  2.271198  0
O  O63  1  0.16966351  0.97057349  0.60232692  1  0  -0.660726  0  2.003606  0  0  -0.589585  0  2.262565  0  0  -0.618854  0  2.248585  0  0  -0.346321  -0.568872  0  2.271181  0
O  O64  1  0.02941907  0.83034141  0.89767462  1  0  -0.66079  0  2.00352  0  0  -0.589614  0  2.262494  0  0  -0.61888  0  2.24851  0  0  -0.346304  -0.568903  0  2.271115  0
O  O65  1  0.83033764  0.02942404  0.39765937  1  0  -0.660776  0  2.003409  0  0  -0.589607  0  2.262381  0  0  -0.61888  0  2.248404  0  0  -0.346232  -0.568892  0  2.270998  0
