# generated using pymatgen
data_CdH12(C7N5)2
_symmetry_space_group_name_H-M   'P 1'
_cell_length_a   7.69310482
_cell_length_b   7.69310345
_cell_length_c   25.60742582
_cell_angle_alpha   92.89841231
_cell_angle_beta   92.89866679
_cell_angle_gamma   93.25680443
_symmetry_Int_Tables_number   1
_chemical_formula_structural   CdH12(C7N5)2
_chemical_formula_sum   'Cd4 H48 C56 N40'
_cell_volume   1508.99064461
_cell_formula_units_Z   4
loop_
 _symmetry_equiv_pos_site_id
 _symmetry_equiv_pos_as_xyz
  1  'x, y, z'
loop_
 _atom_site_type_symbol
 _atom_site_label
 _atom_site_symmetry_multiplicity
 _atom_site_fract_x
 _atom_site_fract_y
 _atom_site_fract_z
 _atom_site_occupancy
 _atom_site_hle17_bader_spin_density
 _atom_site_hle17_ddec_charge
 _atom_site_hle17_ddec_spin_density
 _atom_site_hle17_ddec_sum_bond_order
 _atom_site_hle17_magmom
 _atom_site_hse06_10hf_bader_charge
 _atom_site_hse06_10hf_bader_spin_density
 _atom_site_hse06_10hf_ddec_charge
 _atom_site_hse06_10hf_ddec_spin_density
 _atom_site_hse06_10hf_ddec_sum_bond_order
 _atom_site_hse06_10hf_magmom
 _atom_site_hse06_bader_charge
 _atom_site_hse06_bader_spin_density
 _atom_site_hse06_ddec_charge
 _atom_site_hse06_ddec_spin_density
 _atom_site_hse06_ddec_sum_bond_order
 _atom_site_hse06_magmom
 _atom_site_pbe_bader_spin_density
 _atom_site_pbe_cm5_charge
 _atom_site_pbe_ddec_charge
 _atom_site_pbe_ddec_spin_density
 _atom_site_pbe_ddec_sum_bond_order
 _atom_site_pbe_magmom
Cd  Cd0  1  0.76077002  0.56971533  0.03143716  1  0  0.950936  0  1.840276  0  1.247596  0  0.739998  0  2.29714  0  1.295021  0  0.787669  0  2.25775  0  0  0.807087  0.706563  0  2.323932  0
Cd  Cd1  1  0.56971535  0.76076801  0.53143659  1  0  0.950948  0  1.840192  0  1.247574  0  0.739993  0  2.297091  0  1.294995  0  0.787666  0  2.257699  0  0  0.807079  0.706558  0  2.323882  0
Cd  Cd2  1  0.23923191  0.43028413  0.96856340  1  0  0.950934  0  1.840237  0  1.24758  0  0.739993  0  2.297116  0  1.29498  0  0.787665  0  2.257724  0  0  0.80708  0.706557  0  2.323906  0
Cd  Cd3  1  0.43028399  0.23923145  0.46856275  1  0  0.950949  0  1.840243  0  1.247604  0  0.740015  0  2.297121  0  1.295  0  0.787686  0  2.257729  0  0  0.807073  0.706578  0  2.323912  0
H  H4  1  0.81544825  0.90989456  0.01222045  1  0  0.305083  0  0.912974  0  0.458542  0  0.287748  0  0.98128  0  0.478799  0  0.293678  0  0.977143  0  0  0.297215  0.2835  0  0.984302  0
H  H5  1  0.90989249  0.81544571  0.51222003  1  0  0.305058  0  0.912994  0  0.458488  0  0.287716  0  0.981316  0  0.478791  0  0.293649  0  0.977179  0  0  0.297206  0.283467  0  0.984339  0
H  H6  1  0.18455506  0.09010620  0.98778054  1  0  0.305033  0  0.91301  0  0.458473  0  0.287703  0  0.98131  0  0.478766  0  0.293633  0  0.977175  0  0  0.297188  0.283455  0  0.984331  0
H  H7  1  0.09010684  0.18455375  0.48778009  1  0  0.305059  0  0.912982  0  0.458488  0  0.287727  0  0.981286  0  0.478781  0  0.293658  0  0.977149  0  0  0.297209  0.283479  0  0.984309  0
H  H8  1  0.00288792  0.87436649  0.04428521  1  0  0.305643  0  0.933192  0  0.471104  0  0.284873  0  1.006685  0  0.480432  0  0.291935  0  1.000825  0  0  0.292852  0.279858  0  1.010775  0
H  H9  1  0.87436871  0.00288586  0.54428578  1  0  0.30555  0  0.933266  0  0.47113  0  0.284841  0  1.006683  0  0.480456  0  0.291902  0  1.000824  0  0  0.292841  0.279828  0  1.010767  0
H  H10  1  0.99711395  0.12563167  0.95571454  1  0  0.305541  0  0.933272  0  0.471126  0  0.284834  0  1.006686  0  0.480454  0  0.291896  0  1.000826  0  0  0.292835  0.279818  0  1.010779  0
H  H11  1  0.12562939  0.99711489  0.45571474  1  0  0.305532  0  0.933269  0  0.471124  0  0.28483  0  1.006678  0  0.480452  0  0.291891  0  1.000818  0  0  0.292842  0.279813  0  1.01077  0
H  H12  1  0.71611159  0.34695729  0.10687489  1  0  0.29779  0  0.910495  0  0.445539  0  0.286498  0  0.968853  0  0.456763  0  0.290921  0  0.967801  0  0  0.29593  0.283364  0  0.969641  0
H  H13  1  0.34695570  0.71611334  0.60687541  1  0  0.297768  0  0.910535  0  0.445519  0  0.28651  0  0.968875  0  0.456751  0  0.290931  0  0.967826  0  0  0.295954  0.283376  0  0.969663  0
H  H14  1  0.28388658  0.65304477  0.89312486  1  0  0.297772  0  0.910525  0  0.445518  0  0.286515  0  0.968859  0  0.456751  0  0.290935  0  0.96781  0  0  0.295957  0.283381  0  0.969647  0
H  H15  1  0.65304233  0.28388612  0.39312352  1  0  0.29783  0  0.910483  0  0.44554  0  0.286541  0  0.968839  0  0.456789  0  0.290963  0  0.967787  0  0  0.295971  0.283407  0  0.969629  0
H  H16  1  0.53847228  0.45548199  0.11368638  1  0  0.304036  0  0.940246  0  0.477804  0  0.280318  0  1.019215  0  0.488144  0  0.287591  0  1.013057  0  0  0.290489  0.275158  0  1.023505  0
H  H17  1  0.45548163  0.53847708  0.61368716  1  0  0.304082  0  0.940164  0  0.477839  0  0.280366  0  1.019149  0  0.488178  0  0.287639  0  1.012989  0  0  0.290541  0.275207  0  1.023439  0
H  H18  1  0.46152185  0.54451745  0.88631327  1  0  0.304093  0  0.940157  0  0.477846  0  0.280377  0  1.019138  0  0.488182  0  0.287649  0  1.012978  0  0  0.290545  0.275217  0  1.023428  0
H  H19  1  0.54451518  0.46152368  0.38631178  1  0  0.3041  0  0.940193  0  0.477844  0  0.280389  0  1.019153  0  0.488181  0  0.28766  0  1.012994  0  0  0.290543  0.275229  0  1.023444  0
H  H20  1  0.98029167  0.77872567  0.28737129  1  0  0.086892  0  0.96237  0  0.044293  0  0.098801  0  1.022443  0  0.045559  0  0.101137  0  1.022131  0  0  0.099013  0.097141  0  1.022766  0
H  H21  1  0.77872634  0.98029581  0.78737161  1  0  0.086899  0  0.962354  0  0.04427  0  0.098804  0  1.02243  0  0.045534  0  0.10114  0  1.022119  0  0  0.099031  0.097143  0  1.022752  0
H  H22  1  0.01970398  0.22127769  0.71262727  1  0  0.086885  0  0.962346  0  0.044259  0  0.09879  0  1.022429  0  0.045511  0  0.101127  0  1.022115  0  0  0.099005  0.097128  0  1.022754  0
H  H23  1  0.22127431  0.01970366  0.21262658  1  0  0.08687  0  0.962314  0  0.044229  0  0.098766  0  1.022409  0  0.045487  0  0.101102  0  1.022097  0  0  0.099004  0.097105  0  1.022732  0
H  H24  1  0.43226111  0.06112990  0.14626880  1  0  0.096014  0  0.960354  0  0.103245  0  0.103952  0  1.026999  0  0.106609  0  0.106908  0  1.024815  0  0  0.102562  0.101835  0  1.028577  0
H  H25  1  0.06113330  0.43225910  0.64627168  1  0  0.096019  0  0.960276  0  0.103246  0  0.103971  0  1.026913  0  0.106612  0  0.106927  0  1.024728  0  0  0.102551  0.101851  0  1.028497  0
H  H26  1  0.56773939  0.93886696  0.85373013  1  0  0.096016  0  0.960346  0  0.103247  0  0.103961  0  1.026979  0  0.106611  0  0.106918  0  1.024794  0  0  0.102561  0.101843  0  1.028562  0
H  H27  1  0.93886738  0.56774165  0.35373083  1  0  0.096002  0  0.960333  0  0.103233  0  0.10396  0  1.026961  0  0.106593  0  0.106916  0  1.024776  0  0  0.10255  0.101842  0  1.028542  0
H  H28  1  0.51239239  0.61100126  0.19347667  1  0  0.107213  0  0.951875  0  0.068417  0  0.114684  0  1.01536  0  0.071369  0  0.118204  0  1.013623  0  0  0.101731  0.112158  0  1.0167  0
H  H29  1  0.61100452  0.51239844  0.69347687  1  0  0.107247  0  0.951897  0  0.068459  0  0.114715  0  1.01538  0  0.071414  0  0.118237  0  1.013639  0  0  0.101749  0.112188  0  1.01672  0
H  H30  1  0.48760029  0.38899556  0.80652330  1  0  0.107223  0  0.951808  0  0.068486  0  0.114694  0  1.015304  0  0.071438  0  0.118215  0  1.013562  0  0  0.101727  0.112168  0  1.016643  0
H  H31  1  0.38899605  0.48759973  0.30652169  1  0  0.107167  0  0.9519  0  0.068495  0  0.114666  0  1.015367  0  0.071447  0  0.118187  0  1.013626  0  0  0.101708  0.112142  0  1.016702  0
H  H32  1  0.06715779  0.02538649  0.12475454  1  0  0.10762  0  0.94969  0  0.102024  0  0.115928  0  1.014114  0  0.106681  0  0.119457  0  1.012182  0  0  0.101804  0.113367  0  1.01564  0
H  H33  1  0.02538973  0.06715688  0.62475415  1  0  0.107568  0  0.9497  0  0.102036  0  0.115878  0  1.014122  0  0.106917  0  0.119405  0  1.012194  0  0  0.101798  0.113319  0  1.015652  0
H  H34  1  0.93284674  0.97461298  0.87524644  1  0  0.107641  0  0.949713  0  0.102033  0  0.115929  0  1.01415  0  0.106919  0  0.11946  0  1.012221  0  0  0.101825  0.11337  0  1.015673  0
H  H35  1  0.97461235  0.93284519  0.37524645  1  0  0.107622  0  0.949727  0  0.10203  0  0.115942  0  1.014133  0  0.106915  0  0.119458  0  1.012219  0  0  0.101817  0.11338  0  1.015667  0
H  H36  1  0.96225324  0.16899444  0.20593062  1  0  0.085289  0  0.970097  0  0.079488  0  0.097955  0  1.032377  0  0.081926  0  0.099813  0  1.032205  0  0  0.100343  0.096624  0  1.032505  0
H  H37  1  0.16899562  0.96225331  0.70593127  1  0  0.085298  0  0.97012  0  0.079407  0  0.097965  0  1.032397  0  0.081838  0  0.099824  0  1.032225  0  0  0.100339  0.096635  0  1.032527  0
H  H38  1  0.03774616  0.83100631  0.79406991  1  0  0.085272  0  0.970053  0  0.079499  0  0.09794  0  1.03233  0  0.082154  0  0.099798  0  1.032158  0  0  0.100337  0.096609  0  1.03246  0
H  H39  1  0.83100522  0.03775006  0.29406933  1  0  0.085313  0  0.970072  0  0.079305  0  0.097974  0  1.032345  0  0.081954  0  0.099833  0  1.032173  0  0  0.100354  0.096643  0  1.032475  0
H  H40  1  0.15806146  0.65399877  0.21797378  1  0  0.091873  0  0.95469  0  0.031901  0  0.103768  0  1.014468  0  0.104142  0  0.106694  0  1.012296  0  0  0.103045  0.10162  0  1.016096  0
H  H41  1  0.65399738  0.15806443  0.71797373  1  0  0.09195  0  0.95469  0  0.031868  0  0.103808  0  1.014508  0  0.104111  0  0.106734  0  1.012336  0  0  0.103067  0.10166  0  1.016134  0
H  H42  1  0.84193281  0.34600327  0.78202592  1  0  0.091882  0  0.954793  0  0.031599  0  0.103776  0  1.014571  0  0.103852  0  0.106702  0  1.012401  0  0  0.103058  0.101626  0  1.016198  0
H  H43  1  0.34600450  0.84193374  0.28202486  1  0  0.091938  0  0.954764  0  0.031597  0  0.1038  0  1.014584  0  0.103842  0  0.106727  0  1.012412  0  0  0.103087  0.101668  0  1.016193  0
H  H44  1  0.65470558  0.75449403  0.27548582  1  0  0.085252  0  0.993731  0  0.109289  0  0.087773  0  1.06956  0  0.113187  0  0.091031  0  1.06719  0  0  0.094627  0.085427  0  1.071248  0
H  H45  1  0.75449650  0.65470859  0.77548634  1  0  0.085226  0  0.99376  0  0.10931  0  0.087746  0  1.069606  0  0.113228  0  0.091005  0  1.067233  0  0  0.094609  0.085397  0  1.07129  0
H  H46  1  0.34529007  0.24550933  0.72451392  1  0  0.085246  0  0.993747  0  0.109312  0  0.08776  0  1.069586  0  0.113317  0  0.091015  0  1.06722  0  0  0.094606  0.085415  0  1.071274  0
H  H47  1  0.24550545  0.34529088  0.22451265  1  0  0.085206  0  0.993783  0  0.109315  0  0.08773  0  1.069618  0  0.113216  0  0.090988  0  1.067249  0  0  0.094628  0.085383  0  1.071304  0
H  H48  1  0.64252630  0.18760997  0.21664259  1  0  0.09085  0  0.965181  0  0.066632  0  0.103033  0  1.025671  0  0.070942  0  0.104938  0  1.026625  0  0  0.098665  0.101675  0  1.025079  0
H  H49  1  0.18761024  0.64252955  0.71664428  1  0  0.090847  0  0.965168  0  0.066565  0  0.10302  0  1.02567  0  0.070904  0  0.104925  0  1.026623  0  0  0.098685  0.101663  0  1.025075  0
H  H50  1  0.35747180  0.81239079  0.78335715  1  0  0.090812  0  0.965198  0  0.066801  0  0.103003  0  1.02568  0  0.0711  0  0.104908  0  1.026633  0  0  0.098645  0.101641  0  1.025088  0
H  H51  1  0.81239458  0.35747514  0.28335719  1  0  0.090847  0  0.965201  0  0.066783  0  0.10306  0  1.025646  0  0.071098  0  0.104966  0  1.0266  0  0  0.098673  0.101693  0  1.025066  0
C  C52  1  0.05238349  0.49809191  0.12769788  1  0  0.282828  0  3.797196  0  0.96006  0  0.260019  0  4.06293  0  0.95306  0  0.270763  0  4.080054  0  0  0.209355  0.252878  0  4.051323  0
C  C53  1  0.49809032  0.05238740  0.62769781  1  0  0.282999  0  3.797372  0  0.960023  0  0.260229  0  4.063069  0  0.952888  0  0.270974  0  4.08019  0  0  0.209468  0.253089  0  4.051461  0
C  C54  1  0.94761201  0.50190883  0.87230182  1  0  0.282959  0  3.797398  0  0.960019  0  0.26021  0  4.063075  0  0.95304  0  0.270953  0  4.080194  0  0  0.209449  0.253068  0  4.051465  0
C  C55  1  0.50191039  0.94761338  0.37230119  1  0  0.282974  0  3.797338  0  0.960017  0  0.260208  0  4.063034  0  0.952959  0  0.270951  0  4.080156  0  0  0.209421  0.253068  0  4.051424  0
C  C56  1  0.75417160  0.55162023  0.16012358  1  0  0.2644  0  3.765301  0  0.407539  0  0.256279  0  4.007833  0  0.426697  0  0.264098  0  4.030068  0  0  0.089867  0.250982  0  3.992682  0
C  C57  1  0.55161693  0.75417434  0.66012264  1  0  0.264342  0  3.765403  0  0.407545  0  0.256295  0  4.007878  0  0.427294  0  0.264114  0  4.030113  0  0  0.089889  0.250997  0  3.992728  0
C  C58  1  0.24582533  0.44838312  0.83987774  1  0  0.264397  0  3.765449  0  0.407336  0  0.256344  0  4.007933  0  0.426915  0  0.264162  0  4.030166  0  0  0.08995  0.251046  0  3.99278  0
C  C59  1  0.44838097  0.24582251  0.33987586  1  0  0.264218  0  3.765447  0  0.407455  0  0.256206  0  4.007883  0  0.426936  0  0.264023  0  4.030118  0  0  0.089855  0.25091  0  3.992728  0
C  C60  1  0.49533342  0.88487755  0.05964672  1  0  0.293033  0  3.770379  0  0.931414  0  0.269603  0  4.037296  0  0.991811  0  0.280274  0  4.0543  0  0  0.209956  0.262468  0  4.025793  0
C  C61  1  0.88487910  0.49533269  0.55964854  1  0  0.292918  0  3.770457  0  0.931403  0  0.269521  0  4.037297  0  0.991828  0  0.280196  0  4.054297  0  0  0.20993  0.262386  0  4.025791  0
C  C62  1  0.50466714  0.11512061  0.94035301  1  0  0.292925  0  3.770508  0  0.931394  0  0.26952  0  4.037396  0  0.991807  0  0.280194  0  4.054396  0  0  0.209947  0.262393  0  4.025878  0
C  C63  1  0.11511891  0.50466674  0.44035351  1  0  0.292917  0  3.770527  0  0.931  0  0.269501  0  4.037406  0  0.991825  0  0.280174  0  4.054408  0  0  0.209922  0.26237  0  4.025899  0
C  C64  1  0.80935153  0.95699620  0.09109795  1  0  0.264324  0  3.766552  0  0.330982  0  0.254084  0  4.015387  0  0.339646  0  0.261815  0  4.037283  0  0  0.087195  0.248787  0  4.000501  0
C  C65  1  0.95700651  0.80935265  0.59109782  1  0  0.264291  0  3.766429  0  0.331164  0  0.253922  0  4.015408  0  0.339528  0  0.261652  0  4.037308  0  0  0.087155  0.248625  0  4.000521  0
C  C66  1  0.19065134  0.04299675  0.90890291  1  0  0.264273  0  3.76647  0  0.33105  0  0.25397  0  4.01539  0  0.339504  0  0.261702  0  4.037291  0  0  0.087187  0.248674  0  4.0005  0
C  C67  1  0.04299947  0.19064943  0.40890284  1  0  0.264304  0  3.766461  0  0.330933  0  0.254012  0  4.015359  0  0.339519  0  0.261742  0  4.037256  0  0  0.087207  0.248716  0  4.000468  0
C  C68  1  0.93804902  0.56407091  0.16698648  1  0  -0.105202  0  3.78059  0  -0.04022  0  -0.088643  0  4.01455  0  0.008137  0  -0.094478  0  4.03832  0  0  -0.017188  -0.084951  0  3.998637  0
C  C69  1  0.56406869  0.93805212  0.66698584  1  0  -0.105294  0  3.780539  0  -0.040187  0  -0.08883  0  4.014594  0  0.008175  0  -0.094664  0  4.038358  0  0  -0.01726  -0.085137  0  3.998682  0
C  C70  1  0.06194388  0.43592983  0.83301317  1  0  -0.105317  0  3.780701  0  -0.039981  0  -0.088875  0  4.014782  0  0.008144  0  -0.094704  0  4.038537  0  0  -0.017273  -0.08518  0  3.998865  0
C  C71  1  0.43593195  0.06194736  0.33301275  1  0  -0.105193  0  3.78059  0  -0.040201  0  -0.088738  0  4.014624  0  0.008163  0  -0.094567  0  4.038386  0  0  -0.017223  -0.085048  0  3.998715  0
C  C72  1  0.62839843  0.96700083  0.09719946  1  0  -0.102393  0  3.763956  0  0.01209  0  -0.087141  0  3.998686  0  0.025347  0  -0.092648  0  4.021868  0  0  -0.017577  -0.083623  0  3.983166  0
C  C73  1  0.96700590  0.62839459  0.59719969  1  0  -0.102229  0  3.763813  0  0.012004  0  -0.086874  0  3.998429  0  0.025319  0  -0.092382  0  4.021612  0  0  -0.017487  -0.083358  0  3.982913  0
C  C74  1  0.37160335  0.03299602  0.90280183  1  0  -0.102294  0  3.763841  0  0.012178  0  -0.087029  0  3.998569  0  0.025322  0  -0.092538  0  4.02175  0  0  -0.017558  -0.083516  0  3.983051  0
C  C75  1  0.03299732  0.37160487  0.40280167  1  0  -0.102318  0  3.763924  0  0.012182  0  -0.087013  0  3.998581  0  0.025329  0  -0.092522  0  4.021763  0  0  -0.017536  -0.083502  0  3.983069  0
C  C76  1  0.91600201  0.71486324  0.25203571  1  0  -0.094993  0  3.800321  0  0.017886  0  -0.110823  0  4.056485  0  0.020358  0  -0.114991  0  4.078863  0  0  -0.101585  -0.108117  0  4.041227  0
C  C77  1  0.71486191  0.91600368  0.75203596  1  0  -0.094986  0  3.800563  0  0.01822  0  -0.110807  0  4.05668  0  0.020704  0  -0.114974  0  4.079057  0  0  -0.101568  -0.108099  0  4.04142  0
C  C78  1  0.08399349  0.28513751  0.74796359  1  0  -0.095031  0  3.800298  0  0.017893  0  -0.110851  0  4.056424  0  0.02029  0  -0.11502  0  4.078803  0  0  -0.101589  -0.108146  0  4.041171  0
C  C79  1  0.28513873  0.08399579  0.24796301  1  0  -0.095039  0  3.800472  0  0.018143  0  -0.110848  0  4.056607  0  0.020639  0  -0.115016  0  4.078986  0  0  -0.101591  -0.108144  0  4.041355  0
C  C80  1  0.57188202  0.05288616  0.14243451  1  0  -0.073964  0  3.75161  0  -0.001231  0  -0.09746  0  4.001649  0  0.003759  0  -0.09655  0  4.020445  0  0  -0.085845  -0.097831  0  3.988787  0
C  C81  1  0.05289016  0.57188662  0.64243623  1  0  -0.074061  0  3.751743  0  -0.001245  0  -0.097598  0  4.001767  0  0.003578  0  -0.096689  0  4.020565  0  0  -0.085843  -0.097965  0  3.988893  0
C  C82  1  0.42811716  0.94711069  0.85756518  1  0  -0.074027  0  3.751683  0  -0.001326  0  -0.097529  0  4.001722  0  0.003767  0  -0.096622  0  4.020527  0  0  -0.085855  -0.097905  0  3.988869  0
C  C83  1  0.94711198  0.42811674  0.35756517  1  0  -0.073962  0  3.75176  0  -0.001337  0  -0.097491  0  4.00179  0  0.00371  0  -0.096582  0  4.020592  0  0  -0.085815  -0.097866  0  3.988935  0
C  C84  1  0.65424885  0.62286965  0.19916336  1  0  -0.167281  0  3.713728  0  -0.044427  0  -0.180818  0  3.958297  0  -0.047492  0  -0.186946  0  3.979782  0  0  -0.096659  -0.176741  0  3.943757  0
C  C85  1  0.62286962  0.65424981  0.69916295  1  0  -0.167313  0  3.713572  0  -0.044271  0  -0.180869  0  3.958137  0  -0.047848  0  -0.186998  0  3.979624  0  0  -0.096672  -0.176792  0  3.943598  0
C  C86  1  0.34574672  0.37713240  0.80083675  1  0  -0.167308  0  3.713629  0  -0.043925  0  -0.180847  0  3.958178  0  -0.04755  0  -0.186974  0  3.979663  0  0  -0.096726  -0.176769  0  3.94364  0
C  C87  1  0.37713088  0.34574705  0.30083598  1  0  -0.167273  0  3.713523  0  -0.043746  0  -0.180863  0  3.958075  0  -0.047501  0  -0.18699  0  3.97956  0  0  -0.096691  -0.176787  0  3.943536  0
C  C88  1  0.92779133  0.03140624  0.13042571  1  0  -0.172353  0  3.716464  0  -0.032484  0  -0.190364  0  3.969658  0  -0.027525  0  -0.196179  0  3.990659  0  0  -0.101514  -0.1865  0  3.955534  0
C  C89  1  0.03141580  0.92779117  0.63042369  1  0  -0.172281  0  3.716419  0  -0.032363  0  -0.190244  0  3.969615  0  -0.027846  0  -0.196059  0  3.990617  0  0  -0.10154  -0.186385  0  3.955496  0
C  C90  1  0.07220646  0.96858928  0.86957628  1  0  -0.172352  0  3.716294  0  -0.032131  0  -0.190307  0  3.969462  0  -0.027637  0  -0.19613  0  3.990459  0  0  -0.101548  -0.186444  0  3.955339  0
C  C91  1  0.96859004  0.07220831  0.36957615  1  0  -0.172416  0  3.716334  0  -0.032066  0  -0.190408  0  3.969509  0  -0.027601  0  -0.196215  0  3.990514  0  0  -0.101579  -0.186546  0  3.955384  0
C  C92  1  0.86869212  0.11271262  0.17552612  1  0  -0.047113  0  3.782402  0  -0.063158  0  -0.064539  0  4.036456  0  -0.064513  0  -0.063525  0  4.057208  0  0  -0.090889  -0.064987  0  4.022247  0
C  C93  1  0.11271732  0.86869574  0.67552573  1  0  -0.04715  0  3.782371  0  -0.063502  0  -0.06459  0  4.03643  0  -0.064402  0  -0.063576  0  4.057181  0  0  -0.090833  -0.065037  0  4.022223  0
C  C94  1  0.13130967  0.88728424  0.82447400  1  0  -0.047104  0  3.782248  0  -0.063585  0  -0.064542  0  4.036306  0  -0.064748  0  -0.063527  0  4.057058  0  0  -0.090877  -0.06499  0  4.022099  0
C  C95  1  0.88728375  0.13131156  0.32447338  1  0  -0.047092  0  3.782201  0  -0.06337  0  -0.064518  0  4.036281  0  -0.064636  0  -0.063503  0  4.057028  0  0  -0.090859  -0.064963  0  4.022068  0
C  C96  1  0.01610413  0.64535730  0.21340885  1  0  -0.078647  0  3.760072  0  -0.002467  0  -0.102558  0  4.01209  0  -0.072576  0  -0.102155  0  4.032259  0  0  -0.08656  -0.102495  0  3.998283  0
C  C97  1  0.64535836  0.01610635  0.71341009  1  0  -0.078674  0  3.760007  0  -0.002546  0  -0.102537  0  4.012053  0  -0.072568  0  -0.102135  0  4.03222  0  0  -0.086557  -0.102475  0  3.998248  0
C  C98  1  0.98389252  0.35464084  0.78659082  1  0  -0.078524  0  3.760245  0  -0.002581  0  -0.102407  0  4.012285  0  -0.072594  0  -0.102007  0  4.032454  0  0  -0.086512  -0.102344  0  3.998479  0
C  C99  1  0.35464481  0.98389183  0.28658852  1  0  -0.078662  0  3.760111  0  -0.002544  0  -0.102535  0  4.012148  0  -0.072567  0  -0.102135  0  4.032317  0  0  -0.086579  -0.102485  0  3.998338  0
C  C100  1  0.73423576  0.70376360  0.24482066  1  0  -0.044151  0  3.771818  0  -0.093509  0  -0.058389  0  4.023445  0  -0.096016  0  -0.057384  0  4.043144  0  0  -0.089691  -0.058761  0  4.009903  0
C  C101  1  0.70376717  0.73424288  0.74482197  1  0  -0.044141  0  3.771879  0  -0.09382  0  -0.058375  0  4.023488  0  -0.096439  0  -0.05737  0  4.043186  0  0  -0.08973  -0.058741  0  4.009941  0
C  C102  1  0.26576228  0.29623586  0.75517866  1  0  -0.044232  0  3.7718  0  -0.093944  0  -0.058469  0  4.023445  0  -0.096099  0  -0.057461  0  4.043143  0  0  -0.089712  -0.058842  0  4.009907  0
C  C103  1  0.29623477  0.26575660  0.25517703  1  0  -0.043985  0  3.771815  0  -0.094325  0  -0.058237  0  4.023452  0  -0.096465  0  -0.05723  0  4.043149  0  0  -0.089653  -0.058607  0  4.009908  0
C  C104  1  0.69017427  0.12373099  0.18169390  1  0  -0.095863  0  3.797828  0  -0.061445  0  -0.111152  0  4.050681  0  -0.066241  0  -0.115095  0  4.072766  0  0  -0.101893  -0.1086  0  4.035738  0
C  C105  1  0.12373260  0.69017287  0.68169468  1  0  -0.095812  0  3.797798  0  -0.061377  0  -0.111085  0  4.050645  0  -0.066021  0  -0.115026  0  4.072727  0  0  -0.101954  -0.108532  0  4.035702  0
C  C106  1  0.30982513  0.87626977  0.81830664  1  0  -0.095771  0  3.79796  0  -0.06149  0  -0.111063  0  4.0508  0  -0.066235  0  -0.115007  0  4.072884  0  0  -0.101849  -0.108506  0  4.035852  0
C  C107  1  0.87627208  0.30982921  0.31830635  1  0  -0.095856  0  3.798012  0  -0.061508  0  -0.111169  0  4.050876  0  -0.06623  0  -0.115115  0  4.072964  0  0  -0.101932  -0.108611  0  4.035918  0
N  N108  1  0.86979058  0.86789740  0.04637899  1  0  -0.664123  0  3.171313  0  -1.255516  0  -0.607629  0  3.410367  0  -1.309873  0  -0.627598  0  3.408742  0  0  -0.609433  -0.593437  0  3.411101  0
N  N109  1  0.86789818  0.86978662  0.54637971  1  0  -0.663996  0  3.171315  0  -1.255451  0  -0.607528  0  3.410364  0  -1.309816  0  -0.627495  0  3.408731  0  0  -0.609407  -0.593331  0  3.411096  0
N  N110  1  0.13021273  0.13210338  0.95362043  1  0  -0.663947  0  3.171307  0  -1.255432  0  -0.607496  0  3.410352  0  -1.309828  0  -0.62746  0  3.408715  0  0  -0.60938  -0.593308  0  3.411097  0
N  N111  1  0.13210238  0.13021153  0.45362042  1  0  -0.663964  0  3.171301  0  -1.255467  0  -0.607534  0  3.410351  0  -1.309869  0  -0.627495  0  3.408712  0  0  -0.609427  -0.593343  0  3.411086  0
N  N112  1  0.24603187  0.82072947  0.02002055  1  0  -0.105869  0  3.042441  0  -0.166909  0  -0.092391  0  3.33997  0  -0.16649  0  -0.091389  0  3.351541  0  0  -0.105223  -0.092749  0  3.332033  0
N  N113  1  0.82073050  0.24602979  0.52002246  1  0  -0.105907  0  3.042355  0  -0.166865  0  -0.092429  0  3.339896  0  -0.166739  0  -0.091427  0  3.351468  0  0  -0.105246  -0.092786  0  3.331961  0
N  N114  1  0.75397014  0.17927131  0.97997886  1  0  -0.105884  0  3.042483  0  -0.16695  0  -0.092416  0  3.340029  0  -0.166558  0  -0.091414  0  3.351602  0  0  -0.105217  -0.092774  0  3.332095  0
N  N115  1  0.17926882  0.75396965  0.47997922  1  0  -0.105863  0  3.042477  0  -0.166932  0  -0.092397  0  3.340018  0  -0.166559  0  -0.091395  0  3.351591  0  0  -0.105237  -0.092754  0  3.332082  0
N  N116  1  0.01342379  0.46757706  0.07577702  1  0  -0.331034  0  3.109715  0  -0.731752  0  -0.277866  0  3.392578  0  -0.763715  0  -0.292754  0  3.408287  0  0  -0.241741  -0.267731  0  3.38176  0
N  N117  1  0.46757721  0.01342692  0.57577775  1  0  -0.331123  0  3.109788  0  -0.731679  0  -0.277961  0  3.392643  0  -0.764062  0  -0.292852  0  3.408356  0  0  -0.241777  -0.267826  0  3.381827  0
N  N118  1  0.98657302  0.53242370  0.92422192  1  0  -0.331069  0  3.109749  0  -0.731683  0  -0.277911  0  3.392595  0  -0.764183  0  -0.292803  0  3.40831  0  0  -0.24174  -0.267776  0  3.381777  0
N  N119  1  0.53242227  0.98657515  0.42422242  1  0  -0.331128  0  3.109727  0  -0.731666  0  -0.27797  0  3.39258  0  -0.763651  0  -0.292861  0  3.408295  0  0  -0.241748  -0.267835  0  3.381763  0
N  N120  1  0.51309359  0.74265240  0.02746281  1  0  -0.320924  0  3.10908  0  -0.723461  0  -0.266185  0  3.388934  0  -0.75466  0  -0.281422  0  3.405148  0  0  -0.236806  -0.255823  0  3.377847  0
N  N121  1  0.74265432  0.51309032  0.52746410  1  0  -0.32091  0  3.109094  0  -0.723313  0  -0.266177  0  3.388934  0  -0.754552  0  -0.281415  0  3.405148  0  0  -0.236796  -0.255813  0  3.377842  0
N  N122  1  0.48690828  0.25734577  0.97253655  1  0  -0.320896  0  3.109147  0  -0.723358  0  -0.26616  0  3.388988  0  -0.754592  0  -0.281397  0  3.405202  0  0  -0.236806  -0.2558  0  3.377898  0
N  N123  1  0.25734631  0.48690913  0.47253683  1  0  -0.320852  0  3.109124  0  -0.723371  0  -0.266117  0  3.388963  0  -0.754601  0  -0.281354  0  3.405178  0  0  -0.236779  -0.255755  0  3.377874  0
N  N124  1  0.35545161  0.70620467  0.00338892  1  0  -0.121726  0  3.186633  0  -0.213656  0  -0.076107  0  3.4849  0  -0.221929  0  -0.084036  0  3.501226  0  0  -0.12423  -0.070526  0  3.473649  0
N  N125  1  0.70620658  0.35545052  0.50339032  1  0  -0.121683  0  3.186647  0  -0.213566  0  -0.076082  0  3.484932  0  -0.221667  0  -0.084012  0  3.501259  0  0  -0.124232  -0.070502  0  3.473683  0
N  N126  1  0.64454904  0.29379480  0.99661006  1  0  -0.121693  0  3.186671  0  -0.213609  0  -0.076073  0  3.484936  0  -0.221927  0  -0.084003  0  3.501264  0  0  -0.124227  -0.070494  0  3.473688  0
N  N127  1  0.29379534  0.64454894  0.49661063  1  0  -0.121767  0  3.186606  0  -0.21364  0  -0.076147  0  3.484878  0  -0.221934  0  -0.084077  0  3.501205  0  0  -0.124249  -0.070568  0  3.473631  0
N  N128  1  0.67251535  0.46882096  0.11386105  1  0  -0.665652  0  3.184834  0  -1.236514  0  -0.608589  0  3.420609  0  -1.284435  0  -0.628723  0  3.42039  0  0  -0.609336  -0.594312  0  3.420343  0
N  N129  1  0.46882006  0.67251872  0.61386211  1  0  -0.665598  0  3.184921  0  -1.236554  0  -0.608596  0  3.42064  0  -1.284532  0  -0.628727  0  3.420418  0  0  -0.609381  -0.594319  0  3.420374  0
N  N130  1  0.32748146  0.53117980  0.88613788  1  0  -0.665597  0  3.18494  0  -1.236564  0  -0.608582  0  3.420646  0  -1.284541  0  -0.628712  0  3.420424  0  0  -0.609374  -0.594305  0  3.420378  0
N  N131  1  0.53117667  0.32748073  0.38613758  1  0  -0.66565  0  3.184881  0  -1.236502  0  -0.608622  0  3.420618  0  -1.284507  0  -0.628753  0  3.420397  0  0  -0.609373  -0.594345  0  3.420352  0
N  N132  1  0.32971810  0.93501246  0.05507888  1  0  -0.315545  0  2.917306  0  -0.662065  0  -0.295623  0  3.205383  0  -0.72206  0  -0.304969  0  3.215522  0  0  -0.227399  -0.289302  0  3.19852  0
N  N133  1  0.93501357  0.32971326  0.55508116  1  0  -0.315528  0  2.917257  0  -0.6622  0  -0.29563  0  3.205339  0  -0.722185  0  -0.304978  0  3.215482  0  0  -0.227379  -0.289308  0  3.198474  0
N  N134  1  0.67028651  0.06498832  0.94492096  1  0  -0.315532  0  2.917385  0  -0.662087  0  -0.295627  0  3.205479  0  -0.722076  0  -0.304972  0  3.215619  0  0  -0.22742  -0.289308  0  3.198615  0
N  N135  1  0.06498444  0.67028616  0.44492168  1  0  -0.315509  0  2.917358  0  -0.661728  0  -0.295597  0  3.205443  0  -0.722102  0  -0.304942  0  3.215582  0  0  -0.227376  -0.289274  0  3.198577  0
N  N136  1  0.22050866  0.46506370  0.13911699  1  0  -0.31057  0  2.939054  0  -0.685748  0  -0.281766  0  3.217914  0  -0.710275  0  -0.292719  0  3.229035  0  0  -0.217751  -0.274314  0  3.210295  0
N  N137  1  0.46505947  0.22050953  0.63911708  1  0  -0.310597  0  2.939064  0  -0.685749  0  -0.281792  0  3.217906  0  -0.710271  0  -0.292745  0  3.229026  0  0  -0.217764  -0.274339  0  3.210285  0
N  N138  1  0.77948944  0.53493705  0.86088275  1  0  -0.310661  0  2.939129  0  -0.685792  0  -0.281861  0  3.21798  0  -0.710345  0  -0.292814  0  3.2291  0  0  -0.21779  -0.274408  0  3.210358  0
N  N139  1  0.53494116  0.77948993  0.36088306  1  0  -0.310639  0  2.939114  0  -0.685752  0  -0.281836  0  3.21796  0  -0.710197  0  -0.29279  0  3.22908  0  0  -0.217754  -0.274385  0  3.210341  0
N  N140  1  0.28481390  0.41498129  0.09371787  1  0  -0.077995  0  3.023026  0  -0.147478  0  -0.068078  0  3.318553  0  -0.147125  0  -0.065741  0  3.329406  0  0  -0.094439  -0.069326  0  3.311052  0
N  N141  1  0.41497694  0.28481571  0.59371751  1  0  -0.07796  0  3.023029  0  -0.147483  0  -0.068039  0  3.318541  0  -0.147178  0  -0.065701  0  3.329393  0  0  -0.094396  -0.069288  0  3.311041  0
N  N142  1  0.71518282  0.58501815  0.90628221  1  0  -0.077981  0  3.023168  0  -0.147487  0  -0.068075  0  3.318715  0  -0.14719  0  -0.065737  0  3.329566  0  0  -0.09444  -0.069324  0  3.311213  0
N  N143  1  0.58502109  0.71518374  0.40628259  1  0  -0.078021  0  3.023126  0  -0.147488  0  -0.068115  0  3.318663  0  -0.1472  0  -0.065777  0  3.329514  0  0  -0.09447  -0.069363  0  3.311162  0
N  N144  1  0.16169451  0.41618568  0.05583822  1  0  -0.123698  0  3.190847  0  -0.20373  0  -0.079215  0  3.494221  0  -0.213355  0  -0.087646  0  3.509667  0  0  -0.125984  -0.073295  0  3.483557  0
N  N145  1  0.41618433  0.16169694  0.55583800  1  0  -0.123752  0  3.19083  0  -0.203818  0  -0.079264  0  3.494199  0  -0.212832  0  -0.087697  0  3.509644  0  0  -0.126052  -0.073345  0  3.483537  0
N  N146  1  0.83830353  0.58381378  0.94416111  1  0  -0.123679  0  3.190854  0  -0.20377  0  -0.079188  0  3.49422  0  -0.212795  0  -0.087619  0  3.509664  0  0  -0.126009  -0.073269  0  3.483556  0
N  N147  1  0.58381378  0.83830382  0.44416135  1  0  -0.123658  0  3.190801  0  -0.203777  0  -0.079161  0  3.494162  0  -0.213332  0  -0.087592  0  3.509607  0  0  -0.126008  -0.073242  0  3.4835  0
