# generated using pymatgen
data_CdH28C22(SN5)2
_symmetry_space_group_name_H-M   'P 1'
_cell_length_a   11.13193860
_cell_length_b   15.30358452
_cell_length_c   15.29671837
_cell_angle_alpha   114.32146639
_cell_angle_beta   104.02144542
_cell_angle_gamma   104.04136303
_symmetry_Int_Tables_number   1
_chemical_formula_structural   CdH28C22(SN5)2
_chemical_formula_sum   'Cd3 H84 C66 S6 N30'
_cell_volume   2124.08834706
_cell_formula_units_Z   3
loop_
 _symmetry_equiv_pos_site_id
 _symmetry_equiv_pos_as_xyz
  1  'x, y, z'
loop_
 _atom_site_type_symbol
 _atom_site_label
 _atom_site_symmetry_multiplicity
 _atom_site_fract_x
 _atom_site_fract_y
 _atom_site_fract_z
 _atom_site_occupancy
 _atom_site_pbe_bader_charge
 _atom_site_pbe_bader_spin_density
 _atom_site_pbe_cm5_charge
 _atom_site_pbe_ddec_charge
 _atom_site_pbe_ddec_spin_density
 _atom_site_pbe_ddec_sum_bond_order
 _atom_site_pbe_magmom
Cd  Cd0  1  0.49999887  0.99999773  0.49999966  1  1.279378  0  0.813855  0.797641  0  2.393069  0
Cd  Cd1  1  0.00000367  0.50000486  0.50000139  1  1.271844  0  0.814122  0.798537  0  2.393995  0
Cd  Cd2  1  0.50000026  0.50000298  0.00000464  1  1.273515  0  0.814135  0.797115  0  2.394689  0
H  H3  1  0.47877693  0.86475449  0.63208872  1  0.484319  0  0.299867  0.236886  0  1.023464  0
H  H4  1  0.71632948  0.44737537  0.33573539  1  0.498105  0  0.305902  0.240872  0  1.01469  0
H  H5  1  0.65405975  0.76909862  0.74204138  1  0.052678  0  0.096969  0.139733  0  0.983693  0
H  H6  1  0.56811558  0.64171057  0.63253869  1  0.063386  0  0.096967  0.143459  0  0.988166  0
H  H7  1  0.47722600  0.71832946  0.68139970  1  0.072604  0  0.086578  0.131184  0  1.050954  0
H  H8  1  0.56027226  0.77177305  0.31401990  1  0.062102  0  0.089378  0.130273  0  1.025023  0
H  H9  1  0.70488173  0.75014215  0.36248475  1  0.028447  0  0.088935  0.125087  0  1.043416  0
H  H10  1  0.70991507  0.87909903  0.40923777  1  0.077601  0  0.09534  0.144298  0  0.996501  0
H  H11  1  0.86324945  0.68915923  0.70857982  1  0.043749  0  0.093838  0.134476  0  0.998413  0
H  H12  1  0.87704446  0.79559214  0.68608154  1  0.039895  0  0.092486  0.130395  0  1.002856  0
H  H13  1  0.99582604  0.73565517  0.67422358  1  0.085247  0  0.094207  0.140049  0  1.025739  0
H  H14  1  0.56090153  0.54497265  0.23307629  1  0.076008  0  0.09273  0.132724  0  1.033058  0
H  H15  1  0.46152609  0.57181926  0.30744865  1  0.044418  0  0.095751  0.13933  0  1.028931  0
H  H16  1  0.47073601  0.44716293  0.25272340  1  0.065565  0  0.096283  0.142303  0  1.004618  0
H  H17  1  0.84674772  0.36776261  0.23255607  1  0.50558  0  0.299745  0.236764  0  1.024702  0
H  H18  1  0.38044203  0.66441005  0.11155238  1  0.488585  0  0.305234  0.239641  0  1.017818  0
H  H19  1  0.91218753  0.25789622  0.02692099  1  0.059401  0  0.09729  0.140773  0  0.983532  0
H  H20  1  0.93567333  0.36736679  0.00899200  1  0.060227  0  0.097064  0.143411  0  0.987642  0
H  H21  1  0.79597413  0.31851578  0.03683870  1  0.053667  0  0.087389  0.132343  0  1.050468  0
H  H22  1  0.24623058  0.68592549  0.45765564  1  0.047092  0  0.08923  0.130437  0  1.025803  0
H  H23  1  0.34222562  0.63737600  0.38740809  1  0.03849  0  0.089781  0.126573  0  1.043789  0
H  H24  1  0.30065134  0.59072937  0.46976645  1  0.07481  0  0.095111  0.144329  0  0.997033  0
H  H25  1  0.15505109  0.29163315  0.98055674  1  0.046344  0  0.093741  0.134611  0  0.999441  0
H  H26  1  0.19138145  0.31418793  0.10959184  1  0.039816  0  0.091966  0.129943  0  1.003198  0
H  H27  1  0.32199819  0.32614441  0.06145408  1  0.084784  0  0.094609  0.141038  0  1.026048  0
H  H28  1  0.32738408  0.76680089  0.31175645  1  0.06516  0  0.093703  0.133744  0  1.03269  0
H  H29  1  0.15371607  0.69241528  0.26420615  1  0.057052  0  0.095335  0.139001  0  1.030149  0
H  H30  1  0.21758689  0.74720567  0.19429369  1  0.058269  0  0.096356  0.142139  0  1.005559  0
H  H31  1  0.61418997  0.76729397  0.13508020  1  0.504406  0  0.300238  0.237273  0  1.024063  0
H  H32  1  0.26859194  0.88841660  0.55269327  1  0.500368  0  0.305225  0.239806  0  1.017443  0
H  H33  1  0.88553511  0.97284610  0.23062966  1  0.046117  0  0.097139  0.140813  0  0.983432  0
H  H34  1  0.92688622  0.99062749  0.35801150  1  0.071543  0  0.097313  0.143499  0  0.988759  0
H  H35  1  0.75939001  0.96300307  0.28141255  1  0.071486  0  0.086817  0.132087  0  1.049426  0
H  H36  1  0.78848106  0.54233449  0.22816030  1  0.040938  0  0.089854  0.130888  0  1.024494  0
H  H37  1  0.95474606  0.61239785  0.24979051  1  0.042422  0  0.089426  0.125776  0  1.04349  0
H  H38  1  0.83089518  0.53002165  0.12076987  1  0.078063  0  0.094722  0.143693  0  0.997415  0
H  H39  1  0.17474197  0.01944086  0.31086668  1  0.046782  0  0.093412  0.134047  0  1.000016  0
H  H40  1  0.08210547  0.89052401  0.20428150  1  0.071873  0  0.092614  0.129878  0  1.002207  0
H  H41  1  0.26078669  0.93858970  0.26446505  1  0.076309  0  0.094046  0.139894  0  1.026754  0
H  H42  1  0.01534046  0.68827328  0.45485533  1  0.078385  0  0.092462  0.131868  0  1.032137  0
H  H43  1  0.88932092  0.73585764  0.42789941  1  0.038649  0  0.09509  0.137787  0  1.030193  0
H  H44  1  0.02300758  0.80577171  0.55263854  1  0.063998  0  0.096136  0.141671  0  1.004615  0
H  H45  1  0.52122563  0.13524426  0.36790589  1  0.484315  0  0.299859  0.236823  0  1.023442  0
H  H46  1  0.28366743  0.55261949  0.66426055  1  0.497739  0  0.305883  0.240877  0  1.014585  0
H  H47  1  0.34594251  0.23090324  0.25795708  1  0.052674  0  0.096969  0.139716  0  0.983731  0
H  H48  1  0.43188629  0.35829051  0.36745873  1  0.063622  0  0.096957  0.143452  0  0.988146  0
H  H49  1  0.52277494  0.28167162  0.31859690  1  0.072544  0  0.086573  0.131156  0  1.050999  0
H  H50  1  0.43972674  0.22822414  0.68597475  1  0.062161  0  0.089332  0.130262  0  1.025046  0
H  H51  1  0.29511673  0.24985582  0.63751013  1  0.028462  0  0.088939  0.125091  0  1.043406  0
H  H52  1  0.29008170  0.12089738  0.59075748  1  0.077659  0  0.09535  0.144289  0  0.996517  0
H  H53  1  0.13674785  0.31083640  0.29141455  1  0.044064  0  0.09383  0.134438  0  0.998484  0
H  H54  1  0.12295152  0.20440271  0.31391097  1  0.039893  0  0.092491  0.130381  0  1.002838  0
H  H55  1  0.00417126  0.26434046  0.32577079  1  0.08522  0  0.094215  0.140044  0  1.025737  0
H  H56  1  0.43909917  0.45502610  0.76691996  1  0.075746  0  0.09273  0.132771  0  1.032959  0
H  H57  1  0.53847330  0.42817871  0.69254835  1  0.044269  0  0.095773  0.139403  0  1.028905  0
H  H58  1  0.52926036  0.55283271  0.74726950  1  0.065622  0  0.096255  0.142307  0  1.004696  0
H  H59  1  0.15324767  0.63223847  0.76744544  1  0.505609  0  0.299761  0.236823  0  1.024629  0
H  H60  1  0.61955805  0.33558559  0.88844378  1  0.488781  0  0.305238  0.239657  0  1.01776  0
H  H61  1  0.08781303  0.74210408  0.97307914  1  0.059387  0  0.097297  0.140769  0  0.983533  0
H  H62  1  0.06432801  0.63263507  0.99100957  1  0.060252  0  0.097071  0.143395  0  0.987642  0
H  H63  1  0.20402551  0.68148452  0.96316062  1  0.053675  0  0.087372  0.132314  0  1.050483  0
H  H64  1  0.75376968  0.31407793  0.54234441  1  0.047153  0  0.089239  0.130469  0  1.025821  0
H  H65  1  0.65777031  0.36262430  0.61258927  1  0.038505  0  0.089761  0.126538  0  1.043843  0
H  H66  1  0.69934736  0.40927094  0.53023205  1  0.074983  0  0.095111  0.144338  0  0.99701  0
H  H67  1  0.84494971  0.70836949  0.01944309  1  0.046355  0  0.093748  0.13462  0  0.999443  0
H  H68  1  0.80861663  0.68580926  0.89040657  1  0.039877  0  0.091949  0.129912  0  1.003288  0
H  H69  1  0.67800090  0.67385667  0.93854416  1  0.084582  0  0.094597  0.141019  0  1.026073  0
H  H70  1  0.67261740  0.23319941  0.68824254  1  0.065175  0  0.093693  0.13374  0  1.032632  0
H  H71  1  0.84628619  0.30758658  0.73579493  1  0.057031  0  0.095329  0.13896  0  1.030174  0
H  H72  1  0.78241538  0.25279619  0.80570738  1  0.058296  0  0.096358  0.142138  0  1.00556  0
H  H73  1  0.38580655  0.23270011  0.86491732  1  0.504474  0  0.300222  0.23728  0  1.024017  0
H  H74  1  0.73140692  0.11158215  0.44730527  1  0.500371  0  0.30522  0.239819  0  1.017414  0
H  H75  1  0.11446281  0.02715265  0.76936741  1  0.04612  0  0.097143  0.14078  0  0.983485  0
H  H76  1  0.07311302  0.00937204  0.64198678  1  0.071511  0  0.097297  0.143475  0  0.988757  0
H  H77  1  0.24060645  0.03699646  0.71858458  1  0.071509  0  0.086821  0.1321  0  1.049423  0
H  H78  1  0.21152228  0.45766581  0.77184098  1  0.040662  0  0.089845  0.130878  0  1.024477  0
H  H79  1  0.04525938  0.38760478  0.75021405  1  0.04253  0  0.089401  0.125745  0  1.043528  0
H  H80  1  0.16910971  0.46998177  0.87923361  1  0.078007  0  0.094729  0.143687  0  0.99738  0
H  H81  1  0.82526122  0.98056100  0.68913718  1  0.046791  0  0.093403  0.134053  0  0.999986  0
H  H82  1  0.91789402  0.10947785  0.79572105  1  0.072041  0  0.092603  0.129867  0  1.002185  0
H  H83  1  0.73921387  0.06141060  0.73553704  1  0.076385  0  0.094044  0.139908  0  1.026757  0
H  H84  1  0.98466127  0.31172935  0.54514793  1  0.078315  0  0.092447  0.13185  0  1.032115  0
H  H85  1  0.11068096  0.26414344  0.57210455  1  0.0386  0  0.095113  0.137809  0  1.030246  0
H  H86  1  0.97699498  0.19422703  0.44736261  1  0.064039  0  0.0961  0.141575  0  1.004663  0
C  C87  1  0.60803781  0.79390565  0.46868971  1  0.436606  0  0.093941  0.201605  0  4.011192  0
C  C88  1  0.63166843  0.73357703  0.51618165  1  0.033839  0  -0.038001  -0.148815  0  4.065046  0
C  C89  1  0.57912509  0.76065655  0.59355958  1  0.381234  0  0.10228  0.204336  0  3.979345  0
C  C90  1  0.56896125  0.72068853  0.66622329  1  -0.058224  0  -0.234716  -0.428117  0  3.974103  0
C  C91  1  0.64777199  0.79886236  0.38419520  1  -0.050101  0  -0.241196  -0.418091  0  3.948309  0
C  C92  1  0.64358632  0.56836038  0.38700301  1  0.370256  0  0.099411  0.204241  0  3.986641  0
C  C93  1  0.68963906  0.65496820  0.48646481  1  0.040305  0  -0.034774  -0.141771  0  4.052526  0
C  C94  1  0.80235844  0.64868997  0.54782265  1  0.483974  0  0.100084  0.212856  0  3.991542  0
C  C95  1  0.88965763  0.72121940  0.66010137  1  -0.070632  0  -0.236104  -0.420863  0  3.952113  0
C  C96  1  0.52834729  0.53105973  0.29012880  1  -0.031901  0  -0.239438  -0.433171  0  3.959083  0
C  C97  1  0.51567754  0.09319999  0.74789716  1  0.504437  0  0.140952  0.263581  0  4.355435  0
C  C98  1  0.13928154  0.53127244  0.32510599  1  0.431495  0  0.095002  0.205598  0  4.008581  0
C  C99  1  0.11547117  0.48377959  0.21726843  1  0.051838  0  -0.038316  -0.150705  0  4.062585  0
C  C100  1  0.98561851  0.40637044  0.16698465  1  0.401346  0  0.10205  0.205366  0  3.980777  0
C  C101  1  0.90286847  0.33369552  0.05433570  1  -0.065677  0  -0.23574  -0.430556  0  3.974784  0
C  C102  1  0.26350052  0.61574318  0.41453752  1  -0.042657  0  -0.242453  -0.42194  0  3.950702  0
C  C103  1  0.25636932  0.61301837  0.18120382  1  0.445743  0  0.101297  0.207902  0  3.987771  0
C  C104  1  0.20313358  0.51359277  0.16838106  1  -0.013976  0  -0.035932  -0.14509  0  4.053823  0
C  C105  1  0.25465380  0.45234796  0.10080956  1  0.465407  0  0.101143  0.215811  0  3.989824  0
C  C106  1  0.22987806  0.34012732  0.06111447  1  -0.063464  0  -0.236093  -0.422583  0  3.953139  0
C  C107  1  0.23784892  0.70979595  0.24077307  1  -0.044757  0  -0.240393  -0.434688  0  3.962249  0
C  C108  1  0.76811708  0.25223937  0.34540829  1  0.497371  0  0.14038  0.262988  0  4.354588  0
C  C109  1  0.81424840  0.67475928  0.20587671  1  0.48769  0  0.094485  0.203629  0  4.009918  0
C  C110  1  0.89829141  0.78255656  0.26608394  1  0.001103  0  -0.037737  -0.150377  0  4.065096  0
C  C111  1  0.81872494  0.83282334  0.23897921  1  0.383707  0  0.101917  0.205495  0  3.979527  0
C  C112  1  0.84871862  0.94544455  0.27900760  1  -0.05174  0  -0.235587  -0.430725  0  3.973902  0
C  C113  1  0.84893061  0.58532233  0.20100412  1  -0.045468  0  -0.242084  -0.420006  0  3.948907  0
C  C114  1  0.07507066  0.81873101  0.43149663  1  0.403917  0  0.101649  0.207507  0  3.983247  0
C  C115  1  0.03482868  0.83145549  0.34478048  1  0.00364  0  -0.035482  -0.142946  0  4.052438  0
C  C116  1  0.15392769  0.89911909  0.35123449  1  0.487862  0  0.100283  0.212657  0  3.990492  0
C  C117  1  0.16897631  0.93888958  0.27876503  1  -0.094484  0  -0.235759  -0.419769  0  3.953274  0
C  C118  1  0.99685797  0.75925729  0.46873981  1  -0.046565  0  -0.238191  -0.429934  0  3.958231  0
C  C119  1  0.42261999  0.65469158  0.90682333  1  0.496951  0  0.140851  0.263447  0  4.353037  0
C  C120  1  0.39195841  0.20609154  0.53130511  1  0.436689  0  0.093893  0.201532  0  4.011051  0
C  C121  1  0.36832979  0.26641861  0.48381157  1  0.033735  0  -0.037892  -0.148546  0  4.064704  0
C  C122  1  0.42087522  0.23934142  0.40643628  1  0.380897  0  0.102273  0.204213  0  3.979564  0
C  C123  1  0.43104116  0.27931177  0.33377521  1  -0.058467  0  -0.234702  -0.428048  0  3.974115  0
C  C124  1  0.35222540  0.20113716  0.61579947  1  -0.050214  0  -0.241132  -0.418026  0  3.948305  0
C  C125  1  0.35641268  0.43163681  0.61299230  1  0.370421  0  0.099457  0.204411  0  3.986716  0
C  C126  1  0.31035994  0.34502899  0.51353115  1  0.040343  0  -0.034815  -0.141968  0  4.052473  0
C  C127  1  0.19763847  0.35130488  0.45217133  1  0.484286  0  0.100041  0.212897  0  3.991561  0
C  C128  1  0.11034006  0.27877701  0.33989208  1  -0.071068  0  -0.23605  -0.420747  0  3.952081  0
C  C129  1  0.47165078  0.46893746  0.70986634  1  -0.031507  0  -0.239486  -0.433387  0  3.959222  0
C  C130  1  0.48431884  0.90679564  0.25210162  1  0.503995  0  0.140906  0.263442  0  4.35551  0
C  C131  1  0.86071649  0.46873019  0.67489335  1  0.431697  0  0.095076  0.205723  0  4.008747  0
C  C132  1  0.88452924  0.51622227  0.78273166  1  0.051774  0  -0.038341  -0.150848  0  4.062612  0
C  C133  1  0.01437991  0.59363297  0.83301704  1  0.40128  0  0.102078  0.205424  0  3.980727  0
C  C134  1  0.09713155  0.66630556  0.94566466  1  -0.065717  0  -0.235734  -0.430484  0  3.974706  0
C  C135  1  0.73649804  0.38425867  0.58546094  1  -0.04293  0  -0.242456  -0.421974  0  3.950757  0
C  C136  1  0.74363387  0.38698349  0.81879741  1  0.445731  0  0.101209  0.207773  0  3.987657  0
C  C137  1  0.79686629  0.48640986  0.83162057  1  -0.013929  0  -0.035919  -0.145008  0  4.053798  0
C  C138  1  0.74534213  0.54765234  0.89918976  1  0.465393  0  0.10111  0.215803  0  3.990005  0
C  C139  1  0.77011895  0.65987143  0.93888570  1  -0.063335  0  -0.236062  -0.422551  0  3.953374  0
C  C140  1  0.76215203  0.29020513  0.75922745  1  -0.04475  0  -0.240352  -0.434584  0  3.962218  0
C  C141  1  0.23188497  0.74776949  0.65459040  1  0.497559  0  0.140361  0.262919  0  4.354587  0
C  C142  1  0.18575162  0.32524180  0.79412692  1  0.487672  0  0.09448  0.203652  0  4.009892  0
C  C143  1  0.10170993  0.21744530  0.73391828  1  0.000666  0  -0.037752  -0.150448  0  4.065193  0
C  C144  1  0.18127323  0.16717774  0.76102148  1  0.383812  0  0.101988  0.20565  0  3.979512  0
C  C145  1  0.15128101  0.05455575  0.72099106  1  -0.051779  0  -0.235597  -0.430714  0  3.97393  0
C  C146  1  0.15107482  0.41468030  0.79899914  1  -0.045249  0  -0.24204  -0.419971  0  3.94888  0
C  C147  1  0.92493137  0.18126852  0.56850605  1  0.40389  0  0.101654  0.207571  0  3.983227  0
C  C148  1  0.96517305  0.16854714  0.65522344  1  0.00354  0  -0.035488  -0.142928  0  4.052505  0
C  C149  1  0.84607735  0.10088277  0.64876903  1  0.487848  0  0.100334  0.212665  0  3.99063  0
C  C150  1  0.83102372  0.06111150  0.72123663  1  -0.094803  0  -0.235752  -0.419791  0  3.953278  0
C  C151  1  0.00314484  0.24074379  0.53126365  1  -0.046448  0  -0.238147  -0.429849  0  3.958251  0
C  C152  1  0.57738817  0.34530717  0.09321280  1  0.495816  0  0.140649  0.263284  0  4.352962  0
S  S153  1  0.55165316  0.15897247  0.87140637  1  0.080102  0  -0.144413  -0.317717  0  2.389474  0
S  S154  1  0.68080850  0.12876721  0.28774625  1  0.08691  0  -0.144553  -0.317646  0  2.388594  0
S  S155  1  0.39280562  0.71248545  0.84114497  1  0.083417  0  -0.14521  -0.318489  0  2.387918  0
S  S156  1  0.44834516  0.84102705  0.12859370  1  0.080231  0  -0.144418  -0.317679  0  2.389565  0
S  S157  1  0.31920261  0.87124864  0.71225496  1  0.086556  0  -0.144592  -0.317694  0  2.38861  0
S  S158  1  0.60721368  0.28750786  0.15887322  1  0.083935  0  -0.145078  -0.318253  0  2.388426  0
N  N159  1  0.54442185  0.85271385  0.51334236  1  -0.721605  0  -0.252177  -0.258113  0  3.324457  0
N  N160  1  0.52958742  0.83181237  0.58892823  1  -0.824467  0  -0.286457  -0.132091  0  3.740227  0
N  N161  1  0.82382847  0.56482212  0.48917661  1  -0.723557  0  -0.254444  -0.248412  0  3.36092  0
N  N162  1  0.72701878  0.51800594  0.39270080  1  -0.864118  0  -0.29068  -0.145542  0  3.745541  0
N  N163  1  0.48760600  0.04233097  0.65714317  1  -1.316122  0  -0.415837  -0.503659  0  3.212663  0
N  N164  1  0.03108340  0.48659132  0.33930003  1  -0.719173  0  -0.251716  -0.258375  0  3.326225  0
N  N165  1  0.94072634  0.41095535  0.24281593  1  -0.858082  0  -0.28686  -0.132779  0  3.743698  0
N  N166  1  0.33471532  0.51102138  0.07557962  1  -0.72202  0  -0.254671  -0.24761  0  3.361716  0
N  N167  1  0.33416705  0.60740950  0.12516355  1  -0.851593  0  -0.291337  -0.1464  0  3.749206  0
N  N168  1  0.83052486  0.34299767  0.38529548  1  -1.316301  0  -0.415741  -0.503285  0  3.21185  0
N  N169  1  0.69180828  0.66059981  0.14713068  1  -0.726132  0  -0.251802  -0.257726  0  3.322899  0
N  N170  1  0.69794531  0.75704781  0.16792323  1  -0.851571  0  -0.28741  -0.133662  0  3.741172  0
N  N171  1  0.25910205  0.92441681  0.43526482  1  -0.732412  0  -0.25424  -0.246712  0  3.361339  0
N  N172  1  0.20884049  0.87481621  0.48203916  1  -0.860541  0  -0.292205  -0.147715  0  3.7494  0
N  N173  1  0.44537938  0.61475402  0.95760936  1  -1.308928  0  -0.41535  -0.502419  0  3.210634  0
N  N174  1  0.45557661  0.14728412  0.48665252  1  -0.721764  0  -0.252294  -0.258326  0  3.3244  0
N  N175  1  0.47041382  0.16818560  0.41106649  1  -0.823978  0  -0.286372  -0.131835  0  3.740111  0
N  N176  1  0.17616936  0.43517273  0.51081622  1  -0.723851  0  -0.254422  -0.248415  0  3.360759  0
N  N177  1  0.27297852  0.48198970  0.60729552  1  -0.863767  0  -0.2907  -0.145644  0  3.745239  0
N  N178  1  0.51239237  0.95766311  0.34285597  1  -1.31581  0  -0.415805  -0.503554  0  3.21257  0
N  N179  1  0.96891185  0.51341131  0.66070144  1  -0.71957  0  -0.251731  -0.258348  0  3.326455  0
N  N180  1  0.05927222  0.58904650  0.75718449  1  -0.857731  0  -0.286909  -0.132929  0  3.743852  0
N  N181  1  0.66528246  0.48897893  0.92442198  1  -0.721807  0  -0.254603  -0.247553  0  3.361596  0
N  N182  1  0.66583405  0.39259003  0.87483767  1  -0.852077  0  -0.291308  -0.146387  0  3.748981  0
N  N183  1  0.16947510  0.65700886  0.61470058  1  -1.316062  0  -0.415665  -0.503116  0  3.211747  0
N  N184  1  0.30819097  0.33939972  0.85287152  1  -0.72578  0  -0.251787  -0.257656  0  3.322683  0
N  N185  1  0.30205223  0.24295016  0.83207868  1  -0.851685  0  -0.287462  -0.133814  0  3.741138  0
N  N186  1  0.74090207  0.07558505  0.56473855  1  -0.732247  0  -0.254225  -0.246669  0  3.361237  0
N  N187  1  0.79116139  0.12518487  0.51796087  1  -0.860457  0  -0.292243  -0.14784  0  3.749221  0
N  N188  1  0.55462004  0.38525873  0.04242905  1  -1.30835  0  -0.415263  -0.502509  0  3.210033  0
