# generated using pymatgen
data_SmH10C11NO7
_symmetry_space_group_name_H-M   'P 1'
_cell_length_a   8.39873062
_cell_length_b   9.07293364
_cell_length_c   10.50590291
_cell_angle_alpha   104.82364946
_cell_angle_beta   101.32060988
_cell_angle_gamma   95.65910065
_symmetry_Int_Tables_number   1
_chemical_formula_structural   SmH10C11NO7
_chemical_formula_sum   'Sm2 H20 C22 N2 O14'
_cell_volume   749.44782608
_cell_formula_units_Z   2
loop_
 _symmetry_equiv_pos_site_id
 _symmetry_equiv_pos_as_xyz
  1  'x, y, z'
loop_
 _atom_site_type_symbol
 _atom_site_label
 _atom_site_symmetry_multiplicity
 _atom_site_fract_x
 _atom_site_fract_y
 _atom_site_fract_z
 _atom_site_occupancy
 _atom_site_hle17_bader_spin_density
 _atom_site_hle17_ddec_charge
 _atom_site_hle17_ddec_spin_density
 _atom_site_hle17_ddec_sum_bond_order
 _atom_site_hle17_magmom
 _atom_site_hse06_10hf_bader_spin_density
 _atom_site_hse06_10hf_ddec_charge
 _atom_site_hse06_10hf_ddec_spin_density
 _atom_site_hse06_10hf_ddec_sum_bond_order
 _atom_site_hse06_10hf_magmom
 _atom_site_hse06_bader_spin_density
 _atom_site_hse06_ddec_charge
 _atom_site_hse06_ddec_spin_density
 _atom_site_hse06_ddec_sum_bond_order
 _atom_site_hse06_magmom
 _atom_site_pbe_bader_spin_density
 _atom_site_pbe_cm5_charge
 _atom_site_pbe_ddec_charge
 _atom_site_pbe_ddec_spin_density
 _atom_site_pbe_ddec_sum_bond_order
 _atom_site_pbe_magmom
Sm  Sm0  1  0.41702983  0.29263122  0.03077032  1  0  2.296095  0  1.652394  0  0  2.148573  0  2.119358  0  0  2.251866  0  1.966757  0  0  1.52818  2.114353  0  2.153832  0
Sm  Sm1  1  0.58297511  0.70736706  0.96923257  1  0  2.29606  0  1.652334  0  0  2.148516  0  2.119353  0  0  2.251842  0  1.966693  0  0  1.528191  2.114297  0  2.153826  0
H  H2  1  0.74958366  0.18880664  0.37903699  1  0  0.098371  0  0.959558  0  0  0.111964  0  1.014409  0  0  0.115279  0  1.013127  0  0  0.104005  0.109685  0  1.015255  0
H  H3  1  0.25041943  0.81119508  0.62096444  1  0  0.098341  0  0.959602  0  0  0.111937  0  1.014449  0  0  0.115252  0  1.013167  0  0  0.103992  0.109658  0  1.015297  0
H  H4  1  0.65365662  0.29149513  0.58448829  1  0  0.087175  0  0.944996  0  0  0.101168  0  1.000768  0  0  0.104658  0  0.997283  0  0  0.101789  0.098725  0  1.003041  0
H  H5  1  0.34634023  0.70850542  0.41550996  1  0  0.087178  0  0.945018  0  0  0.101186  0  1.00077  0  0  0.104683  0  0.997276  0  0  0.101796  0.098721  0  1.003067  0
H  H6  1  0.76123045  0.75329434  0.55635490  1  0  0.096615  0  0.932845  0  0  0.109445  0  0.987995  0  0  0.113153  0  0.984354  0  0  0.105098  0.106819  0  0.990557  0
H  H7  1  0.23876056  0.24670734  0.44363883  1  0  0.096662  0  0.932829  0  0  0.10951  0  0.987954  0  0  0.113224  0  0.984305  0  0  0.105102  0.106873  0  0.990515  0
H  H8  1  0.86024445  0.65563648  0.35102386  1  0  0.100394  0  0.960681  0  0  0.114369  0  1.01515  0  0  0.117395  0  1.014229  0  0  0.106955  0.112319  0  1.015935  0
H  H9  1  0.13975241  0.34436407  0.64897344  1  0  0.100407  0  0.960703  0  0  0.114388  0  1.01515  0  0  0.117415  0  1.014228  0  0  0.106966  0.112338  0  1.015934  0
H  H10  1  0.94557253  0.15512162  0.28196067  1  0  0.104349  0  0.919492  0  0  0.117173  0  0.980512  0  0  0.119041  0  0.978694  0  0  0.118524  0.116041  0  0.981509  0
H  H11  1  0.05443717  0.84488360  0.71804547  1  0  0.104349  0  0.919432  0  0  0.117165  0  0.980472  0  0  0.119023  0  0.978665  0  0  0.118494  0.116035  0  0.981464  0
H  H12  1  0.99748130  0.18726376  0.13704567  1  0  0.127321  0  0.901742  0  0  0.143605  0  0.954744  0  0  0.145904  0  0.953247  0  0  0.132354  0.14198  0  0.955877  0
H  H13  1  0.00252141  0.81273565  0.86295614  1  0  0.127348  0  0.901701  0  0  0.143628  0  0.954691  0  0  0.145929  0  0.953199  0  0  0.132363  0.142002  0  0.955825  0
H  H14  1  0.99543308  0.39838475  0.08865252  1  0  0.132305  0  0.944118  0  0  0.145886  0  1.001009  0  0  0.148717  0  0.999382  0  0  0.129279  0.143927  0  1.002049  0
H  H15  1  0.00457243  0.60161698  0.91135026  1  0  0.132323  0  0.944091  0  0  0.145917  0  1.000967  0  0  0.148745  0  0.999348  0  0  0.12928  0.143958  0  1.002007  0
H  H16  1  0.03610159  0.55583840  0.23475591  1  0  0.102027  0  0.928202  0  0  0.111591  0  0.994923  0  0  0.113204  0  0.993737  0  0  0.113618  0.110207  0  0.995475  0
H  H17  1  0.96390066  0.44416563  0.76524684  1  0  0.102075  0  0.928186  0  0  0.111645  0  0.994893  0  0  0.113254  0  0.993714  0  0  0.113643  0.11026  0  0.995445  0
H  H18  1  0.55421181  0.15319975  0.78784475  1  0  0.439736  0  0.808103  0  0  0.42958  0  0.845795  0  0  0.437199  0  0.835112  0  0  0.340184  0.42428  0  0.853396  0
H  H19  1  0.44578493  0.84679272  0.21215266  1  0  0.439703  0  0.808195  0  0  0.429566  0  0.84583  0  0  0.437169  0  0.835175  0  0  0.340185  0.424278  0  0.853414  0
H  H20  1  0.53405658  0.32386375  0.77936274  1  0  0.457699  0  0.835857  0  0  0.42492  0  0.902088  0  0  0.436669  0  0.884896  0  0  0.30322  0.416695  0  0.91423  0
H  H21  1  0.46593753  0.67612756  0.22063494  1  0  0.45766  0  0.835904  0  0  0.424897  0  0.9021  0  0  0.436646  0  0.884909  0  0  0.303205  0.416674  0  0.91424  0
C  C22  1  0.81966530  0.41393400  0.34999061  1  0  0.219295  0  3.785071  0  0  0.20389  0  4.041983  0  0  0.217076  0  4.062221  0  0  0.11484  0.195103  0  4.028485  0
C  C23  1  0.18033400  0.58606656  0.65000709  1  0  0.21937  0  3.785135  0  0  0.20394  0  4.042085  0  0  0.217118  0  4.06233  0  0  0.114892  0.195152  0  4.028591  0
C  C24  1  0.75651225  0.31314637  0.41784425  1  0  -0.189466  0  3.753127  0  0  -0.210135  0  4.016564  0  0  -0.218928  0  4.037446  0  0  -0.103165  -0.204349  0  4.00212  0
C  C25  1  0.24348723  0.68685534  0.58215373  1  0  -0.189461  0  3.753162  0  0  -0.210123  0  4.016604  0  0  -0.218918  0  4.037497  0  0  -0.103178  -0.204336  0  4.002154  0
C  C26  1  0.70158224  0.37102814  0.53390884  1  0  -0.036579  0  3.769753  0  0  -0.062833  0  4.024274  0  0  -0.05727  0  4.041562  0  0  -0.083963  -0.06567  0  4.011323  0
C  C27  1  0.29841341  0.62897240  0.46608826  1  0  -0.036626  0  3.769741  0  0  -0.062887  0  4.02425  0  0  -0.057331  0  4.041541  0  0  -0.084012  -0.065702  0  4.011306  0
C  C28  1  0.70512714  0.53026977  0.58748411  1  0  -0.116579  0  3.812458  0  0  -0.096257  0  4.053753  0  0  -0.108871  0  4.078527  0  0  -0.040514  -0.087417  0  4.036262  0
C  C29  1  0.29486889  0.46973308  0.41251356  1  0  -0.116516  0  3.812261  0  0  -0.096216  0  4.053589  0  0  -0.10884  0  4.078372  0  0  -0.040526  -0.087383  0  4.03609  0
C  C30  1  0.76114442  0.62982647  0.51724160  1  0  -0.025147  0  3.745768  0  0  -0.052252  0  4.000342  0  0  -0.046444  0  4.016943  0  0  -0.078909  -0.056168  0  3.988779  0
C  C31  1  0.23884497  0.37017290  0.48275421  1  0  -0.025223  0  3.745869  0  0  -0.052329  0  4.000406  0  0  -0.04652  0  4.017005  0  0  -0.078908  -0.056226  0  3.988828  0
C  C32  1  0.81674446  0.57407072  0.40133094  1  0  -0.176427  0  3.727404  0  0  -0.195881  0  3.988201  0  0  -0.204207  0  4.008588  0  0  -0.101183  -0.19039  0  3.974626  0
C  C33  1  0.18325119  0.42592982  0.59866615  1  0  -0.17652  0  3.727693  0  0  -0.195967  0  3.98849  0  0  -0.204296  0  4.008891  0  0  -0.101221  -0.190476  0  3.974912  0
C  C34  1  0.65596093  0.59155895  0.71466523  1  0  0.652636  0  3.92321  0  0  0.606549  0  4.218532  0  0  0.639977  0  4.218153  0  0  0.191711  0.58243  0  4.223432  0
C  C35  1  0.34403331  0.40844043  0.28533139  1  0  0.652633  0  3.923167  0  0  0.606536  0  4.218503  0  0  0.639967  0  4.218117  0  0  0.191776  0.582421  0  4.223399  0
C  C36  1  0.90132546  0.19844525  0.19489600  1  0  -0.167382  0  3.655984  0  0  -0.229211  0  3.90658  0  0  -0.228917  0  3.912618  0  0  -0.049028  -0.229224  0  3.901345  0
C  C37  1  0.09868245  0.80155650  0.80511003  1  0  -0.167378  0  3.655801  0  0  -0.229128  0  3.90644  0  0  -0.228839  0  3.912484  0  0  -0.048953  -0.229142  0  3.901204  0
C  C38  1  0.74590217  0.08974488  0.10587281  1  0  0.769035  0  3.815037  0  0  0.729431  0  4.107994  0  0  0.76353  0  4.099816  0  0  0.244497  0.706536  0  4.114696  0
C  C39  1  0.25410167  0.91025455  0.89413681  1  0  0.769161  0  3.814779  0  0  0.729361  0  4.108021  0  0  0.763465  0  4.099834  0  0  0.244442  0.706463  0  4.114728  0
C  C40  1  0.93901144  0.46225446  0.16756472  1  0  -0.168622  0  3.669241  0  0  -0.224719  0  3.91478  0  0  -0.225323  0  3.92224  0  0  -0.053198  -0.223679  0  3.908573  0
C  C41  1  0.06099268  0.53774612  0.83243663  1  0  -0.168834  0  3.669374  0  0  -0.224923  0  3.914907  0  0  -0.225552  0  3.922405  0  0  -0.053298  -0.223885  0  3.908703  0
C  C42  1  0.81001144  0.53826778  0.09567618  1  0  0.715167  0  3.833258  0  0  0.671113  0  4.132811  0  0  0.703994  0  4.130023  0  0  0.217081  0.648116  0  4.139891  0
C  C43  1  0.18999113  0.46173048  0.90432060  1  0  0.715267  0  3.833264  0  0  0.671221  0  4.132795  0  0  0.704101  0  4.130015  0  0  0.217107  0.648225  0  4.139876  0
N  N44  1  0.88261577  0.35887716  0.23883280  1  0  -0.131713  0  3.493656  0  0  -0.050818  0  3.727452  0  0  -0.069946  0  3.753608  0  0  -0.282045  -0.037339  0  3.708924  0
N  N45  1  0.11738854  0.64112457  0.76116883  1  0  -0.131592  0  3.493577  0  0  -0.050737  0  3.727453  0  0  -0.069826  0  3.753507  0  0  -0.281975  -0.037256  0  3.70892  0
O  O46  1  0.62121414  0.14820269  0.06612192  1  0  -0.782967  0  2.082269  0  0  -0.734862  0  2.348229  0  0  -0.768975  0  2.330498  0  0  -0.429097  -0.71765  0  2.357326  0
O  O47  1  0.37879139  0.85179905  0.93387991  1  0  -0.783059  0  2.082152  0  0  -0.734871  0  2.348194  0  0  -0.768995  0  2.330457  0  0  -0.429144  -0.717658  0  2.357295  0
O  O48  1  0.75494819  0.94718851  0.07680415  1  0  -0.728679  0  1.983368  0  0  -0.680236  0  2.228277  0  0  -0.713167  0  2.211508  0  0  -0.40391  -0.662954  0  2.236835  0
O  O49  1  0.24505446  0.05281209  0.92322076  1  0  -0.728728  0  1.983306  0  0  -0.680219  0  2.228311  0  0  -0.713151  0  2.211542  0  0  -0.40384  -0.662937  0  2.236872  0
O  O50  1  0.65531226  0.48853885  0.07178566  1  0  -0.824422  0  2.13615  0  0  -0.768609  0  2.405438  0  0  -0.80782  0  2.394151  0  0  -0.435546  -0.750664  0  2.413348  0
O  O51  1  0.34468909  0.51145941  0.92821187  1  0  -0.824419  0  2.136139  0  0  -0.768626  0  2.405452  0  0  -0.807818  0  2.394123  0  0  -0.435523  -0.750681  0  2.413364  0
O  O52  1  0.86057415  0.65350898  0.05908225  1  0  -0.67462  0  1.944093  0  0  -0.631161  0  2.177901  0  0  -0.659874  0  2.166147  0  0  -0.369102  -0.615388  0  2.185623  0
O  O53  1  0.13942860  0.34649043  0.94091577  1  0  -0.674665  0  1.943961  0  0  -0.631196  0  2.177746  0  0  -0.659907  0  2.165995  0  0  -0.369135  -0.615423  0  2.185467  0
O  O54  1  0.60686238  0.49848928  0.77984385  1  0  -0.759244  0  2.055301  0  0  -0.700124  0  2.298364  0  0  -0.732401  0  2.289207  0  0  -0.398057  -0.681663  0  2.305293  0
O  O55  1  0.39313813  0.50151128  0.22015405  1  0  -0.759284  0  2.055369  0  0  -0.700147  0  2.298414  0  0  -0.732419  0  2.289258  0  0  -0.398094  -0.681685  0  2.305337  0
O  O56  1  0.66564857  0.73729548  0.76714835  1  0  -0.715974  0  1.901488  0  0  -0.673159  0  2.133871  0  0  -0.702743  0  2.122515  0  0  -0.400932  -0.657573  0  2.141084  0
O  O57  1  0.33434565  0.26270390  0.23285111  1  0  -0.715948  0  1.90153  0  0  -0.673136  0  2.133921  0  0  -0.702715  0  2.122562  0  0  -0.400921  -0.65755  0  2.14113  0
O  O58  1  0.48413309  0.23195715  0.80321699  1  0  -0.900384  0  1.7744  0  0  -0.858981  0  1.941834  0  0  -0.882773  0  1.906599  0  0  -0.6227  -0.84707  0  1.962639  0
O  O59  1  0.51586345  0.76803417  0.19678109  1  0  -0.900299  0  1.774509  0  0  -0.858931  0  1.941895  0  0  -0.882711  0  1.906683  0  0  -0.622691  -0.847034  0  1.962674  0
