# generated using pymatgen
data_BiMoH29(C8O)3
_symmetry_space_group_name_H-M   'P 1'
_cell_length_a   11.19118660
_cell_length_b   12.32087495
_cell_length_c   20.38491392
_cell_angle_alpha   104.66003143
_cell_angle_beta   89.99994701
_cell_angle_gamma   89.99963422
_symmetry_Int_Tables_number   1
_chemical_formula_structural   BiMoH29(C8O)3
_chemical_formula_sum   'Bi4 Mo4 H116 C96 O12'
_cell_volume   2719.27195893
_cell_formula_units_Z   4
loop_
 _symmetry_equiv_pos_site_id
 _symmetry_equiv_pos_as_xyz
  1  'x, y, z'
loop_
 _atom_site_type_symbol
 _atom_site_label
 _atom_site_symmetry_multiplicity
 _atom_site_fract_x
 _atom_site_fract_y
 _atom_site_fract_z
 _atom_site_occupancy
 _atom_site_pbe_bader_charge
 _atom_site_pbe_bader_spin_density
 _atom_site_pbe_cm5_charge
 _atom_site_pbe_ddec_charge
 _atom_site_pbe_ddec_spin_density
 _atom_site_pbe_ddec_sum_bond_order
 _atom_site_pbe_magmom
Bi  Bi0  1  0.09674821  0.27056523  0.23123277  1  1.335248  0  0.574226  0.902231  0  2.805341  0
Bi  Bi1  1  0.59674713  0.22942958  0.26876930  1  1.335381  0  0.574237  0.902219  0  2.805285  0
Bi  Bi2  1  0.90325312  0.72943398  0.76876800  1  1.33527  0  0.574241  0.902226  0  2.805293  0
Bi  Bi3  1  0.40324973  0.77057050  0.73123454  1  1.335202  0  0.57427  0.902321  0  2.805331  0
Mo  Mo4  1  0.87501742  0.09522396  0.32728085  1  2.336857  0  1.415587  1.692651  0  4.798422  0
Mo  Mo5  1  0.37501765  0.40477491  0.17271971  1  2.338607  0  1.415571  1.692609  0  4.798383  0
Mo  Mo6  1  0.12498391  0.90477189  0.67271793  1  2.338528  0  1.415641  1.692674  0  4.798653  0
Mo  Mo7  1  0.62498278  0.59522849  0.82728119  1  2.338625  0  1.415648  1.692712  0  4.798612  0
H  H8  1  0.13755728  0.95958730  0.34565719  1  0.069314  0  0.098073  0.136573  0  0.99212  0
H  H9  1  0.63755593  0.54041079  0.15433972  1  0.06938  0  0.098073  0.136545  0  0.992147  0
H  H10  1  0.86244404  0.04040937  0.65433976  1  0.06938  0  0.09808  0.136582  0  0.992149  0
H  H11  1  0.36244539  0.45959260  0.84565922  1  0.069388  0  0.09808  0.13658  0  0.992196  0
H  H12  1  0.20338995  0.02890167  0.42421159  1  0.043257  0  0.091246  0.128429  0  1.011936  0
H  H13  1  0.70338661  0.47109575  0.07578443  1  0.043569  0  0.091221  0.128428  0  1.011989  0
H  H14  1  0.79661227  0.97109583  0.57578597  1  0.043517  0  0.091231  0.12843  0  1.011986  0
H  H15  1  0.29661382  0.52890511  0.92421266  1  0.043584  0  0.091255  0.128447  0  1.011925  0
H  H16  1  0.19532896  0.09756616  0.35816001  1  0.040427  0  0.090274  0.122787  0  1.030115  0
H  H17  1  0.69532957  0.40243131  0.14183652  1  0.040427  0  0.090296  0.122845  0  1.030064  0
H  H18  1  0.80466879  0.90243386  0.64183744  1  0.040402  0  0.090294  0.122836  0  1.030103  0
H  H19  1  0.30466997  0.59756871  0.85816142  1  0.040369  0  0.090277  0.122822  0  1.030066  0
H  H20  1  0.83954120  0.86616885  0.41621959  1  0.029128  0  0.091865  0.122965  0  1.012955  0
H  H21  1  0.33953812  0.63383299  0.08378072  1  0.029077  0  0.091848  0.122936  0  1.012944  0
H  H22  1  0.16046192  0.13382952  0.58378105  1  0.029279  0  0.091834  0.122921  0  1.012992  0
H  H23  1  0.66045964  0.36616621  0.91621857  1  0.029109  0  0.091831  0.122903  0  1.012997  0
H  H24  1  0.98322741  0.87654542  0.45409197  1  0.085075  0  0.091414  0.136487  0  1.016782  0
H  H25  1  0.48322447  0.62345215  0.04590861  1  0.085119  0  0.091401  0.136452  0  1.016901  0
H  H26  1  0.01677481  0.12345296  0.54590867  1  0.085119  0  0.091406  0.13649  0  1.016854  0
H  H27  1  0.51677239  0.37654872  0.95409044  1  0.085113  0  0.091415  0.136451  0  1.016881  0
H  H28  1  0.96830242  0.85513472  0.36465156  1  0.079096  0  0.095944  0.137025  0  1.008782  0
H  H29  1  0.46829829  0.64486545  0.13534843  1  0.079117  0  0.095926  0.137011  0  1.008818  0
H  H30  1  0.03170069  0.14486617  0.63534945  1  0.079103  0  0.095923  0.137029  0  1.008807  0
H  H31  1  0.53170036  0.35513458  0.86465000  1  0.079085  0  0.095938  0.137055  0  1.008753  0
H  H32  1  0.70273351  0.08183982  0.52083676  1  0.047089  0  0.093378  0.127161  0  0.993332  0
H  H33  1  0.20273225  0.41816150  0.97916318  1  0.047085  0  0.093402  0.127173  0  0.993297  0
H  H34  1  0.29726245  0.91815936  0.47916056  1  0.046966  0  0.093398  0.127161  0  0.993292  0
H  H35  1  0.79726997  0.58183686  0.02083599  1  0.04711  0  0.093416  0.127191  0  0.9933  0
H  H36  1  0.68744967  0.97949226  0.44216941  1  0.018177  0  0.093746  0.125541  0  1.003621  0
H  H37  1  0.18744564  0.52050805  0.05783124  1  0.018127  0  0.093747  0.12554  0  1.003629  0
H  H38  1  0.31255076  0.02050693  0.55782840  1  0.01822  0  0.093745  0.125539  0  1.003604  0
H  H39  1  0.81255212  0.47949030  0.94216743  1  0.018123  0  0.093754  0.125549  0  1.003605  0
H  H40  1  0.64131547  0.11969641  0.44960713  1  0.083769  0  0.093367  0.136188  0  1.035738  0
H  H41  1  0.14131251  0.38030480  0.05039341  1  0.083752  0  0.093384  0.136198  0  1.035822  0
H  H42  1  0.35868764  0.88030278  0.55039117  1  0.083738  0  0.093351  0.136149  0  1.035729  0
H  H43  1  0.85868614  0.61969355  0.94960477  1  0.083796  0  0.093392  0.136233  0  1.03576  0
H  H44  1  0.75360932  0.32159608  0.51675080  1  0.037307  0  0.09216  0.126451  0  1.009218  0
H  H45  1  0.25360526  0.17840407  0.98324796  1  0.037249  0  0.092126  0.126412  0  1.009237  0
H  H46  1  0.24639111  0.67839976  0.48324750  1  0.03727  0  0.092142  0.126445  0  1.009202  0
H  H47  1  0.74639428  0.82159764  0.01675171  1  0.037252  0  0.092122  0.126413  0  1.009251  0
H  H48  1  0.71704675  0.30530221  0.43079461  1  0.083256  0  0.091623  0.124002  0  1.034149  0
H  H49  1  0.21704416  0.19469851  0.06920485  1  0.083221  0  0.091625  0.124  0  1.0341  0
H  H50  1  0.28295011  0.69469615  0.56920407  1  0.083307  0  0.091584  0.123972  0  1.034152  0
H  H51  1  0.78295448  0.80529986  0.93079481  1  0.0833  0  0.091614  0.123988  0  1.034168  0
H  H52  1  0.84313494  0.38770111  0.46612746  1  0.038835  0  0.096012  0.137238  0  0.989575  0
H  H53  1  0.34313209  0.11229711  0.03387057  1  0.038788  0  0.096006  0.137236  0  0.989565  0
H  H54  1  0.15686549  0.61229221  0.53386997  1  0.038681  0  0.096017  0.137247  0  0.989597  0
H  H55  1  0.65686744  0.88770209  0.96612822  1  0.038784  0  0.096003  0.13724  0  0.989577  0
H  H56  1  0.09213606  0.34995948  0.47328409  1  0.045749  0  0.093712  0.134494  0  0.988391  0
H  H57  1  0.59213505  0.15003785  0.02671639  1  0.045757  0  0.093725  0.134511  0  0.988372  0
H  H58  1  0.90786348  0.65003722  0.52671728  1  0.046103  0  0.093711  0.134474  0  0.988439  0
H  H59  1  0.40786538  0.84996307  0.97328855  1  0.04605  0  0.093705  0.134463  0  0.988359  0
H  H60  1  0.01962189  0.35890085  0.39746131  1  0.044493  0  0.09162  0.126594  0  1.035437  0
H  H61  1  0.51961635  0.14110115  0.10253991  1  0.044463  0  0.091642  0.12663  0  1.035297  0
H  H62  1  0.98038122  0.64110004  0.60254019  1  0.044441  0  0.091669  0.126667  0  1.035343  0
H  H63  1  0.48038051  0.85890396  0.89746419  1  0.044481  0  0.091637  0.126639  0  1.035342  0
H  H64  1  0.15041081  0.27555301  0.39434043  1  0.049528  0  0.089417  0.117113  0  1.036949  0
H  H65  1  0.65040737  0.22444563  0.10565972  1  0.049591  0  0.089407  0.117089  0  1.036997  0
H  H66  1  0.84959230  0.72444704  0.60566046  1  0.049539  0  0.089412  0.117102  0  1.03698  0
H  H67  1  0.34959128  0.77555696  0.89434351  1  0.049488  0  0.089418  0.117104  0  1.03694  0
H  H68  1  0.87065201  0.01888964  0.01016904  1  0.05782  0  0.097975  0.100927  0  1.016688  0
H  H69  1  0.37065029  0.48111847  0.48983193  1  0.057682  0  0.097983  0.101013  0  1.016539  0
H  H70  1  0.12934842  0.98111123  0.98983050  1  0.05779  0  0.097979  0.100984  0  1.01666  0
H  H71  1  0.62934567  0.51888159  0.51017043  1  0.057686  0  0.097945  0.100967  0  1.016625  0
H  H72  1  0.82263430  0.17731410  0.96059985  1  0.073119  0  0.094946  0.085436  0  1.03424  0
H  H73  1  0.32263266  0.32269402  0.53940301  1  0.073029  0  0.094981  0.085517  0  1.034222  0
H  H74  1  0.17736613  0.82269013  0.03940019  1  0.073142  0  0.094927  0.085432  0  1.034299  0
H  H75  1  0.67737045  0.67730692  0.46060341  1  0.07315  0  0.094972  0.085524  0  1.034225  0
H  H76  1  0.88001617  0.37270351  0.02193769  1  0.040457  0  0.094204  0.086494  0  1.029394  0
H  H77  1  0.38000890  0.12730373  0.47806560  1  0.040539  0  0.094166  0.086425  0  1.02934  0
H  H78  1  0.11998873  0.62729905  0.97806260  1  0.040385  0  0.094195  0.086468  0  1.029304  0
H  H79  1  0.61998706  0.87269467  0.52193798  1  0.040471  0  0.094195  0.086478  0  1.029306  0
H  H80  1  0.98137519  0.40666869  0.13351876  1  0.075381  0  0.099943  0.101994  0  0.998926  0
H  H81  1  0.48137281  0.09333455  0.36648436  1  0.075478  0  0.099956  0.102017  0  0.998919  0
H  H82  1  0.01863061  0.59333387  0.86648152  1  0.075427  0  0.099951  0.102007  0  0.998935  0
H  H83  1  0.51862316  0.90666469  0.63351935  1  0.075434  0  0.099963  0.101995  0  0.998921  0
H  H84  1  0.95942258  0.03002554  0.17817722  1  0.101845  0  0.088702  0.133055  0  1.05475  0
H  H85  1  0.45942569  0.46997446  0.32182396  1  0.101876  0  0.088718  0.133096  0  1.054712  0
H  H86  1  0.04057606  0.96997281  0.82182145  1  0.10185  0  0.088681  0.133067  0  1.054726  0
H  H87  1  0.54056939  0.53002225  0.67817790  1  0.101916  0  0.088691  0.133083  0  1.054712  0
H  H88  1  0.08770280  0.01194786  0.12576660  1  0.002618  0  0.086212  0.113763  0  1.034957  0
H  H89  1  0.58770420  0.48805118  0.37423316  1  0.002591  0  0.086209  0.113755  0  1.034991  0
H  H90  1  0.91229674  0.98804799  0.87423218  1  0.002615  0  0.086216  0.113772  0  1.034985  0
H  H91  1  0.41228998  0.51194636  0.62576736  1  0.002719  0  0.086156  0.113689  0  1.035025  0
H  H92  1  0.95298404  0.94354074  0.09398994  1  0.04068  0  0.090146  0.130893  0  1.002739  0
H  H93  1  0.45298721  0.55646120  0.40600983  1  0.040863  0  0.090152  0.130919  0  1.002698  0
H  H94  1  0.04701371  0.05645928  0.90600800  1  0.040747  0  0.090139  0.130891  0  1.002764  0
H  H95  1  0.54700965  0.44353633  0.59399068  1  0.040878  0  0.090149  0.130926  0  1.002704  0
H  H96  1  0.02000411  0.67609485  0.40088244  1  0.029262  0  0.095751  0.0971  0  1.022067  0
H  H97  1  0.51999820  0.82390318  0.09911747  1  0.029722  0  0.095803  0.097145  0  1.022127  0
H  H98  1  0.97999811  0.32390605  0.59912005  1  0.029785  0  0.095759  0.097104  0  1.022106  0
H  H99  1  0.47999688  0.17609103  0.90088598  1  0.029691  0  0.095799  0.097194  0  1.022096  0
H  H100  1  0.80321864  0.68265964  0.37744539  1  0.032196  0  0.095409  0.086104  0  1.031569  0
H  H101  1  0.30321511  0.81734325  0.12255264  1  0.03215  0  0.095414  0.086079  0  1.031612  0
H  H102  1  0.19678179  0.31734456  0.62255171  1  0.032128  0  0.095411  0.086096  0  1.031615  0
H  H103  1  0.69678085  0.18265511  0.87744603  1  0.032231  0  0.095415  0.086096  0  1.031574  0
H  H104  1  0.70724106  0.52735641  0.29057923  1  0.058169  0  0.097903  0.09649  0  1.016802  0
H  H105  1  0.20723271  0.97264960  0.20941834  1  0.058076  0  0.097922  0.096584  0  1.016707  0
H  H106  1  0.29276563  0.47264861  0.70941603  1  0.058134  0  0.09792  0.096587  0  1.016734  0
H  H107  1  0.79276146  0.02735794  0.79057779  1  0.058132  0  0.097927  0.096588  0  1.016734  0
H  H108  1  0.82971394  0.36408562  0.23083371  1  0.078568  0  0.084336  0.055133  0  1.1027  0
H  H109  1  0.32971411  0.13591939  0.26916437  1  0.078408  0  0.084341  0.055154  0  1.10277  0
H  H110  1  0.17028738  0.63591944  0.76916450  1  0.078394  0  0.084356  0.055176  0  1.102757  0
H  H111  1  0.67028900  0.86408146  0.73083223  1  0.078482  0  0.08435  0.055149  0  1.102729  0
H  H112  1  0.23152022  0.54267024  0.29820427  1  0.080223  0  0.094582  0.146483  0  1.019663  0
H  H113  1  0.73152034  0.95733312  0.20179436  1  0.080263  0  0.094629  0.146548  0  1.019641  0
H  H114  1  0.76847753  0.45733318  0.70179860  1  0.080187  0  0.094602  0.146526  0  1.019666  0
H  H115  1  0.26847830  0.04266692  0.79820505  1  0.080288  0  0.094615  0.146546  0  1.019611  0
H  H116  1  0.21730399  0.43991720  0.34455932  1  0.043878  0  0.086016  0.112581  0  1.042427  0
H  H117  1  0.71729893  0.06008602  0.15544001  1  0.043879  0  0.086031  0.11263  0  1.042445  0
H  H118  1  0.78269823  0.56008622  0.65544453  1  0.043872  0  0.086022  0.112606  0  1.042424  0
H  H119  1  0.28270061  0.93991402  0.84455940  1  0.043884  0  0.086021  0.11261  0  1.042478  0
H  H120  1  0.20571934  0.58391199  0.38682315  1  0.020949  0  0.086807  0.121195  0  1.030612  0
H  H121  1  0.70572616  0.91609237  0.11317515  1  0.020959  0  0.086795  0.121172  0  1.030635  0
H  H122  1  0.79427305  0.41609310  0.61317997  1  0.021025  0  0.086835  0.121258  0  1.030594  0
H  H123  1  0.29427874  0.08390851  0.88682390  1  0.021026  0  0.08681  0.121195  0  1.030612  0
C  C124  1  0.02760679  0.08776158  0.40886650  1  -0.130224  0  -0.074654  -0.050128  0  4.037645  0
C  C125  1  0.52760384  0.41223784  0.09113286  1  -0.130149  0  -0.074734  -0.05042  0  4.037856  0
C  C126  1  0.97239275  0.91223511  0.59113290  1  -0.130186  0  -0.074662  -0.05028  0  4.037555  0
C  C127  1  0.47239391  0.58776471  0.90886694  1  -0.130146  0  -0.074703  -0.050326  0  4.037649  0
C  C128  1  0.92892340  0.02244877  0.42268247  1  -0.141526  0  -0.068353  -0.028617  0  4.043789  0
C  C129  1  0.42891793  0.47755058  0.07731715  1  -0.141586  0  -0.068311  -0.028277  0  4.043541  0
C  C130  1  0.07108060  0.97754791  0.57731644  1  -0.141403  0  -0.068298  -0.028354  0  4.043516  0
C  C131  1  0.57108250  0.52245030  0.92268239  1  -0.141705  0  -0.068267  -0.028388  0  4.043664  0
C  C132  1  0.83137582  0.09728414  0.44563840  1  -0.133931  0  -0.06272  -0.021391  0  4.025293  0
C  C133  1  0.33137270  0.40271668  0.05436199  1  -0.134005  0  -0.062713  -0.021683  0  4.025431  0
C  C134  1  0.16862729  0.90271339  0.55436162  1  -0.134012  0  -0.062813  -0.021649  0  4.025586  0
C  C135  1  0.66862684  0.59728337  0.94563890  1  -0.133854  0  -0.062675  -0.021504  0  4.025367  0
C  C136  1  0.86997634  0.20902043  0.44736947  1  -0.131993  0  -0.065554  -0.035065  0  4.025024  0
C  C137  1  0.36997490  0.29097929  0.05262975  1  -0.131983  0  -0.065576  -0.034994  0  4.024909  0
C  C138  1  0.13002141  0.79097539  0.55262686  1  -0.132068  0  -0.065418  -0.034787  0  4.024741  0
C  C139  1  0.63002375  0.70902244  0.94737139  1  -0.131967  0  -0.06557  -0.035036  0  4.024899  0
C  C140  1  0.99141480  0.20346502  0.42559105  1  -0.139695  0  -0.059245  -0.01761  0  4.036169  0
C  C141  1  0.49141149  0.29653226  0.07440872  1  -0.13972  0  -0.059259  -0.017576  0  4.036207  0
C  C142  1  0.00858563  0.79653251  0.57440848  1  -0.139742  0  -0.059298  -0.017666  0  4.03628  0
C  C143  1  0.50858715  0.70346864  0.92559279  1  -0.139372  0  -0.059279  -0.017595  0  4.036225  0
C  C144  1  0.14669443  0.04120015  0.38263164  1  -0.078428  0  -0.237126  -0.369845  0  3.967491  0
C  C145  1  0.64669290  0.45879765  0.11736594  1  -0.07873  0  -0.237095  -0.369797  0  3.967534  0
C  C146  1  0.85330332  0.95879821  0.61736703  1  -0.078715  0  -0.237142  -0.369881  0  3.967566  0
C  C147  1  0.35330574  0.54120237  0.88263200  1  -0.078726  0  -0.237125  -0.36984  0  3.967548  0
C  C148  1  0.93020529  0.89869241  0.41392984  1  -0.0738  0  -0.240548  -0.378004  0  3.976063  0
C  C149  1  0.43020332  0.60130633  0.08606996  1  -0.073849  0  -0.240495  -0.37798  0  3.976139  0
C  C150  1  0.06979604  0.10130428  0.58607005  1  -0.073992  0  -0.2405  -0.378047  0  3.976251  0
C  C151  1  0.56979532  0.39869454  0.91392910  1  -0.073815  0  -0.240541  -0.377991  0  3.976193  0
C  C152  1  0.70959437  0.06767786  0.46536549  1  -0.051612  0  -0.239199  -0.376915  0  3.982044  0
C  C153  1  0.20959196  0.43232376  0.03463607  1  -0.051582  0  -0.239229  -0.376855  0  3.98214  0
C  C154  1  0.29040160  0.93231967  0.53463453  1  -0.051469  0  -0.239204  -0.376853  0  3.982163  0
C  C155  1  0.79040668  0.56767628  0.96536286  1  -0.051604  0  -0.239274  -0.376966  0  3.982168  0
C  C156  1  0.79268479  0.31135010  0.46605935  1  -0.078918  0  -0.237591  -0.373549  0  3.970668  0
C  C157  1  0.29268231  0.18865012  0.03393999  1  -0.078834  0  -0.237544  -0.373505  0  3.970556  0
C  C158  1  0.20731296  0.68864573  0.53393895  1  -0.07877  0  -0.237573  -0.373603  0  3.970589  0
C  C159  1  0.70731813  0.81134992  0.96606041  1  -0.078908  0  -0.237546  -0.37352  0  3.970694  0
C  C160  1  0.06687264  0.30165347  0.42196810  1  -0.050355  0  -0.241396  -0.382308  0  3.990199  0
C  C161  1  0.56686942  0.19834570  0.07803218  1  -0.050352  0  -0.2414  -0.382327  0  3.990142  0
C  C162  1  0.93312779  0.69834406  0.57803291  1  -0.050719  0  -0.241413  -0.382322  0  3.99016  0
C  C163  1  0.43313011  0.80165604  0.92197092  1  -0.050953  0  -0.241383  -0.382286  0  3.990117  0
C  C164  1  0.98561306  0.23182978  0.13448390  1  -0.348864  0  -0.108738  -0.259297  0  3.80147  0
C  C165  1  0.48561214  0.26817090  0.36551835  1  -0.349021  0  -0.108749  -0.259289  0  3.801395  0
C  C166  1  0.01439273  0.76817025  0.86551502  1  -0.349252  0  -0.108719  -0.259255  0  3.801396  0
C  C167  1  0.51438472  0.73182582  0.63448499  1  -0.348882  0  -0.108785  -0.259454  0  3.801343  0
C  C168  1  0.95554696  0.12103542  0.09966948  1  0.00695  0  -0.016021  0.166391  0  4.012193  0
C  C169  1  0.45554699  0.37896881  0.40033332  1  0.00716  0  -0.015987  0.166475  0  4.01206  0
C  C170  1  0.04445615  0.87896545  0.90033006  1  0.006956  0  -0.015981  0.166471  0  4.012119  0
C  C171  1  0.54444897  0.62102959  0.59967076  1  0.007112  0  -0.01593  0.166648  0  4.011848  0
C  C172  1  0.89500300  0.10412693  0.03752741  1  -0.068484  0  -0.096241  -0.148381  0  3.96439  0
C  C173  1  0.39500370  0.39587769  0.46247499  1  -0.068957  0  -0.096255  -0.14848  0  3.96444  0
C  C174  1  0.10500011  0.89587561  0.96247140  1  -0.06851  0  -0.096276  -0.148512  0  3.964424  0
C  C175  1  0.60499584  0.60412156  0.53752971  1  -0.068721  0  -0.096325  -0.148622  0  3.964444  0
C  C176  1  0.86807795  0.19341037  0.00941179  1  -0.075952  0  -0.097263  -0.078949  0  4.050135  0
C  C177  1  0.36807923  0.30659946  0.49059189  1  -0.075641  0  -0.097322  -0.07914  0  4.050368  0
C  C178  1  0.13192337  0.80659134  0.99058738  1  -0.075992  0  -0.097271  -0.078966  0  4.05025  0
C  C179  1  0.63192388  0.69340314  0.50941331  1  -0.076174  0  -0.097232  -0.07896  0  4.050196  0
C  C180  1  0.89972477  0.30242295  0.04369228  1  -0.092933  0  -0.102653  -0.102315  0  4.038424  0
C  C181  1  0.39972240  0.19758417  0.45631245  1  -0.092888  0  -0.102617  -0.102168  0  4.038306  0
C  C182  1  0.10028013  0.69758044  0.95630715  1  -0.09283  0  -0.102666  -0.102337  0  4.038509  0
C  C183  1  0.60027714  0.80241591  0.54369237  1  -0.092515  0  -0.102668  -0.102362  0  4.038437  0
C  C184  1  0.95722168  0.32122361  0.10643880  1  -0.025418  0  -0.098239  -0.074318  0  4.072581  0
C  C185  1  0.45722044  0.17877978  0.39356437  1  -0.025315  0  -0.098265  -0.074388  0  4.072535  0
C  C186  1  0.04278322  0.67877559  0.89356049  1  -0.024999  0  -0.098235  -0.074317  0  4.07254  0
C  C187  1  0.54277731  0.82121945  0.60643885  1  -0.025359  0  -0.098234  -0.074217  0  4.072375  0
C  C188  1  0.98982515  0.02164147  0.12593064  1  -0.083112  0  -0.247294  -0.427387  0  3.969108  0
C  C189  1  0.48982721  0.47836001  0.37406928  1  -0.083329  0  -0.247291  -0.427434  0  3.969025  0
C  C190  1  0.01017439  0.97835940  0.87406792  1  -0.083201  0  -0.247272  -0.427417  0  3.96906  0
C  C191  1  0.51016875  0.52163921  0.62593149  1  -0.083552  0  -0.247229  -0.427427  0  3.969039  0
C  C192  1  0.99446921  0.42967115  0.28003911  1  -0.354543  0  -0.105524  -0.243458  0  3.789836  0
C  C193  1  0.49446456  0.07032609  0.21995918  1  -0.354455  0  -0.105518  -0.243425  0  3.789653  0
C  C194  1  0.00553390  0.57032722  0.71996202  1  -0.354821  0  -0.105518  -0.243394  0  3.789833  0
C  C195  1  0.50553319  0.92967142  0.78003887  1  -0.354479  0  -0.10553  -0.243396  0  3.789838  0
C  C196  1  0.05005248  0.51848971  0.32753411  1  0.023517  0  -0.013587  0.176615  0  3.998189  0
C  C197  1  0.55004980  0.98150727  0.17246366  1  0.023568  0  -0.013582  0.176655  0  3.99812  0
C  C198  1  0.94994706  0.48150867  0.67246800  1  0.024096  0  -0.013626  0.176624  0  3.998162  0
C  C199  1  0.44994974  0.01848858  0.82753561  1  0.023869  0  -0.013624  0.176487  0  3.998282  0
C  C200  1  0.97846218  0.60781028  0.36294077  1  -0.010445  0  -0.099974  -0.14854  0  3.959302  0
C  C201  1  0.47845899  0.89218813  0.13705797  1  -0.010931  0  -0.100029  -0.148621  0  3.959539  0
C  C202  1  0.02153826  0.39219061  0.63706073  1  -0.011174  0  -0.099979  -0.148575  0  3.959401  0
C  C203  1  0.52153787  0.10780858  0.86294389  1  -0.011284  0  -0.099998  -0.148653  0  3.959339  0
C  C204  1  0.85617309  0.61122033  0.35013946  1  -0.047464  0  -0.097463  -0.077833  0  4.04801  0
C  C205  1  0.35616901  0.88878305  0.14985764  1  -0.047253  0  -0.097414  -0.077707  0  4.048018  0
C  C206  1  0.14382913  0.38878388  0.64985813  1  -0.047351  0  -0.097442  -0.07775  0  4.048022  0
C  C207  1  0.64382606  0.11121699  0.85014129  1  -0.047407  0  -0.097441  -0.077701  0  4.047826  0
C  C208  1  0.80233374  0.52435167  0.30176406  1  -0.073332  0  -0.105078  -0.108549  0  4.041799  0
C  C209  1  0.30232808  0.97565539  0.19823215  1  -0.073355  0  -0.105147  -0.108724  0  4.041863  0
C  C210  1  0.19767026  0.47565420  0.69823182  1  -0.073233  0  -0.105115  -0.108722  0  4.041913  0
C  C211  1  0.69766788  0.02434880  0.80176348  1  -0.073185  0  -0.105122  -0.108712  0  4.04179  0
C  C212  1  0.87182985  0.43333320  0.26768372  1  -0.083599  0  -0.104697  -0.086247  0  4.117703  0
C  C213  1  0.37182520  0.06667152  0.23231281  1  -0.083659  0  -0.104728  -0.08634  0  4.117916  0
C  C214  1  0.12817326  0.56667101  0.73231386  1  -0.083633  0  -0.104721  -0.086345  0  4.117873  0
C  C215  1  0.62817434  0.93333100  0.76768354  1  -0.083758  0  -0.104713  -0.08629  0  4.117723  0
C  C216  1  0.18256745  0.52123021  0.33999265  1  -0.10091  0  -0.244998  -0.422485  0  3.95981  0
C  C217  1  0.68256660  0.97877179  0.16000580  1  -0.100944  0  -0.245023  -0.422539  0  3.959806  0
C  C218  1  0.81743119  0.47877154  0.66001046  1  -0.100957  0  -0.245026  -0.422616  0  3.95977  0
C  C219  1  0.31743383  0.02122740  0.83999300  1  -0.101041  0  -0.245019  -0.422524  0  3.959828  0
O  O220  1  0.94824888  0.18242345  0.28172131  1  -1.001313  0  -0.53619  -0.742678  0  2.036402  0
O  O221  1  0.44825323  0.31757998  0.21827990  1  -1.001355  0  -0.536188  -0.74264  0  2.036471  0
O  O222  1  0.05174887  0.81757911  0.71827897  1  -1.001357  0  -0.536208  -0.742666  0  2.036424  0
O  O223  1  0.55174542  0.68242091  0.78172112  1  -1.001333  0  -0.536239  -0.742696  0  2.036447  0
O  O224  1  0.89691113  0.95931075  0.27913408  1  -0.850263  0  -0.536837  -0.648163  0  1.681118  0
O  O225  1  0.39690400  0.54069071  0.22086467  1  -0.850156  0  -0.536817  -0.648136  0  1.681087  0
O  O226  1  0.10310270  0.04068844  0.72086373  1  -0.850175  0  -0.536868  -0.648196  0  1.681297  0
O  O227  1  0.60310447  0.45931185  0.77913562  1  -0.85018  0  -0.536867  -0.648193  0  1.681329  0
O  O228  1  0.21799776  0.37660907  0.17819103  1  -1.006852  0  -0.53945  -0.742558  0  2.007536  0
O  O229  1  0.71799644  0.12338327  0.32181011  1  -1.005187  0  -0.539416  -0.742566  0  2.007665  0
O  O230  1  0.78200178  0.62339772  0.82181332  1  -1.006868  0  -0.539429  -0.742557  0  2.007592  0
O  O231  1  0.28200310  0.87660836  0.67818706  1  -1.006867  0  -0.539459  -0.742575  0  2.007643  0
