# generated using pymatgen
data_Ni2H76C53(NO)12
_symmetry_space_group_name_H-M   'P 1'
_cell_length_a   8.95596800
_cell_length_b   18.88961880
_cell_length_c   23.40469463
_cell_angle_alpha   86.08663916
_cell_angle_beta   78.97915229
_cell_angle_gamma   76.27938780
_symmetry_Int_Tables_number   1
_chemical_formula_structural   Ni2H76C53(NO)12
_chemical_formula_sum   'Ni4 H152 C106 N24 O24'
_cell_volume   3774.46884392
_cell_formula_units_Z   2
loop_
 _symmetry_equiv_pos_site_id
 _symmetry_equiv_pos_as_xyz
  1  'x, y, z'
loop_
 _atom_site_type_symbol
 _atom_site_label
 _atom_site_symmetry_multiplicity
 _atom_site_fract_x
 _atom_site_fract_y
 _atom_site_fract_z
 _atom_site_occupancy
 _atom_site_pbe_bader_charge
 _atom_site_pbe_bader_spin_density
 _atom_site_pbe_cm5_charge
 _atom_site_pbe_ddec_charge
 _atom_site_pbe_ddec_spin_density
 _atom_site_pbe_ddec_sum_bond_order
 _atom_site_pbe_magmom
Ni  Ni0  1  0.49999883  0.50000095  0.00000058  1  1.058085  1.495459  0.642041  0.614898  1.728587  2.554966  1.481
Ni  Ni1  1  0.00000102  0.99999756  0.50000104  1  1.059563  1.495676  0.641305  0.613927  1.728639  2.554782  1.482
Ni  Ni2  1  0.49999862  0.00000025  0.99999930  1  1.053019  1.494461  0.642739  0.620358  1.728016  2.550988  1.481
Ni  Ni3  1  0.49999977  0.50000040  0.49999926  1  1.052726  1.494648  0.642229  0.617941  1.727976  2.556284  1.481
H  H4  1  0.61116335  0.38343164  0.04949609  1  0.495639  -0.000244  0.285325  0.249318  -0.000226  1.013773  0.0
H  H5  1  0.73921645  0.52745652  0.02922200  1  0.413463  -0.00016  0.304679  0.24932  -0.000234  0.927457  0.0
H  H6  1  0.36468358  0.47646413  0.13407781  1  0.076327  0.000777  0.112261  0.065405  0.000234  1.010381  0.001
H  H7  1  0.49466923  0.39487268  0.15433236  1  0.03375  0.007552  0.10353  0.052617  0.003558  0.967152  0.003
H  H8  1  0.64656676  0.58466528  0.12382496  1  0.044528  0.005076  0.102148  0.05459  0.002374  1.035184  0.003
H  H9  1  0.45332788  0.58397936  0.11335905  1  0.065963  0.000819  0.115918  0.077816  0.000196  0.984814  0.001
H  H10  1  0.26483878  0.41506221  0.07216181  1  0.025985  0.000333  0.106425  0.086061  -3e-06  0.973031  0.0
H  H11  1  0.38889993  0.32669866  0.07680422  1  0.006602  0.004969  0.0938  0.059774  0.002329  0.998862  0.002
H  H12  1  0.69434221  0.65698597  0.01938253  1  0.075544  0.003394  0.095788  0.073961  0.001636  1.0161  0.002
H  H13  1  0.49100067  0.66065731  0.02918434  1  0.065869  0.000237  0.111027  0.093882  -5.5e-05  0.981382  0.0
H  H14  1  0.81319184  0.41985271  0.08516977  1  0.068839  -5.5e-05  0.08696  0.096561  -0.000106  1.023784  0.0
H  H15  1  0.75687489  0.39554123  0.15947438  1  0.049097  0.00037  0.100351  0.110942  0.000166  0.983188  0.0
H  H16  1  0.82360797  0.47731880  0.14160129  1  0.057941  0.000156  0.096202  0.106631  7.2e-05  1.012273  0.0
H  H17  1  0.51936959  0.91228774  0.92219698  1  0.490788  -0.00028  0.285867  0.25151  -0.000224  1.009831  0.0
H  H18  1  0.26507247  0.94613716  0.03784864  1  0.420124  -0.000322  0.305633  0.252492  -0.000325  0.930014  0.0
H  H19  1  0.39131995  0.98584511  0.13503408  1  0.061381  0.0002  0.110841  0.09485  -7.9e-05  0.973259  0.0
H  H20  1  0.19460178  0.97882877  0.13762972  1  0.052507  0.003278  0.092236  0.067296  0.001562  1.029923  0.002
H  H21  1  0.53413925  0.87334316  0.09158059  1  0.067566  0.000855  0.115381  0.072962  0.000197  0.998175  0.001
H  H22  1  0.35523859  0.84291228  0.10131399  1  0.056642  0.005299  0.103101  0.053704  0.002486  1.031904  0.003
H  H23  1  0.78998231  0.89128825  0.87400247  1  0.035407  0.004714  0.098794  0.072099  0.002208  0.963956  0.002
H  H24  1  0.83514931  0.91992774  0.93846632  1  0.036006  0.000259  0.108339  0.088241  -3.6e-05  0.968454  0.0
H  H25  1  0.67901565  0.79402705  0.95169626  1  0.01575  0.007403  0.10201  0.049102  0.003452  0.97988  0.003
H  H26  1  0.71967458  0.84277982  0.00780670  1  0.050376  0.000844  0.113952  0.068611  0.000248  1.013717  0.001
H  H27  1  0.31127267  0.86064596  0.96863609  1  0.048126  -5.7e-05  0.091034  0.102049  -9.8e-05  1.0113  0.0
H  H28  1  0.28918204  0.78941893  0.02200017  1  0.039786  0.000162  0.096452  0.108675  7.9e-05  1.024624  0.0
H  H29  1  0.42871926  0.77144114  0.95698431  1  0.056864  0.00033  0.100763  0.113894  0.000154  0.999673  0.0
H  H30  1  0.70266974  0.13370431  0.76849330  1  0.059788  2.2e-05  0.106797  0.079814  6e-06  0.977635  0.0
H  H31  1  0.84453462  0.17430765  0.72141603  1  0.082705  -2e-06  0.10734  0.081193  -1.4e-05  0.987392  0.0
H  H32  1  0.45266544  0.20840569  0.81290490  1  0.071002  1e-05  0.107032  0.075829  5e-06  0.992889  0.0
H  H33  1  0.53609442  0.27220979  0.84196204  1  0.073794  0.000174  0.10563  0.075118  0.000107  0.992396  0.0
H  H34  1  0.06703218  0.28219587  0.96953282  1  0.111732  0.000117  0.101949  0.101575  4.3e-05  1.009416  0.0
H  H35  1  0.19181532  0.98699779  0.80808002  1  0.094952  2.7e-05  0.102643  0.105934  -2.1e-05  1.000221  0.0
H  H36  1  0.98228812  0.06913790  0.76163968  1  0.093089  0.000217  0.10245  0.113134  0.000101  1.017245  0.0
H  H37  1  0.31467103  0.24885326  0.89823368  1  0.082229  0.000183  0.101276  0.105262  8.7e-05  1.061928  0.0
H  H38  1  0.12465816  0.41480593  0.77860727  1  0.087567  1.5e-05  0.105036  0.123034  -5e-06  1.003823  0.0
H  H39  1  0.87953256  0.44990635  0.85308647  1  0.064418  0.00028  0.096677  0.094626  0.000176  1.029448  0.0
H  H40  1  0.10548698  0.13692616  0.94624376  1  0.076678  0.00026  0.099807  0.099653  0.00017  1.029258  0.0
H  H41  1  0.89990844  0.22136322  0.89961685  1  0.074856  6.5e-05  0.104819  0.118757  2.7e-05  1.016019  0.0
H  H42  1  0.04398404  0.11658911  0.45057249  1  0.488766  -0.000265  0.285605  0.250111  -0.000222  1.012411  0.0
H  H43  1  0.29603450  0.97269690  0.47103994  1  0.404259  -0.000132  0.305324  0.249769  -0.000223  0.926595  0.0
H  H44  1  0.97577291  0.02344797  0.36591382  1  0.043618  0.000793  0.112429  0.066551  0.000235  1.009044  0.001
H  H45  1  0.04414810  0.10510749  0.34571187  1  0.034516  0.007547  0.103692  0.053597  0.003556  0.965684  0.003
H  H46  1  0.35591711  0.91554746  0.37641560  1  0.040333  0.005094  0.102785  0.05582  0.002369  1.033734  0.003
H  H47  1  0.15170569  0.91598875  0.38672364  1  0.066782  0.00082  0.115478  0.077056  0.000195  0.985175  0.001
H  H48  1  0.75231923  0.08486016  0.42761051  1  0.053968  0.000328  0.106805  0.0862  -3e-06  0.973303  0.0
H  H49  1  0.79244464  0.17324928  0.42306762  1  0.006101  0.004964  0.093648  0.059992  0.002326  0.998462  0.002
H  H50  1  0.37115566  0.84318395  0.48087461  1  0.036638  0.003457  0.095821  0.073312  0.001634  1.016616  0.002
H  H51  1  0.18150188  0.83942692  0.47085404  1  0.062211  0.000237  0.111144  0.094438  -5.5e-05  0.98104  0.0
H  H52  1  0.31841599  0.08038272  0.41490367  1  0.065402  -5.4e-05  0.086993  0.095629  -0.000105  1.024558  0.0
H  H53  1  0.31197092  0.10459146  0.34058377  1  0.045109  0.00037  0.100378  0.110479  0.000167  0.982448  0.0
H  H54  1  0.44279983  0.02288578  0.35851065  1  0.056168  0.000156  0.095959  0.106504  7.2e-05  1.014044  0.0
H  H55  1  0.35370696  0.58773180  0.57776052  1  0.478659  -0.000239  0.28519  0.250677  -0.000222  1.01056  0.0
H  H56  1  0.24900364  0.55395016  0.46205496  1  0.42195  -0.000323  0.305126  0.25112  -0.000322  0.930664  0.0
H  H57  1  0.51229092  0.51426837  0.36494706  1  0.072854  0.0002  0.110834  0.094876  -7.9e-05  0.972867  0.0
H  H58  1  0.31122022  0.52122177  0.36229424  1  0.027754  0.003317  0.091784  0.067525  0.001562  1.029676  0.002
H  H59  1  0.49900624  0.62671503  0.40839000  1  0.079608  0.000842  0.11551  0.072974  0.000195  0.998684  0.001
H  H60  1  0.29937047  0.65719532  0.39866917  1  0.068561  0.00529  0.103537  0.054707  0.002487  1.031599  0.003
H  H61  1  0.55494569  0.60862360  0.62609146  1  0.031161  0.004716  0.098668  0.071602  0.00221  0.963588  0.002
H  H62  1  0.69335648  0.58001718  0.56167704  1  0.04942  0.000257  0.108753  0.088604  -3.7e-05  0.96923  0.0
H  H63  1  0.42471860  0.70595108  0.54833882  1  0.014711  0.007397  0.10186  0.048964  0.003447  0.979755  0.003
H  H64  1  0.57030168  0.65719308  0.49223365  1  0.061089  0.000839  0.114451  0.069284  0.000248  1.01201  0.001
H  H65  1  0.14049438  0.63944224  0.53129702  1  0.047587  -5.7e-05  0.090899  0.101786  -9.8e-05  1.011931  0.0
H  H66  1  0.10067062  0.71065970  0.47789029  1  0.033212  0.000164  0.097145  0.108969  8e-05  1.025294  0.0
H  H67  1  0.15705494  0.72865487  0.54293563  1  0.010469  0.000333  0.100667  0.113505  0.000154  1.000233  0.0
H  H68  1  0.60525126  0.36656969  0.73151838  1  0.060388  2.2e-05  0.106169  0.079045  7e-06  0.977629  0.0
H  H69  1  0.74028019  0.32580476  0.77873056  1  0.077306  -1e-06  0.107459  0.081435  -1.4e-05  0.987037  0.0
H  H70  1  0.47367136  0.29186051  0.68708130  1  0.067109  1e-05  0.107548  0.076546  5e-06  0.993717  0.0
H  H71  1  0.65038404  0.22827994  0.65799194  1  0.059792  0.000178  0.105825  0.074863  0.000109  0.993309  0.0
H  H72  1  0.31936874  0.21785522  0.53029554  1  0.108481  0.000119  0.102423  0.102671  4.3e-05  1.008487  0.0
H  H73  1  0.98743240  0.51314423  0.69193919  1  0.086365  2.6e-05  0.102931  0.106126  -2.1e-05  1.000344  0.0
H  H74  1  0.81361744  0.43104745  0.73845103  1  0.051102  0.000223  0.102114  0.11236  0.000101  1.018157  0.0
H  H75  1  0.46246310  0.25118347  0.60158299  1  0.066059  0.000184  0.100525  0.104833  8.6e-05  1.062741  0.0
H  H76  1  0.31887245  0.08525046  0.72122024  1  0.088131  1.5e-05  0.105316  0.123068  -4e-06  1.003584  0.0
H  H77  1  0.18324834  0.05017279  0.64676490  1  0.060588  0.000282  0.096491  0.093508  0.000176  1.029513  0.0
H  H78  1  0.18894491  0.36310908  0.55382871  1  0.088983  0.000258  0.099409  0.099054  0.00017  1.028706  0.0
H  H79  1  0.02123972  0.27873111  0.60051694  1  0.080569  6.4e-05  0.104714  0.119348  2.7e-05  1.014946  0.0
H  H80  1  0.38883479  0.61656969  0.95050294  1  0.495621  -0.000244  0.285318  0.24933  -0.000227  1.013749  0.0
H  H81  1  0.26078133  0.47254319  0.97077842  1  0.413434  -0.000159  0.30471  0.249318  -0.000233  0.927463  0.0
H  H82  1  0.63531735  0.52353612  0.86592193  1  0.076343  0.000777  0.112272  0.065436  0.000234  1.010359  0.001
H  H83  1  0.50532802  0.60512811  0.84566761  1  0.033537  0.007554  0.103516  0.052611  0.003558  0.967174  0.003
H  H84  1  0.35343469  0.41533388  0.87617566  1  0.044552  0.005076  0.102159  0.054582  0.002374  1.035205  0.003
H  H85  1  0.54667160  0.41602144  0.88664290  1  0.065922  0.000819  0.115925  0.077849  0.000196  0.984782  0.001
H  H86  1  0.73515722  0.58493641  0.92784050  1  0.026006  0.000333  0.106444  0.086111  -3e-06  0.972998  0.0
H  H87  1  0.61110152  0.67330050  0.92319597  1  0.006638  0.004969  0.093764  0.05973  0.002329  0.998795  0.002
H  H88  1  0.30565556  0.34301373  0.98061832  1  0.075447  0.003395  0.095801  0.073972  0.001636  1.016106  0.002
H  H89  1  0.50899596  0.33934239  0.97081617  1  0.065895  0.000237  0.111035  0.09387  -5.5e-05  0.981371  0.0
H  H90  1  0.18680619  0.58014645  0.91483109  1  0.068826  -5.5e-05  0.086983  0.096602  -0.000106  1.023749  0.0
H  H91  1  0.24312403  0.60445847  0.84052553  1  0.049315  0.00037  0.10032  0.110915  0.000166  0.983225  0.0
H  H92  1  0.17639288  0.52267926  0.85839857  1  0.057904  0.000156  0.096198  0.106631  7.2e-05  1.012239  0.0
H  H93  1  0.48063819  0.08771251  0.07780057  1  0.49084  -0.00028  0.285843  0.251537  -0.000225  1.009801  0.0
H  H94  1  0.73492426  0.05386472  0.96215003  1  0.420142  -0.000322  0.30566  0.252563  -0.000325  0.929932  0.0
H  H95  1  0.60868234  0.01415241  0.86496443  1  0.061421  0.0002  0.110854  0.094904  -7.9e-05  0.973221  0.0
H  H96  1  0.80539917  0.02117148  0.86236873  1  0.052469  0.003278  0.092242  0.067306  0.001562  1.029937  0.002
H  H97  1  0.46585313  0.12665600  0.90841854  1  0.0682  0.000854  0.115374  0.072963  0.000197  0.998199  0.001
H  H98  1  0.64475331  0.15708796  0.89868254  1  0.056629  0.005299  0.103079  0.053658  0.002485  1.031966  0.003
H  H99  1  0.21001890  0.10871145  0.12599642  1  0.03545  0.004714  0.09879  0.072109  0.002208  0.963988  0.002
H  H100  1  0.16485304  0.08007196  0.06153249  1  0.036374  0.000259  0.108342  0.088259  -3.5e-05  0.968415  0.0
H  H101  1  0.32098382  0.20597156  0.04830282  1  0.01577  0.007402  0.102023  0.049105  0.003452  0.979906  0.003
H  H102  1  0.28032374  0.15721879  0.99219289  1  0.050373  0.000844  0.113946  0.068565  0.000248  1.013801  0.001
H  H103  1  0.68872558  0.13935755  0.03136024  1  0.048288  -5.7e-05  0.091083  0.102045  -9.8e-05  1.011306  0.0
H  H104  1  0.71081387  0.21058240  0.97799645  1  0.039738  0.000162  0.096445  0.108601  7.9e-05  1.024659  0.0
H  H105  1  0.57128148  0.22855964  0.04301114  1  0.057072  0.00033  0.100727  0.11385  0.000154  0.999781  0.0
H  H106  1  0.29732270  0.86629922  0.23150986  1  0.059801  2.2e-05  0.106807  0.079807  6e-06  0.97762  0.0
H  H107  1  0.15546025  0.82569096  0.27858594  1  0.082597  -2e-06  0.107371  0.081173  -1.4e-05  0.98736  0.0
H  H108  1  0.54732933  0.79159564  0.18709180  1  0.070975  1.1e-05  0.107039  0.075848  5e-06  0.992897  0.0
H  H109  1  0.46389960  0.72778828  0.15803917  1  0.073749  0.000174  0.105647  0.075148  0.000107  0.992364  0.0
H  H110  1  0.93296100  0.71781092  0.03046668  1  0.111569  0.000117  0.101945  0.101544  4.3e-05  1.00945  0.0
H  H111  1  0.80817461  0.01300627  0.19192157  1  0.094954  2.7e-05  0.102655  0.105967  -2.1e-05  1.000036  0.0
H  H112  1  0.01769453  0.93086236  0.23836562  1  0.093096  0.000217  0.102498  0.113161  0.000101  1.017091  0.0
H  H113  1  0.68532146  0.75115025  0.10176691  1  0.082329  0.000183  0.101334  0.105362  8.7e-05  1.06174  0.0
H  H114  1  0.87534258  0.58519704  0.22139191  1  0.087691  1.5e-05  0.104973  0.122935  -5e-06  1.003755  0.0
H  H115  1  0.12046888  0.55009989  0.14691077  1  0.064595  0.00028  0.096638  0.094498  0.000176  1.029407  0.0
H  H116  1  0.89451481  0.86307464  0.05375631  1  0.07668  0.00026  0.099812  0.099697  0.00017  1.029271  0.0
H  H117  1  0.10008942  0.77864084  0.10038589  1  0.074267  6.5e-05  0.104838  0.11881  2.7e-05  1.016084  0.0
H  H118  1  0.95601919  0.88340405  0.54942876  1  0.488708  -0.000265  0.285601  0.250087  -0.000222  1.01243  0.0
H  H119  1  0.70397172  0.02729244  0.52896216  1  0.404209  -0.000132  0.305349  0.249696  -0.000223  0.926643  0.0
H  H120  1  0.02423173  0.97654465  0.63408736  1  0.043542  0.000793  0.112458  0.066537  0.000235  1.009013  0.001
H  H121  1  0.95585512  0.89488567  0.65428981  1  0.034479  0.007547  0.10368  0.053552  0.003556  0.965622  0.003
H  H122  1  0.64408525  0.08444516  0.62358617  1  0.040416  0.005093  0.102808  0.05591  0.002369  1.033664  0.003
H  H123  1  0.84830010  0.08400386  0.61327703  1  0.066815  0.00082  0.115494  0.077113  0.000195  0.985187  0.001
H  H124  1  0.24768850  0.91513082  0.57239012  1  0.054172  0.000328  0.106816  0.086252  -3e-06  0.97323  0.0
H  H125  1  0.20755827  0.82674225  0.57693331  1  0.005882  0.004965  0.093646  0.060031  0.002326  0.998531  0.002
H  H126  1  0.62884097  0.15680649  0.51912640  1  0.036621  0.003458  0.095757  0.073248  0.001634  1.016704  0.002
H  H127  1  0.81849455  0.16056625  0.52914684  1  0.062491  0.000237  0.111168  0.094422  -5.5e-05  0.981083  0.0
H  H128  1  0.68158844  0.91961263  0.58509823  1  0.065139  -5.4e-05  0.086997  0.095683  -0.000105  1.024564  0.0
H  H129  1  0.68802926  0.89540334  0.65941633  1  0.044971  0.00037  0.100391  0.110591  0.000167  0.982426  0.0
H  H130  1  0.55720656  0.97710793  0.64148992  1  0.056316  0.000156  0.095973  0.106504  7.2e-05  1.01406  0.0
H  H131  1  0.64629206  0.41227008  0.42223756  1  0.478611  -0.00024  0.285215  0.250663  -0.000222  1.010539  0.0
H  H132  1  0.75099255  0.44605281  0.53794411  1  0.421992  -0.000323  0.305142  0.251145  -0.000322  0.930608  0.0
H  H133  1  0.48770416  0.48573460  0.63505081  1  0.072923  0.0002  0.110811  0.094817  -7.9e-05  0.97297  0.0
H  H134  1  0.68877312  0.47878011  0.63770424  1  0.027849  0.003317  0.091779  0.067547  0.001562  1.029707  0.002
H  H135  1  0.50099418  0.37328630  0.59160843  1  0.079638  0.000842  0.115505  0.07292  0.000195  0.998706  0.001
H  H136  1  0.70062943  0.34280710  0.60132796  1  0.069322  0.005287  0.103528  0.054745  0.002487  1.03151  0.003
H  H137  1  0.44505421  0.39137883  0.37390610  1  0.031015  0.004717  0.098662  0.07154  0.00221  0.963651  0.002
H  H138  1  0.30664535  0.41998361  0.43832090  1  0.049585  0.000257  0.108714  0.088519  -3.7e-05  0.969201  0.0
H  H139  1  0.57528296  0.29405025  0.45165911  1  0.014744  0.007396  0.101911  0.04904  0.003447  0.97967  0.003
H  H140  1  0.42969788  0.34280771  0.50776402  1  0.061139  0.000839  0.114425  0.069234  0.000248  1.012026  0.001
H  H141  1  0.85950969  0.36055855  0.46870247  1  0.047541  -5.7e-05  0.090909  0.101786  -9.8e-05  1.011944  0.0
H  H142  1  0.89932555  0.28934328  0.52211006  1  0.033553  0.000164  0.09714  0.108986  8e-05  1.025331  0.0
H  H143  1  0.84294887  0.27134647  0.45706385  1  0.010499  0.000333  0.100679  0.11353  0.000154  1.000254  0.0
H  H144  1  0.39474833  0.63343329  0.26848131  1  0.060437  2.2e-05  0.106177  0.079049  7e-06  0.977617  0.0
H  H145  1  0.25971991  0.67419713  0.22127086  1  0.077334  -1e-06  0.107447  0.081386  -1.4e-05  0.987089  0.0
H  H146  1  0.52633354  0.70813864  0.31291694  1  0.067092  1e-05  0.107545  0.07655  5e-06  0.993755  0.0
H  H147  1  0.34961599  0.77171976  0.34200961  1  0.05966  0.000178  0.105824  0.074911  0.000109  0.99329  0.0
H  H148  1  0.68064241  0.78213576  0.46970442  1  0.108149  0.000119  0.102351  0.102555  4.3e-05  1.008614  0.0
H  H149  1  0.01256295  0.48686038  0.30806241  1  0.086463  2.6e-05  0.102963  0.106192  -2.1e-05  1.000438  0.0
H  H150  1  0.18637898  0.56895498  0.26155062  1  0.051165  0.000223  0.102132  0.112399  0.000101  1.018123  0.0
H  H151  1  0.53754221  0.74881242  0.39841839  1  0.065986  0.000184  0.100472  0.104794  8.6e-05  1.062768  0.0
H  H152  1  0.68113064  0.91474979  0.27878491  1  0.088247  1.5e-05  0.105314  0.123074  -4e-06  1.003644  0.0
H  H153  1  0.81675778  0.94982364  0.35323938  1  0.060571  0.000282  0.096526  0.09357  0.000176  1.029544  0.0
H  H154  1  0.81105210  0.63689444  0.44617326  1  0.088905  0.000258  0.099372  0.098999  0.00017  1.028681  0.0
H  H155  1  0.97876074  0.72127241  0.39948265  1  0.08051  6.4e-05  0.104726  0.119317  2.7e-05  1.014934  0.0
C  C156  1  0.48336516  0.44196377  0.12331316  1  0.599033  -0.000311  0.026543  0.063638  -0.000897  3.946936  -0.002
C  C157  1  0.57704061  0.55508922  0.10446307  1  0.646641  -0.000367  0.021674  0.05026  -0.001026  3.931367  -0.002
C  C158  1  0.37982688  0.38053523  0.05424918  1  0.311573  0.000598  -0.068924  -0.043359  -6.3e-05  3.926841  -0.001
C  C159  1  0.60761525  0.62812397  0.01106518  1  0.236973  0.000441  -0.072192  -0.057035  -0.000346  3.900428  -0.001
C  C160  1  0.75513454  0.44202749  0.12844971  1  0.188621  2.7e-05  -0.146114  -0.260974  -3.6e-05  3.963657  0.0
C  C161  1  0.29712080  0.99328468  0.10954420  1  0.260849  0.000414  -0.072132  -0.053487  -0.000383  3.892744  -0.001
C  C162  1  0.43580485  0.86988200  0.07085298  1  0.577468  -0.00043  0.021385  0.045011  -0.001135  3.937139  -0.002
C  C163  1  0.74356150  0.92732494  0.91169928  1  0.290635  0.000437  -0.065548  -0.037526  -0.000226  3.911457  -0.001
C  C164  1  0.63153804  0.84035758  0.98155131  1  0.652725  -0.000452  0.026514  0.061182  -0.001028  3.942376  -0.002
C  C165  1  0.37432027  0.81214666  0.99059203  1  0.249489  5.4e-05  -0.145819  -0.259824  -1.4e-05  3.940374  0.0
C  C166  1  0.75051965  0.18283712  0.75991306  1  0.410888  5e-05  -0.061456  -0.027078  2.2e-05  3.855599  0.0
C  C167  1  0.16128127  0.05654407  0.87995791  1  0.004152  0.006712  -0.037541  -0.068641  0.004032  4.009281  0.005
C  C168  1  0.49279556  0.25946706  0.80379502  1  0.400244  0.000133  -0.062374  -0.025498  9.5e-05  3.866916  0.0
C  C169  1  0.23418253  0.33014759  0.83366944  1  0.403031  -0.000462  0.083937  0.263824  -0.0006  4.059675  0.0
C  C170  1  0.08155526  0.31125597  0.92767736  1  -0.110128  0.00018  -0.086688  -0.071902  -0.000227  4.016913  0.0
C  C171  1  0.95842409  0.36798990  0.91609057  1  -0.030803  0.006817  -0.039496  -0.074893  0.004114  4.020723  0.005
C  C172  1  0.12591865  0.03834027  0.82791499  1  -0.101586  0.000245  -0.08747  -0.0743  -0.00019  4.006888  0.0
C  C173  1  0.92725611  0.14976019  0.82889171  1  0.424091  -0.000525  0.081954  0.260437  -0.000601  4.066848  0.0
C  C174  1  0.00899632  0.08425468  0.80201908  1  -0.094872  0.000715  -0.115542  -0.235724  0.00037  4.033755  0.0
C  C175  1  0.21958016  0.29206966  0.88722160  1  -0.010285  0.00085  -0.114487  -0.23136  0.000455  4.016019  0.001
C  C176  1  0.28921727  0.00777601  0.90713945  1  1.561796  -4.5e-05  0.190344  0.550079  -0.000493  4.260259  0.0
C  C177  1  0.11084177  0.38661149  0.82085764  1  0.026199  0.000336  -0.107126  -0.207789  0.000141  4.00189  0.0
C  C178  1  0.97527895  0.40542056  0.86208027  1  -0.051962  -0.000507  -0.091952  -0.082846  -0.000637  4.0265  0.0
C  C179  1  0.07794661  0.12268260  0.90580382  1  0.019033  -0.000253  -0.09052  -0.076369  -0.000378  4.014406  0.0
C  C180  1  0.81156151  0.38742617  0.96084443  1  1.55534  -0.000771  0.191351  0.547837  -0.001321  4.261316  -0.001
C  C181  1  0.96292554  0.16921226  0.88056259  1  -0.036447  0.000316  -0.1076  -0.204939  0.00014  4.011375  0.0
C  C182  1  0.04899284  0.05801281  0.37674295  1  0.635622  -0.000327  0.026352  0.061604  -0.000908  3.94716  -0.002
C  C183  1  0.23731864  0.94500606  0.39570462  1  0.656264  -0.000387  0.021144  0.049579  -0.001024  3.9299  -0.002
C  C184  1  0.81457557  0.11941452  0.44564832  1  0.283931  0.000584  -0.069119  -0.043978  -6.2e-05  3.928458  -0.001
C  C185  1  0.24722741  0.87197872  0.48906936  1  0.298106  0.000388  -0.071679  -0.055727  -0.000343  3.901905  -0.001
C  C186  1  0.32584040  0.05814250  0.37164644  1  0.207454  2.7e-05  -0.145363  -0.258475  -3.6e-05  3.965957  0.0
C  C187  1  0.40005974  0.50681392  0.39041353  1  0.25751  0.000366  -0.071309  -0.053784  -0.000385  3.894732  -0.001
C  C188  1  0.37649423  0.63019833  0.42911703  1  0.556724  -0.000398  0.021493  0.044762  -0.001122  3.937216  -0.002
C  C189  1  0.58235126  0.57260056  0.58837602  1  0.29729  0.000441  -0.065854  -0.03722  -0.000224  3.911359  -0.001
C  C190  1  0.45346646  0.65963583  0.51846540  1  0.65058  -0.000447  0.025316  0.05942  -0.00102  3.94122  -0.002
C  C191  1  0.17701752  0.68792700  0.50934511  1  0.29375  5.6e-05  -0.145582  -0.257939  -1.3e-05  3.940359  0.0
C  C192  1  0.69348479  0.31737603  0.74015069  1  0.415316  5.1e-05  -0.06087  -0.026773  2.3e-05  3.855213  0.0
C  C193  1  0.09824752  0.44349662  0.62011876  1  -0.007878  0.00669  -0.038618  -0.07068  0.004029  4.009947  0.005
C  C194  1  0.55607328  0.24086993  0.69614259  1  0.409414  0.000133  -0.062499  -0.02524  9.5e-05  3.869453  0.0
C  C195  1  0.39865036  0.16993455  0.66616690  1  0.381441  -0.000462  0.081736  0.260563  -0.000602  4.060779  0.0
C  C196  1  0.32109571  0.18880497  0.57215848  1  -0.093435  0.000163  -0.087574  -0.073522  -0.00023  4.017272  0.0
C  C197  1  0.24308888  0.13208056  0.58375632  1  -0.044011  0.006859  -0.040497  -0.078015  0.004116  4.02239  0.005
C  C198  1  0.99269465  0.46177509  0.67216002  1  -0.041673  0.000223  -0.087996  -0.074688  -0.000195  4.007173  0.0
C  C199  1  0.90633267  0.35039024  0.67123214  1  0.471918  -0.000531  0.082197  0.26069  -0.000609  4.071848  0.0
C  C200  1  0.89577437  0.41590062  0.69808116  1  -0.080258  0.000715  -0.1141  -0.233646  0.000369  4.036321  0.0
C  C201  1  0.39950369  0.20800363  0.61261477  1  -0.003569  0.000852  -0.112022  -0.228435  0.000456  4.015129  0.001
C  C202  1  0.20434840  0.49230959  0.59284584  1  1.551938  -7e-06  0.19084  0.550689  -0.000501  4.262061  0.0
C  C203  1  0.31899575  0.11346987  0.67898033  1  0.014893  0.000333  -0.106194  -0.206279  0.000141  4.002348  0.0
C  C204  1  0.24342242  0.09466026  0.63776337  1  -0.02803  -0.000508  -0.09147  -0.080266  -0.000637  4.026277  0.0
C  C205  1  0.10685440  0.37735936  0.59429641  1  -0.035007  -0.000254  -0.089528  -0.07337  -0.000382  4.008369  0.0
C  C206  1  0.15995171  0.11273174  0.53911262  1  1.56009  -0.000732  0.19138  0.548654  -0.001276  4.263783  -0.001
C  C207  1  0.01309859  0.33088253  0.61956182  1  -0.047056  0.000317  -0.107396  -0.206738  0.00014  4.009233  0.0
C  C208  1  0.51663461  0.55803648  0.87668752  1  0.599333  -0.000311  0.026509  0.063572  -0.000897  3.947132  -0.002
C  C209  1  0.42295827  0.44491049  0.89553856  1  0.646669  -0.000368  0.021682  0.050312  -0.001027  3.931314  -0.002
C  C210  1  0.62017256  0.61946338  0.94575162  1  0.311547  0.000598  -0.068939  -0.043328  -6.4e-05  3.926663  -0.001
C  C211  1  0.39238198  0.37187682  0.98893565  1  0.237056  0.000441  -0.072227  -0.05699  -0.000346  3.9004  -0.001
C  C212  1  0.24486464  0.55797167  0.87155064  1  0.18845  2.7e-05  -0.146115  -0.261023  -3.6e-05  3.963663  0.0
C  C213  1  0.70288095  0.00671393  0.89045429  1  0.260828  0.000414  -0.072191  -0.053585  -0.000384  3.892681  -0.001
C  C214  1  0.56418902  0.13011879  0.92914509  1  0.576808  -0.000429  0.021428  0.045074  -0.001135  3.937166  -0.002
C  C215  1  0.25643998  0.07267422  0.08829962  1  0.290289  0.000436  -0.065533  -0.037512  -0.000226  3.911437  -0.001
C  C216  1  0.36846065  0.15964266  0.01844645  1  0.652696  -0.000451  0.026516  0.061261  -0.001028  3.942363  -0.002
C  C217  1  0.62567790  0.18785467  0.00940485  1  0.249267  5.5e-05  -0.145811  -0.259637  -1.3e-05  3.940354  0.0
C  C218  1  0.24947730  0.81716422  0.24008862  1  0.411003  5e-05  -0.061548  -0.027054  2.2e-05  3.855645  0.0
C  C219  1  0.83871586  0.94346162  0.12004095  1  0.004563  0.006712  -0.037363  -0.068512  0.004032  4.00891  0.005
C  C220  1  0.50720028  0.74053427  0.19620502  1  0.400342  0.000132  -0.062431  -0.025648  9.4e-05  3.867025  0.0
C  C221  1  0.76581425  0.66985648  0.16633038  1  0.403389  -0.000462  0.083939  0.263794  -0.0006  4.059583  0.0
C  C222  1  0.91844215  0.68874918  0.07232108  1  -0.110074  0.00018  -0.08671  -0.071893  -0.000227  4.016865  0.0
C  C223  1  0.04157732  0.63201634  0.08390838  1  -0.030722  0.006818  -0.039397  -0.074931  0.004114  4.020769  0.005
C  C224  1  0.87408087  0.96166053  0.17208524  1  -0.102603  0.000245  -0.087542  -0.074399  -0.00019  4.006687  0.0
C  C225  1  0.07273690  0.85024224  0.17110976  1  0.424056  -0.000526  0.081989  0.260504  -0.000601  4.066725  0.0
C  C226  1  0.99099206  0.91574557  0.19798326  1  -0.094419  0.000714  -0.115594  -0.235759  0.00037  4.033645  0.0
C  C227  1  0.78041581  0.70793603  0.11277862  1  -0.010915  0.00085  -0.114548  -0.231385  0.000455  4.015768  0.001
C  C228  1  0.71078185  0.99222805  0.09285680  1  1.561807  -4.5e-05  0.19035  0.5502  -0.000493  4.260319  0.0
C  C229  1  0.88915410  0.61338766  0.17913739  1  0.026897  0.000336  -0.107105  -0.207771  0.000141  4.002003  0.0
C  C230  1  0.02471712  0.59458732  0.13791854  1  -0.052708  -0.000507  -0.091891  -0.082566  -0.000637  4.026545  0.0
C  C231  1  0.92204932  0.87732091  0.09419482  1  0.019105  -0.000253  -0.090635  -0.076547  -0.000379  4.014274  0.0
C  C232  1  0.18844024  0.61258170  0.03915441  1  1.555433  -0.000769  0.19129  0.547863  -0.00132  4.261343  -0.001
C  C233  1  0.03707377  0.83079126  0.11943794  1  -0.035745  0.000316  -0.107599  -0.204994  0.00014  4.011474  0.0
C  C234  1  0.95101180  0.94197981  0.62325823  1  0.636313  -0.000327  0.026377  0.061753  -0.000909  3.946985  -0.002
C  C235  1  0.76268484  0.05498656  0.60429835  1  0.656117  -0.000387  0.020999  0.049175  -0.001024  3.92975  -0.002
C  C236  1  0.18542593  0.88057755  0.55435268  1  0.2838  0.000584  -0.069179  -0.04413  -6.1e-05  3.928791  -0.001
C  C237  1  0.75277124  0.12801226  0.51093105  1  0.297995  0.000387  -0.071635  -0.05568  -0.000343  3.901872  -0.001
C  C238  1  0.67416285  0.94185066  0.62835438  1  0.207891  2.7e-05  -0.145376  -0.258645  -3.6e-05  3.966017  0.0
C  C239  1  0.59993559  0.49318850  0.60958520  1  0.257532  0.000365  -0.071313  -0.053733  -0.000385  3.894737  -0.001
C  C240  1  0.62350707  0.36980355  0.57088089  1  0.556015  -0.000396  0.021489  0.0448  -0.001122  3.937202  -0.002
C  C241  1  0.41764914  0.42740078  0.41162285  1  0.297246  0.000441  -0.065837  -0.037108  -0.000224  3.911292  -0.001
C  C242  1  0.54653343  0.34036660  0.48153216  1  0.650488  -0.000447  0.02531  0.059323  -0.001021  3.941169  -0.002
C  C243  1  0.82298174  0.31207433  0.49065426  1  0.293411  5.6e-05  -0.145616  -0.258046  -1.3e-05  3.940479  0.0
C  C244  1  0.30651445  0.68262530  0.25984954  1  0.415284  5.1e-05  -0.060863  -0.026656  2.3e-05  3.855194  0.0
C  C245  1  0.90175062  0.55650690  0.37988356  1  -0.007612  0.006691  -0.038639  -0.070597  0.004029  4.010047  0.005
C  C246  1  0.44392678  0.75912977  0.30385681  1  0.408846  0.000133  -0.062531  -0.025383  9.5e-05  3.869464  0.0
C  C247  1  0.60135332  0.83006462  0.33383570  1  0.381999  -0.000462  0.081649  0.260466  -0.000602  4.0605  0.0
C  C248  1  0.67891608  0.81118928  0.42784296  1  -0.091985  0.000163  -0.087497  -0.07343  -0.00023  4.017272  0.0
C  C249  1  0.75692057  0.86791370  0.41624827  1  -0.044196  0.006859  -0.04064  -0.078168  0.004116  4.022524  0.005
C  C250  1  0.00730344  0.53822625  0.32784157  1  -0.04214  0.000223  -0.088048  -0.074904  -0.000196  4.007338  0.0
C  C251  1  0.09366098  0.64961328  0.32876750  1  0.471827  -0.000531  0.082067  0.260548  -0.000609  4.071914  0.0
C  C252  1  0.10422101  0.58410399  0.30191831  1  -0.080093  0.000715  -0.114033  -0.233538  0.000369  4.036267  0.0
C  C253  1  0.60050308  0.79199389  0.38738684  1  -0.004692  0.000853  -0.111908  -0.228333  0.000456  4.014962  0.001
C  C254  1  0.79564837  0.50769447  0.40715441  1  1.552274  -7e-06  0.190769  0.550549  -0.000502  4.261994  0.0
C  C255  1  0.68101105  0.88652984  0.32102373  1  0.014951  0.000333  -0.106202  -0.206227  0.000141  4.002485  0.0
C  C256  1  0.75658402  0.90533781  0.36224165  1  -0.028116  -0.000508  -0.091406  -0.080319  -0.000636  4.026466  0.0
C  C257  1  0.89314773  0.62264307  0.40570312  1  -0.034879  -0.000254  -0.089486  -0.073313  -0.000382  4.00858  0.0
C  C258  1  0.84006762  0.88725870  0.46088893  1  1.559256  -0.00073  0.191441  0.548968  -0.001275  4.263757  -0.001
C  C259  1  0.98690178  0.66911880  0.38043876  1  -0.047075  0.000317  -0.107305  -0.206563  0.00014  4.009278  0.0
C  C260  1  0.62241836  0.25015486  0.74999488  1  0.049777  3.4e-05  -0.019358  0.048423  6e-06  3.819977  0.0
C  C261  1  0.37758057  0.74984484  0.25000461  1  0.050091  3.4e-05  -0.01935  0.048426  6e-06  3.820052  0.0
N  N262  1  0.50088708  0.41692249  0.06330186  1  -1.090978  0.077994  -0.498571  -0.348769  0.045207  3.518655  0.068
N  N263  1  0.62505914  0.55530610  0.03977555  1  -1.053298  0.07566  -0.490102  -0.327057  0.043874  3.506175  0.066
N  N264  1  0.59394999  0.48337738  0.13103302  1  -1.067031  0.001121  -0.350155  -0.142515  0.000127  3.600555  0.001
N  N265  1  0.60331960  0.90998245  0.94813611  1  -1.085748  0.077582  -0.498528  -0.351877  0.044849  3.520675  0.067
N  N266  1  0.35627441  0.94633251  0.05838279  1  -1.042929  0.075422  -0.491696  -0.329443  0.043941  3.512424  0.066
N  N267  1  0.49471820  0.82585409  0.01988890  1  -1.073806  0.00111  -0.348413  -0.145577  0.000141  3.595441  0.001
N  N268  1  0.98113526  0.08305941  0.43673429  1  -1.080848  0.077967  -0.499017  -0.350323  0.045173  3.519404  0.068
N  N269  1  0.22049366  0.94480728  0.46039091  1  -1.070175  0.075634  -0.490991  -0.327668  0.043981  3.504905  0.066
N  N270  1  0.20879001  0.01669394  0.36910638  1  -1.083095  0.001114  -0.350797  -0.143225  0.000126  3.605106  0.001
N  N271  1  0.46135839  0.58998812  0.55185999  1  -1.084291  0.077509  -0.498497  -0.351023  0.04485  3.518989  0.067
N  N272  1  0.36096518  0.55375349  0.44157836  1  -1.03355  0.075435  -0.491  -0.327872  0.043912  3.512568  0.066
N  N273  1  0.34046985  0.67418303  0.48010045  1  -1.075536  0.001115  -0.348568  -0.146145  0.00014  3.595138  0.001
N  N274  1  0.49911017  0.58307831  0.93669812  1  -1.09098  0.077995  -0.498594  -0.348864  0.045207  3.518695  0.068
N  N275  1  0.37493721  0.44469415  0.96022579  1  -1.053303  0.075658  -0.490142  -0.327122  0.043871  3.506129  0.066
N  N276  1  0.40605005  0.51662232  0.86896767  1  -1.067071  0.001121  -0.350125  -0.142462  0.000127  3.600641  0.001
N  N277  1  0.39668274  0.09001725  0.05186271  1  -1.085749  0.077586  -0.498546  -0.351993  0.044852  3.520534  0.067
N  N278  1  0.64372137  0.05366665  0.94161695  1  -1.042952  0.075424  -0.491699  -0.329481  0.043943  3.512319  0.066
N  N279  1  0.50527908  0.17414670  0.98010936  1  -1.073838  0.00111  -0.348415  -0.145621  0.000141  3.595314  0.001
N  N280  1  0.01886708  0.91693321  0.56326833  1  -1.080829  0.077966  -0.498971  -0.350359  0.045173  3.519631  0.068
N  N281  1  0.77951321  0.05518315  0.53960895  1  -1.070362  0.075638  -0.491026  -0.327482  0.04398  3.504645  0.066
N  N282  1  0.79121407  0.98329977  0.63089606  1  -1.083843  0.001114  -0.350732  -0.14307  0.000125  3.604702  0.001
N  N283  1  0.53864009  0.41001485  0.44813850  1  -1.084275  0.077501  -0.498529  -0.350859  0.044845  3.518811  0.067
N  N284  1  0.63903216  0.44624949  0.55842021  1  -1.033868  0.075437  -0.490981  -0.327862  0.043913  3.512508  0.066
N  N285  1  0.65953004  0.32581939  0.51989753  1  -1.075412  0.001115  -0.348532  -0.146088  0.00014  3.595095  0.001
O  O286  1  0.80791310  0.19868480  0.80944171  1  -1.094582  8.5e-05  -0.179897  -0.205961  -5.2e-05  2.609773  0.0
O  O287  1  0.31282772  0.03200941  0.95405550  1  -1.17748  0.067747  -0.331419  -0.577653  0.038331  2.367416  0.063
O  O288  1  0.36392131  0.94898392  0.88273161  1  -1.190174  -0.000438  -0.346301  -0.56968  -0.001357  2.11875  0.0
O  O289  1  0.71529289  0.44712747  0.95036576  1  -1.176119  0.068538  -0.328063  -0.572384  0.038815  2.377364  0.064
O  O290  1  0.79334009  0.34492548  0.00448081  1  -1.197982  -0.001243  -0.339855  -0.565879  -0.0021  2.139377  -0.001
O  O291  1  0.36620219  0.31723408  0.79183282  1  -1.092413  -4.3e-05  -0.181078  -0.200451  -0.000161  2.55494  0.0
O  O292  1  0.81646669  0.30148361  0.69069973  1  -1.100893  8.2e-05  -0.18126  -0.20699  -5.5e-05  2.611345  0.0
O  O293  1  0.29918538  0.46801261  0.54596715  1  -1.177121  0.067682  -0.331829  -0.577712  0.038363  2.369621  0.063
O  O294  1  0.19558119  0.55121750  0.61714933  1  -1.191531  -0.000446  -0.345843  -0.569243  -0.001363  2.119685  0.0
O  O295  1  0.11239293  0.05317576  0.54972372  1  -1.171704  0.068421  -0.328043  -0.572314  0.038815  2.375974  0.064
O  O296  1  0.14292646  0.15517297  0.49543688  1  -1.197591  -0.001225  -0.339714  -0.565865  -0.00208  2.140352  -0.001
O  O297  1  0.47574469  0.18294570  0.70803032  1  -1.076022  -4.8e-05  -0.180346  -0.199516  -0.000165  2.557275  0.0
O  O298  1  0.19208217  0.80131763  0.19056002  1  -1.094497  8.5e-05  -0.179901  -0.205954  -5.2e-05  2.609822  0.0
O  O299  1  0.68715987  0.96799029  0.04594265  1  -1.177563  0.067752  -0.331428  -0.577726  0.038333  2.367362  0.063
O  O300  1  0.63611583  0.05103102  0.11725452  1  -1.190236  -0.000438  -0.346296  -0.569701  -0.001357  2.118931  0.0
O  O301  1  0.28470769  0.55288041  0.04963445  1  -1.176088  0.068537  -0.328008  -0.572335  0.038813  2.377385  0.064
O  O302  1  0.20665250  0.65508022  0.99551751  1  -1.198177  -0.001243  -0.339856  -0.565949  -0.0021  2.139258  -0.001
O  O303  1  0.63379485  0.68276944  0.20816744  1  -1.092414  -4.3e-05  -0.181063  -0.200408  -0.000161  2.554941  0.0
O  O304  1  0.18353457  0.69851828  0.30930032  1  -1.10097  8.2e-05  -0.181278  -0.207067  -5.4e-05  2.611332  0.0
O  O305  1  0.70081277  0.53199092  0.45403474  1  -1.177366  0.067689  -0.33185  -0.577703  0.038367  2.369464  0.063
O  O306  1  0.80441618  0.44878765  0.38285082  1  -1.191579  -0.000446  -0.345747  -0.569152  -0.001363  2.119752  0.0
O  O307  1  0.88761681  0.94681795  0.45028003  1  -1.17151  0.068427  -0.328056  -0.572446  0.038819  2.376106  0.064
O  O308  1  0.85710679  0.84481473  0.50456041  1  -1.197106  -0.001225  -0.339669  -0.565907  -0.002081  2.140342  -0.001
O  O309  1  0.52426058  0.81705727  0.29196940  1  -1.075873  -4.8e-05  -0.1803  -0.199451  -0.000165  2.556969  0.0
