# generated using pymatgen
data_ZnH14C15(N3O2)2
_symmetry_space_group_name_H-M   'P 1'
_cell_length_a   10.48785336
_cell_length_b   10.74046756
_cell_length_c   11.51272964
_cell_angle_alpha   68.48039312
_cell_angle_beta   65.66537915
_cell_angle_gamma   61.87177830
_symmetry_Int_Tables_number   1
_chemical_formula_structural   ZnH14C15(N3O2)2
_chemical_formula_sum   'Zn2 H28 C30 N12 O8'
_cell_volume   1017.75962877
_cell_formula_units_Z   2
loop_
 _symmetry_equiv_pos_site_id
 _symmetry_equiv_pos_as_xyz
  1  'x, y, z'
loop_
 _atom_site_type_symbol
 _atom_site_label
 _atom_site_symmetry_multiplicity
 _atom_site_fract_x
 _atom_site_fract_y
 _atom_site_fract_z
 _atom_site_occupancy
 _atom_site_hle17_bader_spin_density
 _atom_site_hle17_ddec_charge
 _atom_site_hle17_ddec_spin_density
 _atom_site_hle17_ddec_sum_bond_order
 _atom_site_hle17_magmom
 _atom_site_hse06_10hf_bader_spin_density
 _atom_site_hse06_10hf_ddec_charge
 _atom_site_hse06_10hf_ddec_spin_density
 _atom_site_hse06_10hf_ddec_sum_bond_order
 _atom_site_hse06_10hf_magmom
 _atom_site_hse06_bader_spin_density
 _atom_site_hse06_ddec_charge
 _atom_site_hse06_ddec_spin_density
 _atom_site_hse06_ddec_sum_bond_order
 _atom_site_hse06_magmom
 _atom_site_pbe_bader_spin_density
 _atom_site_pbe_cm5_charge
 _atom_site_pbe_ddec_charge
 _atom_site_pbe_ddec_spin_density
 _atom_site_pbe_ddec_sum_bond_order
 _atom_site_pbe_magmom
Zn  Zn0  1  0.93999467  0.21487344  0.85181230  1  0  1.012654  0  1.885507  0  0  0.826949  0  2.364099  0  0  0.872928  0  2.309429  0  0  0.692956  0.794694  0  2.401802  0
Zn  Zn1  1  0.06000586  0.78512456  0.14818752  1  0  1.012655  0  1.885491  0  0  0.826946  0  2.364074  0  0  0.872929  0  2.309397  0  0  0.692979  0.794691  0  2.40177  0
H  H2  1  0.92845086  0.14996632  0.37141526  1  0  0.090398  0  0.904783  0  0  0.112838  0  0.957519  0  0  0.112691  0  0.957095  0  0  0.126209  0.112663  0  0.957364  0
H  H3  1  0.07154859  0.85003709  0.62858312  1  0  0.090374  0  0.904759  0  0  0.112809  0  0.957511  0  0  0.112663  0  0.957087  0  0  0.126193  0.112634  0  0.957356  0
H  H4  1  0.94838598  0.31652002  0.33579813  1  0  0.087881  0  0.898527  0  0  0.105699  0  0.95496  0  0  0.106305  0  0.953578  0  0  0.121436  0.105118  0  0.955264  0
H  H5  1  0.05161685  0.68348013  0.66420010  1  0  0.087852  0  0.898556  0  0  0.105683  0  0.954976  0  0  0.106293  0  0.953593  0  0  0.121438  0.105102  0  0.95528  0
H  H6  1  0.13006639  0.11672412  0.44880486  1  0  0.094544  0  0.924959  0  0  0.111639  0  0.985161  0  0  0.112275  0  0.985867  0  0  0.10357  0.110895  0  0.985064  0
H  H7  1  0.86993267  0.88327496  0.55119514  1  0  0.094526  0  0.924989  0  0  0.111625  0  0.985186  0  0  0.112262  0  0.985889  0  0  0.103559  0.11088  0  0.98509  0
H  H8  1  0.20325576  0.01454016  0.32828162  1  0  0.103798  0  0.946813  0  0  0.119355  0  1.008566  0  0  0.12054  0  1.008925  0  0  0.101979  0.1184  0  1.008318  0
H  H9  1  0.79674183  0.98546001  0.67171857  1  0  0.10381  0  0.946807  0  0  0.119362  0  1.008561  0  0  0.120549  0  1.008919  0  0  0.101984  0.118407  0  1.008313  0
H  H10  1  0.37543834  0.12563515  0.30245776  1  0  0.088675  0  0.929798  0  0  0.10351  0  0.994145  0  0  0.102299  0  0.997376  0  0  0.115416  0.104184  0  0.992254  0
H  H11  1  0.62456219  0.87436285  0.69754467  1  0  0.088713  0  0.929796  0  0  0.103522  0  0.994179  0  0  0.102311  0  0.997408  0  0  0.115422  0.104197  0  0.992286  0
H  H12  1  0.31188856  0.19155309  0.16239147  1  0  0.082962  0  0.949535  0  0  0.094002  0  1.019698  0  0  0.093958  0  1.021297  0  0  0.114564  0.093979  0  1.018636  0
H  H13  1  0.68811302  0.80844490  0.83760970  1  0  0.082959  0  0.949527  0  0  0.094002  0  1.019693  0  0  0.093962  0  1.021287  0  0  0.114555  0.093977  0  1.018636  0
H  H14  1  0.11343677  0.37469462  0.87668230  1  0  0.111474  0  0.927708  0  0  0.120546  0  0.986223  0  0  0.123102  0  0.983291  0  0  0.140132  0.118534  0  0.988468  0
H  H15  1  0.88656733  0.62530230  0.12331656  1  0  0.111476  0  0.927701  0  0  0.120547  0  0.986219  0  0  0.123102  0  0.983291  0  0  0.140133  0.118535  0  0.988465  0
H  H16  1  0.90831057  0.09969098  0.17892890  1  0  0.128402  0  0.956306  0  0  0.134075  0  1.02479  0  0  0.137815  0  1.019085  0  0  0.145199  0.131046  0  1.028686  0
H  H17  1  0.09169016  0.90030918  0.82107184  1  0  0.128422  0  0.956361  0  0  0.134099  0  1.024831  0  0  0.137837  0  1.01913  0  0  0.145212  0.131071  0  1.028731  0
H  H18  1  0.09219899  0.58282728  0.43178356  1  0  0.102319  0  0.921746  0  0  0.111486  0  0.980616  0  0  0.113737  0  0.978327  0  0  0.142159  0.109783  0  0.982386  0
H  H19  1  0.90779859  0.41717289  0.56821663  1  0  0.102307  0  0.921754  0  0  0.111477  0  0.980623  0  0  0.113726  0  0.978335  0  0  0.142154  0.109772  0  0.982393  0
H  H20  1  0.23636847  0.45764150  0.07842208  1  0  0.114689  0  0.919967  0  0  0.124119  0  0.980069  0  0  0.127219  0  0.976275  0  0  0.148253  0.121811  0  0.982832  0
H  H21  1  0.76363730  0.54235648  0.92157752  1  0  0.114639  0  0.919995  0  0  0.124063  0  0.980113  0  0  0.127164  0  0.976319  0  0  0.14824  0.121757  0  0.982874  0
H  H22  1  0.46238300  0.23005877  0.53784308  1  0  0.105104  0  0.937372  0  0  0.115472  0  0.993631  0  0  0.119558  0  0.990752  0  0  0.106012  0.112568  0  0.995745  0
H  H23  1  0.53761835  0.76994247  0.46215620  1  0  0.105128  0  0.93734  0  0  0.115487  0  0.993608  0  0  0.119573  0  0.99073  0  0  0.106018  0.112584  0  0.995721  0
H  H24  1  0.29648166  0.90254255  0.61614702  1  0  0.08626  0  0.963576  0  0  0.095046  0  1.027987  0  0  0.098433  0  1.0258  0  0  0.097051  0.092512  0  1.029843  0
H  H25  1  0.70352074  0.09745869  0.38385187  1  0  0.086293  0  0.963511  0  0  0.095088  0  1.027915  0  0  0.098474  0  1.02573  0  0  0.097088  0.092553  0  1.029771  0
H  H26  1  0.68256756  0.94740036  0.11282901  1  0  0.103044  0  0.970167  0  0  0.111061  0  1.03508  0  0  0.113772  0  1.034203  0  0  0.100168  0.109007  0  1.036064  0
H  H27  1  0.31743003  0.05259981  0.88717031  1  0  0.103022  0  0.970217  0  0  0.111042  0  1.035125  0  0  0.113761  0  1.03424  0  0  0.100146  0.108987  0  1.036109  0
H  H28  1  0.50941423  0.16747833  0.78205343  1  0  0.101909  0  0.944435  0  0  0.111424  0  1.004034  0  0  0.115313  0  1.001389  0  0  0.103021  0.108481  0  1.006276  0
H  H29  1  0.49058231  0.83252184  0.21794715  1  0  0.101863  0  0.944488  0  0  0.111437  0  1.004021  0  0  0.115325  0  1.001376  0  0  0.103034  0.108491  0  1.006269  0
C  C30  1  0.00414256  0.20885416  0.31269118  1  0  0.002127  0  3.611885  0  0  -0.076991  0  3.878731  0  0  -0.06259  0  3.89154  0  0  -0.037391  -0.07987  0  3.871287  0
C  C31  1  0.99585921  0.79114600  0.68730831  1  0  0.002209  0  3.611825  0  0  -0.076902  0  3.878697  0  0  -0.062518  0  3.891505  0  0  -0.037359  -0.079784  0  3.871257  0
C  C32  1  0.15520165  0.12491007  0.34416507  1  0  -0.156435  0  3.650245  0  0  -0.201843  0  3.923483  0  0  -0.204237  0  3.93457  0  0  -0.158424  -0.199694  0  3.914121  0
C  C33  1  0.84479846  0.87508901  0.65583454  1  0  -0.156464  0  3.650236  0  0  -0.201858  0  3.923468  0  0  -0.20425  0  3.934552  0  0  -0.158415  -0.19971  0  3.914105  0
C  C34  1  0.27590696  0.19021115  0.26649302  1  0  -0.011726  0  3.62195  0  0  -0.090145  0  3.887036  0  0  -0.086014  0  3.898855  0  0  -0.047386  -0.092596  0  3.878863  0
C  C35  1  0.72409315  0.80978793  0.73350833  1  0  -0.011702  0  3.621998  0  0  -0.090134  0  3.887082  0  0  -0.085998  0  3.898892  0  0  -0.047382  -0.092587  0  3.878913  0
C  C36  1  0.06880256  0.31800128  0.97352562  1  0  0.201349  0  3.726883  0  0  0.143987  0  4.023261  0  0  0.155978  0  4.033476  0  0  0.14933  0.136793  0  4.013589  0
C  C37  1  0.93120006  0.68199672  0.02647342  1  0  0.201417  0  3.726848  0  0  0.144066  0  4.023218  0  0  0.156055  0  4.033437  0  0  0.14936  0.13687  0  4.01355  0
C  C38  1  0.96342084  0.17704221  0.12414476  1  0  0.183526  0  3.588828  0  0  0.106588  0  3.846647  0  0  0.131277  0  3.860975  0  0  0.172502  0.097155  0  3.839222  0
C  C39  1  0.03658241  0.82295686  0.87585367  1  0  0.183428  0  3.58885  0  0  0.106519  0  3.846677  0  0  0.131197  0  3.861005  0  0  0.172429  0.097083  0  3.839257  0
C  C40  1  0.13729841  0.51700646  0.36122601  1  0  0.219004  0  3.685548  0  0  0.16526  0  3.972686  0  0  0.176859  0  3.985277  0  0  0.157052  0.157762  0  3.963938  0
C  C41  1  0.86270274  0.48299262  0.63877408  1  0  0.219055  0  3.685506  0  0  0.165301  0  3.972658  0  0  0.176904  0  3.985241  0  0  0.157062  0.157806  0  3.963907  0
C  C42  1  0.21022578  0.45818387  0.17955147  1  0  0.168341  0  3.660221  0  0  0.088473  0  3.924136  0  0  0.103249  0  3.934789  0  0  0.166519  0.079252  0  3.916657  0
C  C43  1  0.78977893  0.54181412  0.82044852  1  0  0.168503  0  3.660196  0  0  0.088609  0  3.924123  0  0  0.103389  0  3.934772  0  0  0.166542  0.079388  0  3.916643  0
C  C44  1  0.36546173  0.07417641  0.58627533  1  0  -0.053186  0  3.749378  0  0  -0.03273  0  3.985975  0  0  -0.038746  0  4.00778  0  0  -0.015526  -0.028494  0  3.971283  0
C  C45  1  0.63453857  0.92582484  0.41372434  1  0  -0.053168  0  3.749387  0  0  -0.032758  0  3.986057  0  0  -0.038771  0  4.007854  0  0  -0.015513  -0.028523  0  3.971364  0
C  C46  1  0.48054030  0.12895878  0.52058375  1  0  -0.07609  0  3.740126  0  0  -0.099431  0  3.989766  0  0  -0.10009  0  4.00901  0  0  -0.085231  -0.098841  0  3.976684  0
C  C47  1  0.51946167  0.87104354  0.47941319  1  0  -0.076123  0  3.740158  0  0  -0.099451  0  3.989824  0  0  -0.10011  0  4.009067  0  0  -0.085215  -0.09886  0  3.976743  0
C  C48  1  0.38638753  0.94444229  0.56496004  1  0  -0.082173  0  3.753597  0  0  -0.102768  0  4.002125  0  0  -0.103516  0  4.022091  0  0  -0.088455  -0.102322  0  3.988625  0
C  C49  1  0.61361382  0.05555895  0.43503750  1  0  -0.082224  0  3.753524  0  0  -0.102818  0  4.002092  0  0  -0.103567  0  4.022057  0  0  -0.088478  -0.10237  0  3.98859  0
C  C50  1  0.22251431  0.15616290  0.67706681  1  0  0.632809  0  3.928012  0  0  0.581463  0  4.230185  0  0  0.615379  0  4.222213  0  0  0.197881  0.558307  0  4.235201  0
C  C51  1  0.77748707  0.84383294  0.32293778  1  0  0.632837  0  3.927997  0  0  0.581501  0  4.23017  0  0  0.61542  0  4.222194  0  0  0.19781  0.558347  0  4.235186  0
C  C52  1  0.60773392  0.06387147  0.94131031  1  0  -0.062703  0  3.75895  0  0  -0.039375  0  3.988928  0  0  -0.045428  0  4.010692  0  0  -0.022873  -0.035528  0  3.974293  0
C  C53  1  0.39226220  0.93612978  0.05869180  1  0  -0.06256  0  3.758809  0  0  -0.039254  0  3.988812  0  0  -0.045307  0  4.010578  0  0  -0.02283  -0.035411  0  3.974183  0
C  C54  1  0.60214199  0.96965444  0.06425581  1  0  -0.083415  0  3.740321  0  0  -0.107098  0  3.991511  0  0  -0.107619  0  4.012169  0  0  -0.093498  -0.106832  0  3.977904  0
C  C55  1  0.39785222  0.03034897  0.93574627  1  0  -0.0834  0  3.74022  0  0  -0.107067  0  3.991382  0  0  -0.107597  0  4.012037  0  0  -0.093451  -0.1068  0  3.977776  0
C  C56  1  0.50436948  0.09425621  0.87760191  1  0  -0.084645  0  3.74902  0  0  -0.104311  0  3.99591  0  0  -0.105586  0  4.01586  0  0  -0.088261  -0.103177  0  3.982608  0
C  C57  1  0.49562663  0.90574504  0.12239759  1  0  -0.084607  0  3.749104  0  0  -0.104313  0  3.995981  0  0  -0.105587  0  4.015926  0  0  -0.088281  -0.103177  0  3.982678  0
C  C58  1  0.72697440  0.12743543  0.87616543  1  0  0.624283  0  3.946935  0  0  0.577787  0  4.24015  0  0  0.610934  0  4.233745  0  0  0.188681  0.555448  0  4.243612  0
C  C59  1  0.27302360  0.87256366  0.12383410  1  0  0.624171  0  3.946957  0  0  0.577687  0  4.240159  0  0  0.610833  0  4.233756  0  0  0.188631  0.555349  0  4.243621  0
N  N60  1  0.01547144  0.23067503  0.17629141  1  0  0.041376  0  3.540537  0  0  0.161367  0  3.734218  0  0  0.121021  0  3.795577  0  0  -0.13082  0.168381  0  3.717339  0
N  N61  1  0.98452781  0.76932621  0.82370778  1  0  0.041413  0  3.540513  0  0  0.161334  0  3.734288  0  0  0.121021  0  3.795614  0  0  -0.130839  0.168359  0  3.717388  0
N  N62  1  0.08222682  0.32148349  0.08143271  1  0  -0.29203  0  2.895812  0  0  -0.289218  0  3.170187  0  0  -0.289579  0  3.191281  0  0  -0.224163  -0.282552  0  3.159371  0
N  N63  1  0.91777496  0.67851667  0.91856678  1  0  -0.292111  0  2.895904  0  0  -0.289277  0  3.170295  0  0  -0.289647  0  3.191381  0  0  -0.22417  -0.282612  0  3.15948  0
N  N64  1  0.99546866  0.23137124  0.99519851  1  0  -0.405085  0  3.245658  0  0  -0.324786  0  3.55109  0  0  -0.346426  0  3.557357  0  0  -0.34524  -0.309955  0  3.543777  0
N  N65  1  0.00453017  0.76863108  0.00480047  1  0  -0.405041  0  3.245635  0  0  -0.324756  0  3.551076  0  0  -0.346397  0  3.557345  0  0  -0.345205  -0.309925  0  3.543762  0
N  N66  1  0.22415844  0.33929645  0.27580001  1  0  0.045049  0  3.562756  0  0  0.16514  0  3.752294  0  0  0.154635  0  3.776582  0  0  -0.131082  0.170697  0  3.738162  0
N  N67  1  0.77584209  0.66070155  0.72420242  1  0  0.044917  0  3.562897  0  0  0.165078  0  3.75236  0  0  0.154546  0  3.776692  0  0  -0.131105  0.170633  0  3.738228  0
N  N68  1  0.17753994  0.37475585  0.39279154  1  0  -0.259546  0  2.843992  0  0  -0.259225  0  3.110473  0  0  -0.268592  0  3.126264  0  0  -0.21245  -0.252593  0  3.100021  0
N  N69  1  0.82245911  0.62524323  0.60721020  1  0  -0.259527  0  2.844022  0  0  -0.259222  0  3.110495  0  0  -0.268582  0  3.126282  0  0  -0.212436  -0.25259  0  3.100042  0
N  N70  1  0.15485181  0.57328399  0.23071450  1  0  -0.407361  0  3.276923  0  0  -0.327999  0  3.583006  0  0  -0.349459  0  3.591829  0  0  -0.348621  -0.313588  0  3.576587  0
N  N71  1  0.84514977  0.42671401  0.76928580  1  0  -0.407432  0  3.276853  0  0  -0.328059  0  3.582939  0  0  -0.349519  0  3.591758  0  0  -0.348622  -0.313648  0  3.576521  0
O  O72  1  0.11789618  0.10160875  0.72960357  1  0  -0.662861  0  2.041023  0  0  -0.589268  0  2.317498  0  0  -0.617634  0  2.29997  0  0  -0.338381  -0.569437  0  2.329423  0
O  O73  1  0.88210393  0.89839033  0.27039604  1  0  -0.662888  0  2.041004  0  0  -0.58927  0  2.317436  0  0  -0.617641  0  2.299913  0  0  -0.338356  -0.569436  0  2.329356  0
O  O74  1  0.20940993  0.26771824  0.69913824  1  0  -0.613582  0  1.901517  0  0  -0.573379  0  2.123325  0  0  -0.595325  0  2.114398  0  0  -0.329317  -0.558053  0  2.129117  0
O  O75  1  0.79058890  0.73228408  0.30085900  1  0  -0.613609  0  1.901528  0  0  -0.57341  0  2.123331  0  0  -0.595356  0  2.114404  0  0  -0.329308  -0.558085  0  2.129123  0
O  O76  1  0.79052464  0.12500459  0.95376650  1  0  -0.661195  0  2.021639  0  0  -0.590497  0  2.289374  0  0  -0.6192  0  2.274704  0  0  -0.351519  -0.570554  0  2.298697  0
O  O77  1  0.20947441  0.87499450  0.04623264  1  0  -0.661137  0  2.021657  0  0  -0.590448  0  2.289396  0  0  -0.619152  0  2.274719  0  0  -0.351484  -0.570504  0  2.298713  0
O  O78  1  0.76199957  0.17536885  0.75524725  1  0  -0.619975  0  1.870081  0  0  -0.578256  0  2.078414  0  0  -0.599271  0  2.06912  0  0  -0.341496  -0.563418  0  2.084344  0
O  O79  1  0.23799907  0.82463132  0.24475167  1  0  -0.619963  0  1.870073  0  0  -0.57825  0  2.078407  0  0  -0.599264  0  2.069115  0  0  -0.341496  -0.563411  0  2.084336  0
