# generated using pymatgen
data_CdSiH28C20(N4F3)2
_symmetry_space_group_name_H-M   'P 1'
_cell_length_a   11.71931634
_cell_length_b   12.95805413
_cell_length_c   13.09077293
_cell_angle_alpha   75.79623569
_cell_angle_beta   63.41284435
_cell_angle_gamma   63.12830769
_symmetry_Int_Tables_number   1
_chemical_formula_structural   CdSiH28C20(N4F3)2
_chemical_formula_sum   'Cd2 Si2 H56 C40 N16 F12'
_cell_volume   1583.46844040
_cell_formula_units_Z   2
loop_
 _symmetry_equiv_pos_site_id
 _symmetry_equiv_pos_as_xyz
  1  'x, y, z'
loop_
 _atom_site_type_symbol
 _atom_site_label
 _atom_site_symmetry_multiplicity
 _atom_site_fract_x
 _atom_site_fract_y
 _atom_site_fract_z
 _atom_site_occupancy
 _atom_site_pbe_bader_charge
 _atom_site_pbe_bader_spin_density
 _atom_site_pbe_cm5_charge
 _atom_site_pbe_ddec_charge
 _atom_site_pbe_ddec_spin_density
 _atom_site_pbe_ddec_sum_bond_order
 _atom_site_pbe_magmom
Cd  Cd0  1  0.49999967  0.99999981  0.00000403  1  1.306585  0  0.831495  0.865886  0  2.24131  0
Cd  Cd1  1  0.50000232  0.49999952  0.49999831  1  1.306088  0  0.831307  0.864865  0  2.239962  0
Si  Si2  1  0.53071179  0.74997509  0.24997369  1  3.246978  0  0.271827  1.709634  0  3.949676  0
Si  Si3  1  0.46928849  0.25002307  0.75002567  1  3.24697  0  0.271804  1.709667  0  3.949541  0
H  H4  1  0.34751210  0.09133965  0.81767803  1  0.519489  0  0.318309  0.272557  0  0.986443  0
H  H5  1  0.39114342  0.49033542  0.77312818  1  0.556274  0  0.308962  0.277569  0  1.008108  0
H  H6  1  0.61116403  0.72727061  0.95229764  1  0.074856  0  0.093925  0.137874  0  1.023376  0
H  H7  1  0.55201502  0.64467016  0.91235924  1  0.040725  0  0.091509  0.127855  0  1.011787  0
H  H8  1  0.45010601  0.71882386  0.04248119  1  0.109048  0  0.099076  0.153951  0  0.995217  0
H  H9  1  0.21511356  0.08517021  0.69822190  1  0.061266  0  0.102582  0.145582  0  0.975111  0
H  H10  1  0.26638002  0.94558316  0.65375226  1  0.065393  0  0.101557  0.144499  0  0.996092  0
H  H11  1  0.38202600  0.01768116  0.59222334  1  0.054385  0  0.09762  0.135022  0  1.002521  0
H  H12  1  0.68400021  0.67223391  0.49501256  1  0.038694  0  0.094389  0.138185  0  0.995893  0
H  H13  1  0.60823406  0.79840863  0.57185745  1  0.046054  0  0.090946  0.127082  0  1.016875  0
H  H14  1  0.53268280  0.78831638  0.48486172  1  0.077229  0  0.093164  0.142291  0  1.029452  0
H  H15  1  0.21418979  0.59068521  0.96139027  1  0.050578  0  0.099452  0.140245  0  1.000745  0
H  H16  1  0.20702965  0.72650839  0.97798496  1  0.074209  0  0.101774  0.143977  0  0.980394  0
H  H17  1  0.33882777  0.59564864  0.99977129  1  0.038658  0  0.099657  0.139452  0  0.989006  0
H  H18  1  0.25617415  0.40879978  0.68236442  1  0.529489  0  0.318948  0.27299  0  0.985923  0
H  H19  1  0.65451391  0.00974755  0.72691933  1  0.554686  0  0.308401  0.277656  0  1.007339  0
H  H20  1  0.29079299  0.77279634  0.54746868  1  0.067644  0  0.094462  0.13858  0  1.021635  0
H  H21  1  0.10915269  0.85545777  0.58735881  1  0.023059  0  0.091254  0.126793  0  1.013162  0
H  H22  1  0.21148359  0.78115389  0.45731994  1  0.106886  0  0.09869  0.152834  0  0.996421  0
H  H23  1  0.99813481  0.41510400  0.80189424  1  0.057737  0  0.102078  0.144696  0  0.976671  0
H  H24  1  0.86549601  0.55471620  0.84627225  1  0.07924  0  0.101389  0.144624  0  0.994423  0
H  H25  1  0.99172020  0.48268982  0.90776013  1  0.054645  0  0.097894  0.135784  0  1.001325  0
H  H26  1  0.85113558  0.82778489  0.00507404  1  0.040763  0  0.094452  0.138576  0  0.996601  0
H  H27  1  0.97835071  0.70161398  0.92822704  1  0.053298  0  0.090401  0.125876  0  1.016688  0
H  H28  1  0.80568697  0.71177373  0.01507098  1  0.073911  0  0.093043  0.142331  0  1.029404  0
H  H29  1  0.76626721  0.90934942  0.53854330  1  0.064906  0  0.099116  0.13968  0  1.001209  0
H  H30  1  0.91147990  0.77353986  0.52204952  1  0.059869  0  0.101769  0.144194  0  0.978815  0
H  H31  1  0.93423360  0.90443417  0.50016201  1  0.058135  0  0.100436  0.140498  0  0.988035  0
H  H32  1  0.65248942  0.90866199  0.18232150  1  0.5195  0  0.31831  0.272523  0  0.986531  0
H  H33  1  0.60885892  0.50966448  0.22687145  1  0.556206  0  0.308953  0.27757  0  1.008113  0
H  H34  1  0.38883518  0.27273189  0.04770339  1  0.074861  0  0.093918  0.137864  0  1.023383  0
H  H35  1  0.44798664  0.35532714  0.08764130  1  0.040702  0  0.09152  0.12787  0  1.011788  0
H  H36  1  0.54989415  0.28117864  0.95751869  1  0.109089  0  0.099013  0.153822  0  0.995209  0
H  H37  1  0.78488918  0.91482882  0.30177626  1  0.061245  0  0.102571  0.145558  0  0.97509  0
H  H38  1  0.73362557  0.05441587  0.34624398  1  0.065372  0  0.101568  0.144514  0  0.996003  0
H  H39  1  0.61797865  0.98231788  0.40777557  1  0.054457  0  0.097625  0.135028  0  1.002546  0
H  H40  1  0.31599747  0.32776772  0.50498624  1  0.038702  0  0.094389  0.138174  0  0.995854  0
H  H41  1  0.39176143  0.20159560  0.42814084  1  0.045952  0  0.09092  0.127051  0  1.016919  0
H  H42  1  0.46731283  0.21168352  0.51513758  1  0.07727  0  0.093179  0.142306  0  1.029446  0
H  H43  1  0.78581038  0.40931729  0.03861113  1  0.050535  0  0.099452  0.140246  0  1.000724  0
H  H44  1  0.79297187  0.27349324  0.02201381  1  0.074203  0  0.101789  0.144017  0  0.980353  0
H  H45  1  0.66117184  0.40435299  0.00022902  1  0.038664  0  0.099667  0.139432  0  0.989032  0
H  H46  1  0.74382533  0.59120012  0.31763790  1  0.529443  0  0.31895  0.273036  0  0.985853  0
H  H47  1  0.34548419  0.99025322  0.27308029  1  0.554702  0  0.308411  0.277683  0  1.007198  0
H  H48  1  0.70920662  0.22720530  0.45253163  1  0.067582  0  0.094461  0.138585  0  1.021633  0
H  H49  1  0.89084773  0.14454213  0.41264008  1  0.023066  0  0.091256  0.126787  0  1.013157  0
H  H50  1  0.78851684  0.21884601  0.54268047  1  0.10687  0  0.098681  0.152819  0  0.996434  0
H  H51  1  0.00186836  0.58489416  0.19810777  1  0.057711  0  0.102075  0.144695  0  0.976718  0
H  H52  1  0.13450567  0.44528110  0.15373058  1  0.079213  0  0.101434  0.144674  0  0.994416  0
H  H53  1  0.00828120  0.51731008  0.09224217  1  0.054717  0  0.097902  0.135794  0  1.00127  0
H  H54  1  0.14886387  0.17221501  0.99492371  1  0.040741  0  0.094459  0.138585  0  0.996615  0
H  H55  1  0.02164888  0.29838766  0.07177023  1  0.053246  0  0.090397  0.125879  0  1.016742  0
H  H56  1  0.19431386  0.28822530  0.98492871  1  0.073916  0  0.093046  0.142358  0  1.029385  0
H  H57  1  0.23373564  0.09065135  0.46145285  1  0.064894  0  0.099108  0.139662  0  1.001236  0
H  H58  1  0.08852148  0.22646004  0.47794973  1  0.059889  0  0.101772  0.144202  0  0.978796  0
H  H59  1  0.06576955  0.09556399  0.49983696  1  0.058158  0  0.100449  0.140512  0  0.987993  0
C  C60  1  0.51920163  0.72401837  0.95230910  1  -0.084482  0  -0.238002  -0.434563  0  3.956522  0
C  C61  1  0.45102699  0.82658459  0.88740277  1  0.454881  0  0.100202  0.218908  0  4.002037  0
C  C62  1  0.41057750  0.82773776  0.79974199  1  0.013049  0  -0.036887  -0.143779  0  4.077692  0
C  C63  1  0.35801556  0.94440848  0.76291639  1  0.422846  0  0.103284  0.205647  0  3.98643  0
C  C64  1  0.30207376  0.00129671  0.67218195  1  -0.06539  0  -0.225476  -0.41832  0  3.970994  0
C  C65  1  0.58523357  0.73940639  0.54373906  1  -0.065216  0  -0.238985  -0.430204  0  3.96487  0
C  C66  1  0.49976753  0.68702954  0.64580571  1  0.447251  0  0.096099  0.212855  0  4.013837  0
C  C67  1  0.42306758  0.72713386  0.75817035  1  0.084779  0  -0.038705  -0.14806  0  4.083563  0
C  C68  1  0.36597799  0.64600163  0.82349770  1  0.382568  0  0.102231  0.203127  0  3.990084  0
C  C69  1  0.27677827  0.63917644  0.94703468  1  -0.03777  0  -0.225168  -0.417451  0  3.964414  0
C  C70  1  0.19556621  0.77607255  0.54749332  1  -0.079239  0  -0.237758  -0.432598  0  3.957858  0
C  C71  1  0.16495725  0.67355976  0.61247760  1  0.468443  0  0.100107  0.217431  0  4.003074  0
C  C72  1  0.03798362  0.67247879  0.70011784  1  0.099784  0  -0.036322  -0.142366  0  4.07722  0
C  C73  1  0.06510988  0.55580683  0.73698260  1  0.367306  0  0.10242  0.204507  0  3.984207  0
C  C74  1  0.97531586  0.49900752  0.82781938  1  -0.06979  0  -0.22563  -0.419017  0  3.96892  0
C  C75  1  0.86828392  0.76065863  0.95627551  1  -0.038861  0  -0.238825  -0.429519  0  3.963739  0
C  C76  1  0.83259151  0.81309923  0.85415178  1  0.42669  0  0.096225  0.212309  0  4.011227  0
C  C77  1  0.90838721  0.77307191  0.74174204  1  0.034002  0  -0.038248  -0.147559  0  4.083139  0
C  C78  1  0.83542563  0.85415771  0.67647621  1  0.420957  0  0.103313  0.205979  0  3.987872  0
C  C79  1  0.86296234  0.86091154  0.55292704  1  -0.0489  0  -0.226304  -0.419278  0  3.961811  0
C  C80  1  0.48079649  0.27598240  0.04769356  1  -0.084487  0  -0.237967  -0.434453  0  3.956503  0
C  C81  1  0.54897152  0.17341531  0.11259689  1  0.454852  0  0.100221  0.218904  0  4.002087  0
C  C82  1  0.58942292  0.17226214  0.20025765  1  0.013044  0  -0.03688  -0.143738  0  4.077689  0
C  C83  1  0.64198622  0.05559055  0.23708216  1  0.422811  0  0.103269  0.205552  0  3.986489  0
C  C84  1  0.69792857  0.99870319  0.32781616  1  -0.065332  0  -0.225473  -0.4183  0  3.970908  0
C  C85  1  0.41476358  0.26059438  0.45626094  1  -0.065166  0  -0.238991  -0.430188  0  3.964822  0
C  C86  1  0.50023332  0.31296949  0.35419551  1  0.446983  0  0.096112  0.212815  0  4.013764  0
C  C87  1  0.57693232  0.27286518  0.24183125  1  0.084841  0  -0.038746  -0.148115  0  4.083531  0
C  C88  1  0.63402203  0.35399914  0.17650266  1  0.382576  0  0.102303  0.203214  0  3.99  0
C  C89  1  0.72322176  0.36082433  0.05296645  1  -0.037697  0  -0.225189  -0.41747  0  3.964412  0
C  C90  1  0.80443286  0.22392821  0.45250819  1  -0.079378  0  -0.237781  -0.432622  0  3.957862  0
C  C91  1  0.83504140  0.32644188  0.38752158  1  0.468681  0  0.100134  0.21744  0  4.003032  0
C  C92  1  0.96201313  0.32752284  0.29988440  1  0.099839  0  -0.036341  -0.142368  0  4.077221  0
C  C93  1  0.93488824  0.44419393  0.26301929  1  0.367341  0  0.102387  0.204446  0  3.984228  0
C  C94  1  0.02468459  0.50099238  0.17218255  1  -0.069783  0  -0.225647  -0.419027  0  3.968893  0
C  C95  1  0.13171458  0.23934127  0.04372339  1  -0.038802  0  -0.238862  -0.429582  0  3.963784  0
C  C96  1  0.16740836  0.18689981  0.14584754  1  0.426671  0  0.096223  0.212271  0  4.011184  0
C  C97  1  0.09161226  0.22692800  0.25825799  1  0.033979  0  -0.038223  -0.147511  0  4.083032  0
C  C98  1  0.16457452  0.14583872  0.32352363  1  0.421035  0  0.103298  0.205901  0  3.988007  0
C  C99  1  0.13703944  0.13908749  0.44707150  1  -0.048905  0  -0.226286  -0.419235  0  3.96182  0
N  N100  1  0.42317331  0.93536878  0.90346147  1  -0.717143  0  -0.264229  -0.254884  0  3.409406  0
N  N101  1  0.36657103  0.00492949  0.82798493  1  -0.828295  0  -0.287555  -0.149997  0  3.726496  0
N  N102  1  0.48907666  0.58843548  0.64316511  1  -0.730204  0  -0.260908  -0.264483  0  3.376726  0
N  N103  1  0.40763310  0.56614159  0.75116624  1  -0.854067  0  -0.287012  -0.144104  0  3.718231  0
N  N104  1  0.26187469  0.56471524  0.59647215  1  -0.744199  0  -0.26209  -0.251237  0  3.406591  0
N  N105  1  0.19923811  0.49522192  0.67194789  1  -0.831146  0  -0.289174  -0.152357  0  3.729692  0
N  N106  1  0.72066365  0.91163733  0.85682381  1  -0.741653  0  -0.261069  -0.26456  0  3.375355  0
N  N107  1  0.72489595  0.93395855  0.74882230  1  -0.860031  0  -0.287417  -0.146539  0  3.717492  0
N  N108  1  0.57682465  0.06463025  0.09653862  1  -0.717224  0  -0.264225  -0.254883  0  3.409451  0
N  N109  1  0.63342938  0.99507041  0.17201319  1  -0.828307  0  -0.287533  -0.149854  0  3.726538  0
N  N110  1  0.51092325  0.41156355  0.35683802  1  -0.730027  0  -0.260818  -0.264289  0  3.376731  0
N  N111  1  0.59236545  0.43385831  0.24883722  1  -0.853947  0  -0.287097  -0.144255  0  3.718305  0
N  N112  1  0.73812126  0.43528813  0.40353152  1  -0.7442  0  -0.262098  -0.251181  0  3.406539  0
N  N113  1  0.80076152  0.50477971  0.32805471  1  -0.831234  0  -0.289158  -0.152408  0  3.729632  0
N  N114  1  0.27933375  0.08836084  0.14317367  1  -0.741775  0  -0.261046  -0.264512  0  3.375341  0
N  N115  1  0.27510336  0.06603961  0.25117517  1  -0.859998  0  -0.287455  -0.146548  0  3.717495  0
F  F116  1  0.55214193  0.83891089  0.12645885  1  -0.831919  0  -0.206682  -0.50865  0  1.292584  0
F  F117  1  0.63676976  0.63041935  0.16830698  1  -0.835529  0  -0.204753  -0.509057  0  1.164032  0
F  F118  1  0.51746988  0.66110698  0.37351066  1  -0.832895  0  -0.20693  -0.50811  0  1.291439  0
F  F119  1  0.43562036  0.86956330  0.33158174  1  -0.83357  0  -0.204665  -0.508727  0  1.164112  0
F  F120  1  0.44785700  0.16108815  0.87354162  1  -0.831999  0  -0.206689  -0.508677  0  1.292583  0
F  F121  1  0.36322956  0.36957882  0.83169125  1  -0.835513  0  -0.204751  -0.509056  0  1.164051  0
F  F122  1  0.48253150  0.33889292  0.62648936  1  -0.832885  0  -0.206953  -0.508147  0  1.291414  0
F  F123  1  0.56437867  0.13043747  0.66841520  1  -0.833598  0  -0.204673  -0.508727  0  1.164088  0
F  F124  1  0.67944922  0.74996222  0.24998822  1  -0.837722  0  -0.224448  -0.52687  0  1.103822  0
F  F125  1  0.38815366  0.74997829  0.24994610  1  -0.838944  0  -0.239126  -0.53479  0  1.077025  0
F  F126  1  0.32055309  0.25003768  0.75000913  1  -0.837722  0  -0.224424  -0.526843  0  1.103859  0
F  F127  1  0.61184649  0.25001815  0.75005374  1  -0.838917  0  -0.239119  -0.534789  0  1.07702  0
