# generated using pymatgen
data_CuH8C13SN3
_symmetry_space_group_name_H-M   'P 1'
_cell_length_a   5.71124535
_cell_length_b   11.06241069
_cell_length_c   17.86546599
_cell_angle_alpha   89.99925254
_cell_angle_beta   96.13013716
_cell_angle_gamma   90.00077655
_symmetry_Int_Tables_number   1
_chemical_formula_structural   CuH8C13SN3
_chemical_formula_sum   'Cu4 H32 C52 S4 N12'
_cell_volume   1122.28842134
_cell_formula_units_Z   4
loop_
 _symmetry_equiv_pos_site_id
 _symmetry_equiv_pos_as_xyz
  1  'x, y, z'
loop_
 _atom_site_type_symbol
 _atom_site_label
 _atom_site_symmetry_multiplicity
 _atom_site_fract_x
 _atom_site_fract_y
 _atom_site_fract_z
 _atom_site_occupancy
 _atom_site_hle17_bader_spin_density
 _atom_site_hle17_ddec_charge
 _atom_site_hle17_ddec_spin_density
 _atom_site_hle17_ddec_sum_bond_order
 _atom_site_hle17_magmom
 _atom_site_hse06_10hf_bader_spin_density
 _atom_site_hse06_10hf_ddec_charge
 _atom_site_hse06_10hf_ddec_spin_density
 _atom_site_hse06_10hf_ddec_sum_bond_order
 _atom_site_hse06_10hf_magmom
 _atom_site_hse06_bader_spin_density
 _atom_site_hse06_ddec_charge
 _atom_site_hse06_ddec_spin_density
 _atom_site_hse06_ddec_sum_bond_order
 _atom_site_hse06_magmom
 _atom_site_pbe_bader_spin_density
 _atom_site_pbe_cm5_charge
 _atom_site_pbe_ddec_charge
 _atom_site_pbe_ddec_spin_density
 _atom_site_pbe_ddec_sum_bond_order
 _atom_site_pbe_magmom
Cu  Cu0  1  0.57675643  0.45764141  0.43549231  1  0  0.385542  0  2.191521  0  0  0.301938  0  2.686308  0  0  0.296144  0  2.644993  0  0  0.470646  0.308973  0  2.711843  0
Cu  Cu1  1  0.57676263  0.04235943  0.93548908  1  0  0.385441  0  2.191457  0  0  0.301791  0  2.686244  0  0  0.296005  0  2.644932  0  0  0.470599  0.308806  0  2.711877  0
Cu  Cu2  1  0.42323786  0.54235255  0.56450964  1  0  0.385527  0  2.191454  0  0  0.30191  0  2.686252  0  0  0.296154  0  2.644944  0  0  0.470627  0.308937  0  2.711867  0
Cu  Cu3  1  0.42323860  0.95764356  0.06450917  1  0  0.385579  0  2.191718  0  0  0.301938  0  2.686526  0  0  0.296171  0  2.645215  0  0  0.470686  0.308977  0  2.712059  0
H  H4  1  0.88325704  0.78358651  0.28114154  1  0  0.061513  0  0.963317  0  0  0.071185  0  1.027049  0  0  0.072359  0  1.027541  0  0  0.10443  0.070174  0  1.02697  0
H  H5  1  0.88325756  0.71641221  0.78114014  1  0  0.061537  0  0.96324  0  0  0.071207  0  1.026969  0  0  0.072381  0  1.027463  0  0  0.104418  0.070179  0  1.02691  0
H  H6  1  0.11674067  0.21641467  0.71885660  1  0  0.061546  0  0.963283  0  0  0.07121  0  1.027017  0  0  0.072386  0  1.027506  0  0  0.104445  0.070179  0  1.026966  0
H  H7  1  0.11673487  0.28359440  0.21885784  1  0  0.061545  0  0.963309  0  0  0.071207  0  1.027049  0  0  0.07238  0  1.027546  0  0  0.104439  0.070195  0  1.026974  0
H  H8  1  0.61019507  0.81390442  0.37955800  1  0  0.103313  0  0.964544  0  0  0.113271  0  1.026315  0  0  0.115569  0  1.027331  0  0  0.098471  0.111442  0  1.026162  0
H  H9  1  0.61020005  0.68608240  0.87955753  1  0  0.103265  0  0.964613  0  0  0.113274  0  1.026339  0  0  0.115571  0  1.027357  0  0  0.098449  0.111467  0  1.026155  0
H  H10  1  0.38980972  0.18609405  0.62044149  1  0  0.103267  0  0.964643  0  0  0.113218  0  1.026424  0  0  0.115515  0  1.027443  0  0  0.098443  0.111388  0  1.02626  0
H  H11  1  0.38979767  0.31392783  0.12044117  1  0  0.10339  0  0.964468  0  0  0.113395  0  1.026197  0  0  0.115694  0  1.027213  0  0  0.098497  0.111579  0  1.026032  0
H  H12  1  0.65726357  0.00088470  0.46026854  1  0  0.090844  0  0.935496  0  0  0.105103  0  0.991966  0  0  0.107937  0  0.990128  0  0  0.104664  0.10302  0  0.99343  0
H  H13  1  0.65727553  0.49910524  0.96026921  1  0  0.090852  0  0.935531  0  0  0.105137  0  0.991963  0  0  0.107975  0  0.990114  0  0  0.104639  0.103047  0  0.993449  0
H  H14  1  0.34275184  0.99911107  0.53973352  1  0  0.090951  0  0.935524  0  0  0.105195  0  0.992014  0  0  0.108034  0  0.990167  0  0  0.104701  0.103134  0  0.993457  0
H  H15  1  0.34271518  0.50090770  0.03973040  1  0  0.090982  0  0.935411  0  0  0.105247  0  0.991846  0  0  0.108085  0  0.989998  0  0  0.104653  0.103128  0  0.993359  0
H  H16  1  0.87083550  0.19470714  0.49117642  1  0  0.091809  0  0.971882  0  0  0.10074  0  1.03785  0  0  0.102915  0  1.037838  0  0  0.093453  0.099179  0  1.037917  0
H  H17  1  0.87084390  0.30528161  0.99117961  1  0  0.091819  0  0.971881  0  0  0.10073  0  1.037866  0  0  0.102888  0  1.037871  0  0  0.093436  0.099165  0  1.037931  0
H  H18  1  0.12918870  0.80528592  0.50882535  1  0  0.091797  0  0.97185  0  0  0.100684  0  1.03788  0  0  0.102842  0  1.037883  0  0  0.093413  0.099128  0  1.037936  0
H  H19  1  0.12913628  0.69472590  0.00882078  1  0  0.091896  0  0.97186  0  0  0.100826  0  1.03783  0  0  0.103009  0  1.037807  0  0  0.093452  0.099265  0  1.037883  0
H  H20  1  0.18808940  0.33792275  0.46856074  1  0  0.100547  0  0.990502  0  0  0.10673  0  1.0633  0  0  0.110875  0  1.059869  0  0  0.096213  0.103393  0  1.066527  0
H  H21  1  0.18809371  0.16207051  0.96855988  1  0  0.100524  0  0.990635  0  0  0.10671  0  1.063415  0  0  0.110855  0  1.059984  0  0  0.096197  0.103373  0  1.066649  0
H  H22  1  0.81194009  0.66206849  0.53144176  1  0  0.100505  0  0.990442  0  0  0.106707  0  1.063205  0  0  0.11085  0  1.059774  0  0  0.096241  0.103378  0  1.066433  0
H  H23  1  0.81187939  0.83793700  0.03143917  1  0  0.100486  0  0.990681  0  0  0.10671  0  1.063409  0  0  0.11085  0  1.059976  0  0  0.096207  0.103376  0  1.066636  0
H  H24  1  0.75855111  0.36267129  0.30588219  1  0  0.079067  0  0.97385  0  0  0.080109  0  1.05236  0  0  0.083723  0  1.047599  0  0  0.110685  0.077463  0  1.055791  0
H  H25  1  0.75854398  0.13733525  0.80587444  1  0  0.079063  0  0.973782  0  0  0.08009  0  1.052326  0  0  0.083709  0  1.047554  0  0  0.110652  0.07744  0  1.055767  0
H  H26  1  0.24146078  0.63732448  0.69411976  1  0  0.079033  0  0.973709  0  0  0.080068  0  1.052267  0  0  0.083689  0  1.047486  0  0  0.110652  0.077434  0  1.055689  0
H  H27  1  0.24142376  0.86266593  0.19412164  1  0  0.079141  0  0.973862  0  0  0.080196  0  1.052337  0  0  0.083799  0  1.04761  0  0  0.110701  0.077541  0  1.055793  0
H  H28  1  0.70623061  0.18767766  0.21850992  1  0  0.102504  0  0.968785  0  0  0.109991  0  1.034149  0  0  0.11237  0  1.03499  0  0  0.099711  0.108364  0  1.03355  0
H  H29  1  0.70622320  0.31233587  0.71850696  1  0  0.102492  0  0.968862  0  0  0.109976  0  1.03421  0  0  0.112356  0  1.035051  0  0  0.099692  0.108349  0  1.033612  0
H  H30  1  0.29377946  0.81232172  0.78148973  1  0  0.10256  0  0.9687  0  0  0.110022  0  1.034083  0  0  0.112402  0  1.034923  0  0  0.099714  0.108395  0  1.033488  0
H  H31  1  0.29374992  0.68766622  0.28149265  1  0  0.102551  0  0.968783  0  0  0.110052  0  1.034121  0  0  0.112434  0  1.03496  0  0  0.099731  0.10842  0  1.03352  0
H  H32  1  0.39478761  0.03338647  0.23697085  1  0  0.103249  0  0.963907  0  0  0.107719  0  1.038733  0  0  0.111651  0  1.033955  0  0  0.107476  0.104707  0  1.042436  0
H  H33  1  0.39478635  0.46662299  0.73697136  1  0  0.103261  0  0.963835  0  0  0.107752  0  1.0386  0  0  0.111736  0  1.033768  0  0  0.107538  0.104739  0  1.042311  0
H  H34  1  0.60522939  0.96661020  0.76302510  1  0  0.10334  0  0.963922  0  0  0.10779  0  1.038732  0  0  0.111744  0  1.033932  0  0  0.107523  0.104774  0  1.042436  0
H  H35  1  0.60520268  0.53338724  0.26303099  1  0  0.103251  0  0.963873  0  0  0.107708  0  1.038694  0  0  0.111639  0  1.03392  0  0  0.107482  0.104691  0  1.042401  0
C  C36  1  0.89872571  0.86464175  0.31623236  1  0  0.132206  0  3.73054  0  0  0.105554  0  3.989928  0  0  0.112634  0  4.007225  0  0  0.045381  0.101376  0  3.977851  0
C  C37  1  0.89873107  0.63535179  0.81623286  1  0  0.132081  0  3.730091  0  0  0.10544  0  3.989483  0  0  0.112517  0  4.006784  0  0  0.045333  0.101272  0  3.977437  0
C  C38  1  0.10127728  0.13535673  0.68376595  1  0  0.132209  0  3.730441  0  0  0.10556  0  3.989832  0  0  0.112638  0  4.007132  0  0  0.045417  0.101391  0  3.977765  0
C  C39  1  0.10126316  0.36465482  0.18376685  1  0  0.132128  0  3.729945  0  0  0.105492  0  3.989322  0  0  0.112568  0  4.006622  0  0  0.045386  0.101322  0  3.977253  0
C  C40  1  0.74472521  0.88129799  0.37189570  1  0  -0.116076  0  3.739376  0  0  -0.128414  0  3.990282  0  0  -0.135692  0  4.013007  0  0  -0.087388  -0.123939  0  3.975603  0
C  C41  1  0.74472657  0.61869341  0.87189565  1  0  -0.115881  0  3.739288  0  0  -0.128265  0  3.990203  0  0  -0.135542  0  4.012927  0  0  -0.087301  -0.123796  0  3.975507  0
C  C42  1  0.25528311  0.11870048  0.62810446  1  0  -0.115926  0  3.739315  0  0  -0.128252  0  3.990216  0  0  -0.135529  0  4.012942  0  0  -0.087323  -0.123768  0  3.975517  0
C  C43  1  0.25525889  0.38131681  0.12810491  1  0  -0.115884  0  3.739065  0  0  -0.128275  0  3.990006  0  0  -0.135552  0  4.01273  0  0  -0.087301  -0.123801  0  3.975296  0
C  C44  1  0.77083759  0.98385391  0.41602136  1  0  -0.049481  0  3.722778  0  0  -0.073466  0  3.972065  0  0  -0.071441  0  3.991314  0  0  -0.069051  -0.074678  0  3.95917  0
C  C45  1  0.77084144  0.51613580  0.91602331  1  0  -0.049644  0  3.722851  0  0  -0.073663  0  3.972181  0  0  -0.071638  0  3.991425  0  0  -0.069106  -0.074887  0  3.959302  0
C  C46  1  0.22917953  0.01614186  0.58397907  1  0  -0.049679  0  3.72281  0  0  -0.073687  0  3.97217  0  0  -0.07166  0  3.991415  0  0  -0.069157  -0.074933  0  3.959262  0
C  C47  1  0.22914044  0.48387533  0.08397490  1  0  -0.049847  0  3.722965  0  0  -0.073904  0  3.972256  0  0  -0.071881  0  3.991502  0  0  -0.069152  -0.075106  0  3.959365  0
C  C48  1  0.98598922  0.17601944  0.44763661  1  0  -0.074659  0  3.75658  0  0  -0.096923  0  4.008219  0  0  -0.096698  0  4.030179  0  0  -0.083994  -0.096931  0  3.993481  0
C  C49  1  0.98599810  0.32397275  0.94763855  1  0  -0.074691  0  3.756457  0  0  -0.096918  0  4.008079  0  0  -0.096688  0  4.030061  0  0  -0.083935  -0.096906  0  3.993308  0
C  C50  1  0.01403147  0.82397090  0.55236562  1  0  -0.074805  0  3.756428  0  0  -0.097041  0  4.008082  0  0  -0.09681  0  4.030072  0  0  -0.084004  -0.097048  0  3.993351  0
C  C51  1  0.01397503  0.67603567  0.05236162  1  0  -0.074837  0  3.756583  0  0  -0.097169  0  4.00823  0  0  -0.09696  0  4.0302  0  0  -0.084012  -0.097152  0  3.99345  0
C  C52  1  0.16056814  0.25560915  0.43523661  1  0  -0.142859  0  3.723136  0  0  -0.163201  0  3.976274  0  0  -0.169516  0  3.997321  0  0  -0.09324  -0.15929  0  3.962864  0
C  C53  1  0.16057307  0.24438467  0.93523960  1  0  -0.142866  0  3.723101  0  0  -0.163218  0  3.976223  0  0  -0.169537  0  3.997271  0  0  -0.09327  -0.159301  0  3.96281  0
C  C54  1  0.83945612  0.74438210  0.56476741  1  0  -0.142741  0  3.723223  0  0  -0.16307  0  3.976418  0  0  -0.169383  0  3.997458  0  0  -0.093224  -0.159173  0  3.963027  0
C  C55  1  0.83940537  0.75562013  0.06476185  1  0  -0.142818  0  3.723245  0  0  -0.163202  0  3.976407  0  0  -0.169513  0  3.997453  0  0  -0.093233  -0.159293  0  3.962998  0
C  C56  1  0.62134133  0.29603704  0.31235976  1  0  0.136333  0  3.683738  0  0  0.103307  0  3.942971  0  0  0.112664  0  3.956359  0  0  0.04575  0.097284  0  3.934038  0
C  C57  1  0.62134145  0.20396672  0.81235620  1  0  0.136206  0  3.683669  0  0  0.103162  0  3.942906  0  0  0.112517  0  3.956293  0  0  0.045717  0.097145  0  3.933974  0
C  C58  1  0.37867410  0.70395782  0.68764286  1  0  0.136209  0  3.683603  0  0  0.103167  0  3.942873  0  0  0.112521  0  3.956271  0  0  0.045682  0.097135  0  3.933971  0
C  C59  1  0.37863344  0.79603356  0.18764402  1  0  0.13619  0  3.683973  0  0  0.103112  0  3.943247  0  0  0.112462  0  3.956631  0  0  0.045698  0.097083  0  3.934302  0
C  C60  1  0.59334030  0.19666764  0.26359701  1  0  -0.126607  0  3.745385  0  0  -0.137852  0  3.999979  0  0  -0.146431  0  4.022147  0  0  -0.088343  -0.132391  0  3.98522  0
C  C61  1  0.59333968  0.30334424  0.76359377  1  0  -0.126533  0  3.74519  0  0  -0.137769  0  3.999786  0  0  -0.146352  0  4.021974  0  0  -0.088243  -0.132304  0  3.985029  0
C  C62  1  0.40667681  0.80332902  0.73640287  1  0  -0.126599  0  3.745405  0  0  -0.137796  0  3.999978  0  0  -0.146376  0  4.022155  0  0  -0.088314  -0.132337  0  3.985224  0
C  C63  1  0.40664572  0.69665785  0.23640455  1  0  -0.126706  0  3.745441  0  0  -0.137947  0  4.000054  0  0  -0.146525  0  4.02222  0  0  -0.088322  -0.132476  0  3.985273  0
C  C64  1  0.42149571  0.11195131  0.27344551  1  0  -0.022679  0  3.691925  0  0  -0.051895  0  3.945966  0  0  -0.04599  0  3.960968  0  0  -0.063233  -0.05583  0  3.936231  0
C  C65  1  0.42149225  0.38805752  0.77344544  1  0  -0.022632  0  3.691786  0  0  -0.05186  0  3.945819  0  0  -0.046013  0  3.960787  0  0  -0.063255  -0.055785  0  3.936105  0
C  C66  1  0.57852141  0.88804536  0.72655492  1  0  -0.022785  0  3.691849  0  0  -0.051973  0  3.945896  0  0  -0.046099  0  3.960878  0  0  -0.06324  -0.055888  0  3.936156  0
C  C67  1  0.57849501  0.61194729  0.22655685  1  0  -0.022549  0  3.691857  0  0  -0.05178  0  3.945883  0  0  -0.045881  0  3.960887  0  0  -0.063249  -0.05571  0  3.936137  0
C  C68  1  0.27601403  0.12879287  0.33152668  1  0  -0.065045  0  3.745427  0  0  -0.048459  0  3.972521  0  0  -0.055656  0  3.997431  0  0  -0.003517  -0.043993  0  3.955729  0
C  C69  1  0.27601713  0.37121022  0.83152638  1  0  -0.065069  0  3.745559  0  0  -0.048423  0  3.972588  0  0  -0.055582  0  3.997462  0  0  -0.003557  -0.043993  0  3.955846  0
C  C70  1  0.72400662  0.87120109  0.66847387  1  0  -0.065069  0  3.745316  0  0  -0.048532  0  3.972422  0  0  -0.055698  0  3.997296  0  0  -0.003555  -0.044105  0  3.955674  0
C  C71  1  0.72397188  0.62879730  0.16847540  1  0  -0.065092  0  3.745615  0  0  -0.048382  0  3.972589  0  0  -0.055574  0  3.997498  0  0  -0.003493  -0.043924  0  3.955803  0
C  C72  1  0.09334221  0.04344820  0.34567188  1  0  0.162375  0  3.767175  0  0  0.159197  0  4.005583  0  0  0.165096  0  4.027412  0  0  0.114348  0.155827  0  3.990496  0
C  C73  1  0.09334419  0.45655077  0.84567257  1  0  0.162358  0  3.767402  0  0  0.159142  0  4.00584  0  0  0.165028  0  4.027662  0  0  0.114368  0.155789  0  3.990767  0
C  C74  1  0.90667314  0.95654576  0.65432794  1  0  0.162254  0  3.767353  0  0  0.159307  0  4.005429  0  0  0.165197  0  4.027254  0  0  0.114333  0.15595  0  3.990341  0
C  C75  1  0.90664131  0.54345404  0.15432967  1  0  0.162381  0  3.767604  0  0  0.15909  0  4.006002  0  0  0.164986  0  4.02783  0  0  0.114342  0.15572  0  3.990933  0
C  C76  1  0.94847571  0.06822232  0.40404651  1  0  0.00142  0  3.808496  0  0  0.0192  0  4.038344  0  0  0.014776  0  4.063558  0  0  -0.009136  0.021845  0  4.021503  0
C  C77  1  0.94848051  0.43177330  0.90404692  1  0  0.001533  0  3.808434  0  0  0.019317  0  4.038287  0  0  0.014899  0  4.063485  0  0  -0.009109  0.021954  0  4.021478  0
C  C78  1  0.05154146  0.93177435  0.59595560  1  0  0.001452  0  3.8083  0  0  0.019182  0  4.038097  0  0  0.014754  0  4.063306  0  0  -0.009116  0.021824  0  4.021266  0
C  C79  1  0.05150141  0.56823060  0.09595297  1  0  0.00145  0  3.808798  0  0  0.019434  0  4.038389  0  0  0.015013  0  4.063597  0  0  -0.009109  0.022074  0  4.02156  0
C  C80  1  0.31031915  0.23379761  0.37765183  1  0  0.204702  0  3.75587  0  0  0.202076  0  3.990629  0  0  0.209124  0  4.012397  0  0  0.108829  0.197867  0  3.975741  0
C  C81  1  0.31032631  0.26620287  0.87764969  1  0  0.204619  0  3.75577  0  0  0.201955  0  3.990551  0  0  0.208987  0  4.012322  0  0  0.108778  0.197758  0  3.975671  0
C  C82  1  0.68970856  0.76619182  0.62234949  1  0  0.204892  0  3.755996  0  0  0.202147  0  3.990944  0  0  0.209186  0  4.012709  0  0  0.108807  0.197955  0  3.976064  0
C  C83  1  0.68965562  0.73380284  0.12235075  1  0  0.204708  0  3.755851  0  0  0.202018  0  3.990628  0  0  0.209064  0  4.012401  0  0  0.108776  0.197812  0  3.975738  0
C  C84  1  0.06258383  0.56875685  0.42065445  1  0  0.290651  0  3.906462  0  0  0.284091  0  4.195493  0  0  0.300325  0  4.20837  0  0  0.14869  0.272865  0  4.187466  0
C  C85  1  0.06256743  0.93124115  0.92065196  1  0  0.290699  0  3.906878  0  0  0.284123  0  4.195892  0  0  0.300353  0  4.208765  0  0  0.14879  0.272902  0  4.187894  0
C  C86  1  0.93742797  0.43122988  0.57934414  1  0  0.290664  0  3.906467  0  0  0.284093  0  4.195508  0  0  0.300325  0  4.208385  0  0  0.148742  0.272878  0  4.187507  0
C  C87  1  0.93742497  0.06876546  0.07934490  1  0  0.290669  0  3.905735  0  0  0.284113  0  4.19479  0  0  0.300351  0  4.207663  0  0  0.148712  0.272885  0  4.18677  0
S  S88  1  0.33165178  0.62255949  0.43791345  1  0  -0.311194  0  2.645159  0  0  -0.287216  0  3.071049  0  0  -0.288059  0  3.043558  0  0  -0.168995  -0.28707  0  3.089273  0
S  S89  1  0.33166385  0.87743795  0.93791339  1  0  -0.31125  0  2.644679  0  0  -0.287286  0  3.070612  0  0  -0.28813  0  3.043112  0  0  -0.16903  -0.287147  0  3.088875  0
S  S90  1  0.66832308  0.37742995  0.56208566  1  0  -0.311262  0  2.644834  0  0  -0.287316  0  3.070794  0  0  -0.288161  0  3.043295  0  0  -0.169083  -0.287182  0  3.089051  0
S  S91  1  0.66833914  0.12256052  0.06208492  1  0  -0.311231  0  2.645037  0  0  -0.287273  0  3.070979  0  0  -0.288111  0  3.043472  0  0  -0.169037  -0.28713  0  3.089218  0
N  N92  1  0.06697849  0.94224273  0.30281290  1  0  -0.338668  0  3.074403  0  0  -0.300692  0  3.338233  0  0  -0.313393  0  3.354135  0  0  -0.311944  -0.29185  0  3.326701  0
N  N93  1  0.06698525  0.55775332  0.80281461  1  0  -0.338602  0  3.074236  0  0  -0.300636  0  3.338095  0  0  -0.313343  0  3.354007  0  0  -0.311923  -0.291793  0  3.326563  0
N  N94  1  0.93302980  0.05775303  0.69718614  1  0  -0.338649  0  3.074351  0  0  -0.300735  0  3.338097  0  0  -0.313441  0  3.354005  0  0  -0.312  -0.291894  0  3.32655  0
N  N95  1  0.93300722  0.44225690  0.19718505  1  0  -0.33868  0  3.074221  0  0  -0.300728  0  3.338126  0  0  -0.31343  0  3.354025  0  0  -0.312001  -0.29189  0  3.326598  0
N  N96  1  0.48569992  0.31542693  0.36785852  1  0  -0.325598  0  3.311803  0  0  -0.256663  0  3.599594  0  0  -0.268937  0  3.60835  0  0  -0.353869  -0.249088  0  3.593238  0
N  N97  1  0.48570306  0.18457211  0.86785633  1  0  -0.325439  0  3.311667  0  0  -0.256445  0  3.59936  0  0  -0.268719  0  3.608122  0  0  -0.353811  -0.248869  0  3.593031  0
N  N98  1  0.51432080  0.68456432  0.63214482  1  0  -0.325495  0  3.311569  0  0  -0.256546  0  3.599409  0  0  -0.268829  0  3.608177  0  0  -0.353716  -0.248973  0  3.593085  0
N  N99  1  0.51427885  0.81542998  0.13214299  1  0  -0.325454  0  3.311739  0  0  -0.256427  0  3.599421  0  0  -0.268703  0  3.608185  0  0  -0.353806  -0.248854  0  3.593061  0
N  N100  1  0.86921686  0.52962054  0.41023677  1  0  -0.473246  0  3.064801  0  0  -0.425435  0  3.372836  0  0  -0.436354  0  3.375077  0  0  -0.416048  -0.418712  0  3.371839  0
N  N101  1  0.86923691  0.97037169  0.91024072  1  0  -0.473099  0  3.065672  0  0  -0.425265  0  3.373662  0  0  -0.436185  0  3.375908  0  0  -0.416021  -0.418546  0  3.37272  0
N  N102  1  0.13077542  0.47036528  0.58975561  1  0  -0.473175  0  3.065186  0  0  -0.425341  0  3.373202  0  0  -0.436271  0  3.375462  0  0  -0.416005  -0.41863  0  3.372258  0
N  N103  1  0.13079781  0.02962045  0.08975971  1  0  -0.473277  0  3.064464  0  0  -0.425472  0  3.372563  0  0  -0.436396  0  3.374813  0  0  -0.416087  -0.418748  0  3.37157  0
