# generated using pymatgen
data_CdH18C20(N6O)2
_symmetry_space_group_name_H-M   'P 1'
_cell_length_a   7.64914537
_cell_length_b   8.00703075
_cell_length_c   8.96134104
_cell_angle_alpha   102.26267637
_cell_angle_beta   95.33809045
_cell_angle_gamma   107.66848346
_symmetry_Int_Tables_number   1
_chemical_formula_structural   CdH18C20(N6O)2
_chemical_formula_sum   'Cd1 H18 C20 N12 O2'
_cell_volume   503.66856115
_cell_formula_units_Z   1
loop_
 _symmetry_equiv_pos_site_id
 _symmetry_equiv_pos_as_xyz
  1  'x, y, z'
loop_
 _atom_site_type_symbol
 _atom_site_label
 _atom_site_symmetry_multiplicity
 _atom_site_fract_x
 _atom_site_fract_y
 _atom_site_fract_z
 _atom_site_occupancy
 _atom_site_hle17_bader_spin_density
 _atom_site_hle17_ddec_charge
 _atom_site_hle17_ddec_spin_density
 _atom_site_hle17_ddec_sum_bond_order
 _atom_site_hle17_magmom
 _atom_site_hse06_10hf_bader_spin_density
 _atom_site_hse06_10hf_ddec_charge
 _atom_site_hse06_10hf_ddec_spin_density
 _atom_site_hse06_10hf_ddec_sum_bond_order
 _atom_site_hse06_10hf_magmom
 _atom_site_hse06_bader_spin_density
 _atom_site_hse06_ddec_charge
 _atom_site_hse06_ddec_spin_density
 _atom_site_hse06_ddec_sum_bond_order
 _atom_site_hse06_magmom
 _atom_site_pbe_bader_spin_density
 _atom_site_pbe_cm5_charge
 _atom_site_pbe_ddec_charge
 _atom_site_pbe_ddec_spin_density
 _atom_site_pbe_ddec_sum_bond_order
 _atom_site_pbe_magmom
Cd  Cd0  1  0.99999936  0.99999940  0.99999942  1  0  1.098845  0  1.708709  0  0  0.898949  0  2.151837  0  0  0.949729  0  2.107097  0  0  0.801041  0.861255  0  2.184315  0
H  H1  1  0.93922270  0.04170822  0.64596404  1  0  0.101379  0  0.97027  0  0  0.110393  0  1.03291  0  0  0.11257  0  1.032233  0  0  0.115876  0.108915  0  1.033437  0
H  H2  1  0.06077536  0.95829522  0.35403715  1  0  0.101395  0  0.970348  0  0  0.110425  0  1.032964  0  0  0.112602  0  1.032285  0  0  0.115873  0.108946  0  1.033489  0
H  H3  1  0.66778762  0.75618010  0.12251979  1  0  0.383096  0  0.932651  0  0  0.345473  0  1.014315  0  0  0.356309  0  0.998735  0  0  0.276044  0.337478  0  1.025916  0
H  H4  1  0.33220949  0.24381657  0.87748001  1  0  0.383108  0  0.932619  0  0  0.345485  0  1.014293  0  0  0.356322  0  0.998713  0  0  0.276062  0.337492  0  1.025895  0
H  H5  1  0.77249574  0.62833999  0.04373046  1  0  0.38227  0  0.936936  0  0  0.338153  0  1.024262  0  0  0.349283  0  1.008204  0  0  0.277213  0.33025  0  1.035684  0
H  H6  1  0.22750231  0.37165940  0.95626883  1  0  0.382223  0  0.936914  0  0  0.338104  0  1.024311  0  0  0.349234  0  1.008254  0  0  0.277201  0.330201  0  1.035733  0
H  H7  1  0.38954817  0.22259359  0.11595547  1  0  0.083661  0  0.998992  0  0  0.09336  0  1.066834  0  0  0.095926  0  1.06509  0  0  0.100845  0.091821  0  1.067282  0
H  H8  1  0.61045164  0.77740716  0.88404426  1  0  0.083616  0  0.998969  0  0  0.09332  0  1.066825  0  0  0.095885  0  1.065082  0  0  0.10084  0.091781  0  1.06727  0
H  H9  1  0.64993431  0.97925373  0.41486136  1  0  0.090598  0  0.974432  0  0  0.100986  0  1.039734  0  0  0.103034  0  1.039586  0  0  0.100967  0.09963  0  1.039539  0
H  H10  1  0.35006854  0.02074434  0.58513814  1  0  0.090545  0  0.974419  0  0  0.100936  0  1.039739  0  0  0.102984  0  1.039592  0  0  0.10096  0.099581  0  1.039544  0
H  H11  1  0.78130687  0.75988661  0.37935570  1  0  0.117449  0  0.984747  0  0  0.125066  0  1.05185  0  0  0.12869  0  1.048142  0  0  0.122478  0.121613  0  1.055641  0
H  H12  1  0.21868948  0.24011549  0.62064283  1  0  0.117434  0  0.984778  0  0  0.12504  0  1.051903  0  0  0.128671  0  1.048185  0  0  0.122465  0.12161  0  1.055668  0
H  H13  1  0.87918258  0.54899968  0.76436274  1  0  0.097331  0  0.964152  0  0  0.095055  0  1.047385  0  0  0.098402  0  1.042843  0  0  0.134354  0.092675  0  1.050517  0
H  H14  1  0.12082166  0.45100247  0.23563655  1  0  0.097316  0  0.964181  0  0  0.095047  0  1.047401  0  0  0.098396  0  1.042856  0  0  0.134351  0.092665  0  1.050536  0
H  H15  1  0.83176860  0.28316048  0.58169544  1  0  0.10425  0  0.947987  0  0  0.117111  0  1.005962  0  0  0.119833  0  1.005119  0  0  0.10611  0.115635  0  1.005573  0
H  H16  1  0.16823602  0.71683895  0.41830448  1  0  0.104243  0  0.948017  0  0  0.117105  0  1.005994  0  0  0.119825  0  1.005153  0  0  0.106113  0.115627  0  1.005604  0
H  H17  1  0.55910504  0.52319029  0.28493695  1  0  0.107685  0  0.963606  0  0  0.114535  0  1.032735  0  0  0.11792  0  1.030565  0  0  0.106619  0.111792  0  1.034931  0
H  H18  1  0.44089481  0.47681048  0.71506166  1  0  0.107686  0  0.963631  0  0  0.114546  0  1.032744  0  0  0.117931  0  1.030573  0  0  0.106634  0.111788  0  1.034958  0
C  C19  1  0.90214836  0.89675812  0.62957234  1  0  0.008288  0  3.765813  0  0  -0.024655  0  4.029529  0  0  -0.022666  0  4.050926  0  0  -0.001706  -0.026359  0  4.015256  0
C  C20  1  0.09784568  0.10324122  0.37042880  1  0  0.008154  0  3.765834  0  0  -0.024797  0  4.029558  0  0  -0.022806  0  4.050954  0  0  -0.001729  -0.0265  0  4.015294  0
C  C21  1  0.87552107  0.64515911  0.69636577  1  0  0.183952  0  3.622787  0  0  0.12125  0  3.897087  0  0  0.136327  0  3.907864  0  0  0.149404  0.111018  0  3.890076  0
C  C22  1  0.12447791  0.35484300  0.30363302  1  0  0.183915  0  3.622712  0  0  0.121225  0  3.897027  0  0  0.136301  0  3.907804  0  0  0.1494  0.110996  0  3.890011  0
C  C23  1  0.82107075  0.75963469  0.49846687  1  0  -0.075036  0  3.668457  0  0  -0.11359  0  3.927864  0  0  -0.112151  0  3.945091  0  0  -0.001546  -0.11376  0  3.916401  0
C  C24  1  0.17892769  0.24037007  0.50153795  1  0  -0.074985  0  3.668328  0  0  -0.113527  0  3.927726  0  0  -0.112095  0  3.944944  0  0  -0.001493  -0.113718  0  3.916252  0
C  C25  1  0.70779064  0.42349612  0.44470971  1  0  0.179431  0  3.768653  0  0  0.170808  0  4.018116  0  0  0.177511  0  4.039536  0  0  0.093033  0.166274  0  4.003605  0
C  C26  1  0.29221315  0.57650467  0.55528928  1  0  0.17932  0  3.768792  0  0  0.170711  0  4.018234  0  0  0.177414  0  4.039654  0  0  0.092996  0.166176  0  4.003719  0
C  C27  1  0.39231880  0.90007768  0.15668143  1  0  0.27594  0  3.81132  0  0  0.246971  0  4.082102  0  0  0.258453  0  4.09935  0  0  0.210114  0.239981  0  4.068083  0
C  C28  1  0.60768142  0.09992037  0.84331781  1  0  0.275923  0  3.811303  0  0  0.246858  0  4.082219  0  0  0.258339  0  4.099469  0  0  0.21009  0.23987  0  4.068201  0
C  C29  1  0.50647753  0.07872235  0.25313992  1  0  -0.001993  0  3.792596  0  0  0.016645  0  4.028032  0  0  0.013535  0  4.050429  0  0  -0.007889  0.018469  0  4.012601  0
C  C30  1  0.49352320  0.92127708  0.74685740  1  0  -0.002085  0  3.792595  0  0  0.016585  0  4.028058  0  0  0.013475  0  4.050456  0  0  -0.007914  0.018407  0  4.012628  0
C  C31  1  0.48546178  0.23460838  0.21810280  1  0  -0.057331  0  3.73723  0  0  -0.082379  0  3.984714  0  0  -0.082619  0  4.006374  0  0  -0.08577  -0.081865  0  3.969059  0
C  C32  1  0.51453448  0.76539368  0.78189907  1  0  -0.057221  0  3.737103  0  0  -0.082283  0  3.984602  0  0  -0.082522  0  4.006261  0  0  -0.085757  -0.081767  0  3.968941  0
C  C33  1  0.63313982  0.09884621  0.38492367  1  0  -0.067649  0  3.723681  0  0  -0.088575  0  3.970806  0  0  -0.08853  0  3.991243  0  0  -0.083436  -0.088485  0  3.956496  0
C  C34  1  0.36686267  0.90115055  0.61507219  1  0  -0.067609  0  3.723497  0  0  -0.088548  0  3.970625  0  0  -0.088503  0  3.99106  0  0  -0.083461  -0.088457  0  3.95631  0
C  C35  1  0.73361952  0.26978248  0.48016964  1  0  -0.141899  0  3.737128  0  0  -0.167106  0  3.999041  0  0  -0.171486  0  4.019825  0  0  -0.092208  -0.164024  0  3.983364  0
C  C36  1  0.26638024  0.73021422  0.51982930  1  0  -0.141792  0  3.7371  0  0  -0.167001  0  3.998986  0  0  -0.17138  0  4.01977  0  0  -0.09215  -0.163919  0  3.983305  0
C  C37  1  0.58324752  0.40533913  0.31302337  1  0  -0.13675  0  3.717249  0  0  -0.159069  0  3.974498  0  0  -0.163385  0  3.994492  0  0  -0.091635  -0.156677  0  3.961628  0
C  C38  1  0.41675407  0.59466299  0.68697679  1  0  -0.136751  0  3.717301  0  0  -0.159075  0  3.974543  0  0  -0.163392  0  3.994538  0  0  -0.091634  -0.156671  0  3.961682  0
N  N39  1  0.93527580  0.82399189  0.75128412  1  0  -0.38288  0  3.268726  0  0  -0.303523  0  3.545676  0  0  -0.324988  0  3.563975  0  0  -0.356654  -0.288079  0  3.533006  0
N  N40  1  0.06472797  0.17600889  0.24871598  1  0  -0.382797  0  3.268635  0  0  -0.303468  0  3.545604  0  0  -0.324933  0  3.563905  0  0  -0.356644  -0.288017  0  3.53291  0
N  N41  1  0.80353433  0.59963179  0.54199433  1  0  -0.089217  0  3.593319  0  0  0.000618  0  3.802332  0  0  -0.014762  0  3.828254  0  0  -0.223774  0.010726  0  3.784846  0
N  N42  1  0.19646725  0.40037033  0.45800582  1  0  -0.089119  0  3.593229  0  0  0.000706  0  3.802238  0  0  -0.014676  0  3.828165  0  0  -0.22378  0.010816  0  3.784754  0
N  N43  1  0.22663486  0.86389192  0.06595851  1  0  -0.357175  0  3.115845  0  0  -0.293184  0  3.402096  0  0  -0.312176  0  3.419032  0  0  -0.23674  -0.280363  0  3.389772  0
N  N44  1  0.77336442  0.13610744  0.93404424  1  0  -0.357071  0  3.115719  0  0  -0.29304  0  3.401978  0  0  -0.312032  0  3.418914  0  0  -0.236705  -0.28022  0  3.389656  0
N  N45  1  0.16518357  0.68458238  0.00030657  1  0  -0.073071  0  2.980828  0  0  -0.07068  0  3.272881  0  0  -0.06949  0  3.287592  0  0  -0.098664  -0.071335  0  3.262595  0
N  N46  1  0.83481625  0.31541838  0.99969315  1  0  -0.0732  0  2.980885  0  0  -0.070823  0  3.272943  0  0  -0.069634  0  3.287655  0  0  -0.098706  -0.071478  0  3.26266  0
N  N47  1  0.28810164  0.61469382  0.04823314  1  0  -0.114847  0  3.074771  0  0  -0.079433  0  3.360698  0  0  -0.083558  0  3.373469  0  0  -0.094247  -0.076369  0  3.350916  0
N  N48  1  0.71189772  0.38530559  0.95176628  1  0  -0.114771  0  3.074694  0  0  -0.079342  0  3.36058  0  0  -0.083465  0  3.373351  0  0  -0.094215  -0.076277  0  3.3508  0
N  N49  1  0.43330102  0.74621322  0.14687376  1  0  -0.345709  0  3.011973  0  0  -0.304789  0  3.282614  0  0  -0.317923  0  3.296034  0  0  -0.227061  -0.295354  0  3.270961  0
N  N50  1  0.56669914  0.25378482  0.85312770  1  0  -0.345719  0  3.011954  0  0  -0.304775  0  3.282626  0  0  -0.31791  0  3.296045  0  0  -0.227062  -0.29534  0  3.270974  0
O  O51  1  0.79352464  0.75665413  0.10025193  1  0  -0.821207  0  1.893643  0  0  -0.758923  0  2.104452  0  0  -0.778928  0  2.07065  0  0  -0.592245  -0.744246  0  2.129209  0
O  O52  1  0.20647295  0.24334391  0.89974706  1  0  -0.821169  0  1.893567  0  0  -0.758883  0  2.104453  0  0  -0.778891  0  2.070652  0  0  -0.592256  -0.744208  0  2.12921  0
