# generated using pymatgen
data_CdH10C6(SN2)2
_symmetry_space_group_name_H-M   'P 1'
_cell_length_a   7.65158083
_cell_length_b   7.72618972
_cell_length_c   16.59643824
_cell_angle_alpha   90.00039266
_cell_angle_beta   89.99929853
_cell_angle_gamma   90.00009789
_symmetry_Int_Tables_number   1
_chemical_formula_structural   CdH10C6(SN2)2
_chemical_formula_sum   'Cd4 H40 C24 S8 N16'
_cell_volume   981.14101931
_cell_formula_units_Z   4
loop_
 _symmetry_equiv_pos_site_id
 _symmetry_equiv_pos_as_xyz
  1  'x, y, z'
loop_
 _atom_site_type_symbol
 _atom_site_label
 _atom_site_symmetry_multiplicity
 _atom_site_fract_x
 _atom_site_fract_y
 _atom_site_fract_z
 _atom_site_occupancy
 _atom_site_hle17_bader_spin_density
 _atom_site_hle17_ddec_charge
 _atom_site_hle17_ddec_spin_density
 _atom_site_hle17_ddec_sum_bond_order
 _atom_site_hle17_magmom
 _atom_site_hse06_10hf_bader_spin_density
 _atom_site_hse06_10hf_ddec_charge
 _atom_site_hse06_10hf_ddec_spin_density
 _atom_site_hse06_10hf_ddec_sum_bond_order
 _atom_site_hse06_10hf_magmom
 _atom_site_hse06_bader_spin_density
 _atom_site_hse06_ddec_charge
 _atom_site_hse06_ddec_spin_density
 _atom_site_hse06_ddec_sum_bond_order
 _atom_site_hse06_magmom
 _atom_site_pbe_bader_spin_density
 _atom_site_pbe_cm5_charge
 _atom_site_pbe_ddec_charge
 _atom_site_pbe_ddec_spin_density
 _atom_site_pbe_ddec_sum_bond_order
 _atom_site_pbe_magmom
Cd  Cd0  1  0.91031133  0.33059662  0.12227946  1  0  0.848039  0  2.049908  0  0  0.664782  0  2.534004  0  0  0.707008  0  2.49835  0  0  0.628549  0.63548  0  2.558103  0
Cd  Cd1  1  0.58969462  0.66940843  0.62227866  1  0  0.847967  0  2.050102  0  0  0.664685  0  2.534221  0  0  0.706916  0  2.49856  0  0  0.628519  0.635384  0  2.55832  0
Cd  Cd2  1  0.08971089  0.83059189  0.37772135  1  0  0.848057  0  2.049929  0  0  0.664827  0  2.533998  0  0  0.707056  0  2.498342  0  0  0.628539  0.635517  0  2.558096  0
Cd  Cd3  1  0.41030850  0.16942231  0.87771448  1  0  0.847941  0  2.050025  0  0  0.664684  0  2.534108  0  0  0.706916  0  2.49845  0  0  0.628544  0.635384  0  2.558205  0
H  H4  1  0.56106136  0.98277154  0.10993923  1  0  0.054046  0  0.940038  0  0  0.071166  0  1.005625  0  0  0.071083  0  1.006382  0  0  0.092794  0.071084  0  1.005273  0
H  H5  1  0.93895143  0.01722817  0.60992986  1  0  0.054221  0  0.940405  0  0  0.071328  0  1.005932  0  0  0.071245  0  1.006685  0  0  0.092927  0.071253  0  1.005563  0
H  H6  1  0.43896375  0.48275715  0.39006692  1  0  0.05416  0  0.93998  0  0  0.071171  0  1.005628  0  0  0.071087  0  1.006386  0  0  0.092843  0.071091  0  1.005261  0
H  H7  1  0.06103442  0.51723909  0.89006577  1  0  0.054171  0  0.940011  0  0  0.071224  0  1.005657  0  0  0.071141  0  1.006414  0  0  0.092863  0.071146  0  1.005289  0
H  H8  1  0.48145310  0.18044740  0.14762088  1  0  0.06  0  0.970299  0  0  0.076838  0  1.036091  0  0  0.077037  0  1.03649  0  0  0.092442  0.076561  0  1.035958  0
H  H9  1  0.01855103  0.81955848  0.64761018  1  0  0.060149  0  0.97027  0  0  0.076993  0  1.036016  0  0  0.077191  0  1.036418  0  0  0.092494  0.076714  0  1.035887  0
H  H10  1  0.51855840  0.68043526  0.35238303  1  0  0.060065  0  0.970276  0  0  0.076878  0  1.03605  0  0  0.077079  0  1.036448  0  0  0.092428  0.076597  0  1.035919  0
H  H11  1  0.98144321  0.31954965  0.85238588  1  0  0.060013  0  0.970307  0  0  0.076865  0  1.036086  0  0  0.077065  0  1.036484  0  0  0.092448  0.076582  0  1.035959  0
H  H12  1  0.11097361  0.95461777  0.13770373  1  0  0.264314  0  0.967629  0  0  0.246538  0  1.042644  0  0  0.253444  0  1.038146  0  0  0.274384  0.241652  0  1.045872  0
H  H13  1  0.38902162  0.04538409  0.63772308  1  0  0.264599  0  0.967454  0  0  0.246772  0  1.042469  0  0  0.253698  0  1.037952  0  0  0.274431  0.241867  0  1.045713  0
H  H14  1  0.88902792  0.45460115  0.36229329  1  0  0.264259  0  0.967667  0  0  0.246537  0  1.042608  0  0  0.253436  0  1.038106  0  0  0.274344  0.241639  0  1.045845  0
H  H15  1  0.61097344  0.54538388  0.86228651  1  0  0.264619  0  0.967423  0  0  0.246831  0  1.042419  0  0  0.253732  0  1.037911  0  0  0.274487  0.241915  0  1.045678  0
H  H16  1  0.33738613  0.73290866  0.93280941  1  0  0.074002  0  0.951422  0  0  0.089735  0  1.014583  0  0  0.09018  0  1.015131  0  0  0.100756  0.089319  0  1.01426  0
H  H17  1  0.16260445  0.26711017  0.43283079  1  0  0.074186  0  0.951365  0  0  0.089838  0  1.014546  0  0  0.090272  0  1.015107  0  0  0.100845  0.089426  0  1.014222  0
H  H18  1  0.66259096  0.23290576  0.56718213  1  0  0.074029  0  0.951396  0  0  0.089841  0  1.014506  0  0  0.090284  0  1.015055  0  0  0.10081  0.089429  0  1.014189  0
H  H19  1  0.83739544  0.76711796  0.06717523  1  0  0.074064  0  0.951553  0  0  0.089761  0  1.014677  0  0  0.090196  0  1.015241  0  0  0.10081  0.08935  0  1.01436  0
H  H20  1  0.11157545  0.77887414  0.92204763  1  0  0.04764  0  0.936506  0  0  0.064426  0  1.0017  0  0  0.065115  0  1.0006  0  0  0.092869  0.063789  0  1.00265  0
H  H21  1  0.38841671  0.22114196  0.42207229  1  0  0.047521  0  0.936792  0  0  0.064375  0  1.001841  0  0  0.065067  0  1.000735  0  0  0.092804  0.063728  0  1.002807  0
H  H22  1  0.88838996  0.27885364  0.57794468  1  0  0.047704  0  0.936839  0  0  0.064586  0  1.00195  0  0  0.065276  0  1.000846  0  0  0.092947  0.063944  0  1.002911  0
H  H23  1  0.61158441  0.72114046  0.07793538  1  0  0.047639  0  0.936578  0  0  0.064418  0  1.001721  0  0  0.065107  0  1.00062  0  0  0.092852  0.063774  0  1.002688  0
H  H24  1  0.45261938  0.06581095  0.28407053  1  0  0.055851  0  0.920446  0  0  0.07468  0  0.980333  0  0  0.0752  0  0.980171  0  0  0.093891  0.074184  0  0.980609  0
H  H25  1  0.04738532  0.93419291  0.78406005  1  0  0.055696  0  0.920023  0  0  0.074481  0  0.979983  0  0  0.075002  0  0.979818  0  0  0.093802  0.073984  0  0.98026  0
H  H26  1  0.54739061  0.56579181  0.21593540  1  0  0.055803  0  0.920484  0  0  0.074638  0  0.980358  0  0  0.075159  0  0.980194  0  0  0.093899  0.074142  0  0.980637  0
H  H27  1  0.95260519  0.43418217  0.71593641  1  0  0.055862  0  0.920424  0  0  0.074658  0  0.980325  0  0  0.075177  0  0.980166  0  0  0.093882  0.07416  0  0.980601  0
H  H28  1  0.43118464  0.86582328  0.23165470  1  0  0.066165  0  0.942864  0  0  0.082627  0  1.006023  0  0  0.082992  0  1.006436  0  0  0.100251  0.082274  0  1.005832  0
H  H29  1  0.06882789  0.13418374  0.73164315  1  0  0.066125  0  0.942812  0  0  0.082571  0  1.005989  0  0  0.082938  0  1.0064  0  0  0.100267  0.082216  0  1.005802  0
H  H30  1  0.56882850  0.36581004  0.26834925  1  0  0.066115  0  0.942877  0  0  0.082544  0  1.006103  0  0  0.082908  0  1.006521  0  0  0.100247  0.082191  0  1.005919  0
H  H31  1  0.93115687  0.63416724  0.76834927  1  0  0.06611  0  0.942931  0  0  0.082598  0  1.006051  0  0  0.082967  0  1.006458  0  0  0.100248  0.082245  0  1.005861  0
H  H32  1  0.71223392  0.86973293  0.32467381  1  0  0.251827  0  0.992263  0  0  0.234917  0  1.067304  0  0  0.241883  0  1.062291  0  0  0.270626  0.229946  0  1.070937  0
H  H33  1  0.78777621  0.13025806  0.82467237  1  0  0.25186  0  0.99206  0  0  0.234898  0  1.06719  0  0  0.241866  0  1.062172  0  0  0.270648  0.229928  0  1.070821  0
H  H34  1  0.28777792  0.36972443  0.17532714  1  0  0.25187  0  0.992236  0  0  0.234976  0  1.067253  0  0  0.241942  0  1.062238  0  0  0.270654  0.230006  0  1.070884  0
H  H35  1  0.21220985  0.63025853  0.67531823  1  0  0.251857  0  0.991952  0  0  0.234897  0  1.067097  0  0  0.241869  0  1.062072  0  0  0.270611  0.229924  0  1.070729  0
H  H36  1  0.09697985  0.65936817  0.05628701  1  0  0.059727  0  0.966454  0  0  0.074091  0  1.037918  0  0  0.074424  0  1.038013  0  0  0.094754  0.073741  0  1.037947  0
H  H37  1  0.40299124  0.34064422  0.55631270  1  0  0.059842  0  0.966317  0  0  0.074091  0  1.037881  0  0  0.074424  0  1.037979  0  0  0.094723  0.073744  0  1.037896  0
H  H38  1  0.90300417  0.15935011  0.44370840  1  0  0.059665  0  0.966492  0  0  0.074024  0  1.037936  0  0  0.07435  0  1.038045  0  0  0.094714  0.073674  0  1.037958  0
H  H39  1  0.59700565  0.84064122  0.94369488  1  0  0.059805  0  0.966403  0  0  0.074041  0  1.037935  0  0  0.074369  0  1.038045  0  0  0.094708  0.073689  0  1.037956  0
H  H40  1  0.31511494  0.72259243  0.07949143  1  0  0.050058  0  0.923184  0  0  0.069857  0  0.980603  0  0  0.070255  0  0.980761  0  0  0.093689  0.069344  0  0.980851  0
H  H41  1  0.18486081  0.27740346  0.57951703  1  0  0.050122  0  0.923333  0  0  0.069975  0  0.980575  0  0  0.070378  0  0.980726  0  0  0.093655  0.069405  0  0.980892  0
H  H42  1  0.68486527  0.22258016  0.42049696  1  0  0.049942  0  0.923086  0  0  0.069747  0  0.980529  0  0  0.07015  0  0.980669  0  0  0.093612  0.069203  0  0.980811  0
H  H43  1  0.81513858  0.77740956  0.92049094  1  0  0.050075  0  0.923401  0  0  0.069913  0  0.980639  0  0  0.07032  0  0.980783  0  0  0.093625  0.069351  0  0.980938  0
C  C44  1  0.19506790  0.05558143  0.02747829  1  0  0.440711  0  3.871421  0  0  0.402262  0  4.159884  0  0  0.428146  0  4.168446  0  0  0.220278  0.384856  0  4.153432  0
C  C45  1  0.30493004  0.94441763  0.52749279  1  0  0.440879  0  3.871825  0  0  0.40237  0  4.160392  0  0  0.428244  0  4.168941  0  0  0.220332  0.384962  0  4.153944  0
C  C46  1  0.80494469  0.55556363  0.47251495  1  0  0.44082  0  3.871185  0  0  0.402365  0  4.159682  0  0  0.428237  0  4.168243  0  0  0.220479  0.384968  0  4.153216  0
C  C47  1  0.69508010  0.44442679  0.97251455  1  0  0.440718  0  3.871711  0  0  0.402233  0  4.160259  0  0  0.428093  0  4.168813  0  0  0.220268  0.38483  0  4.153802  0
C  C48  1  0.56662739  0.07098352  0.16208559  1  0  0.030728  0  3.649066  0  0  -0.026819  0  3.912763  0  0  -0.02219  0  3.925134  0  0  -0.072108  -0.029829  0  3.90427  0
C  C49  1  0.93338935  0.92903373  0.66206973  1  0  0.030032  0  3.64969  0  0  -0.027566  0  3.913488  0  0  -0.02293  0  3.925843  0  0  -0.07242  -0.030574  0  3.905  0
C  C50  1  0.43339176  0.57096716  0.33791916  1  0  0.030363  0  3.649396  0  0  -0.027051  0  3.913  0  0  -0.022424  0  3.925375  0  0  -0.072165  -0.030053  0  3.904504  0
C  C51  1  0.06660377  0.42902579  0.83791767  1  0  0.03042  0  3.649413  0  0  -0.027158  0  3.913202  0  0  -0.022527  0  3.925573  0  0  -0.072255  -0.03016  0  3.904704  0
C  C52  1  0.81195745  0.03370971  0.23621997  1  0  0.4344  0  3.891898  0  0  0.395742  0  4.178922  0  0  0.422101  0  4.186807  0  0  0.215634  0.377996  0  4.1729  0
C  C53  1  0.68805355  0.96630855  0.73622018  1  0  0.43394  0  3.892765  0  0  0.395296  0  4.179733  0  0  0.421652  0  4.187619  0  0  0.215544  0.377556  0  4.173704  0
C  C54  1  0.18805118  0.53369322  0.26378766  1  0  0.434375  0  3.892255  0  0  0.395726  0  4.179294  0  0  0.422085  0  4.187174  0  0  0.215653  0.377993  0  4.173257  0
C  C55  1  0.31194356  0.46630647  0.76377638  1  0  0.434186  0  3.892506  0  0  0.395527  0  4.179505  0  0  0.421882  0  4.187387  0  0  0.215548  0.377783  0  4.173489  0
C  C56  1  0.22856000  0.80583603  0.95907816  1  0  0.029879  0  3.638183  0  0  -0.024163  0  3.900734  0  0  -0.019656  0  3.912377  0  0  -0.069128  -0.027036  0  3.892665  0
C  C57  1  0.27143517  0.19420258  0.45910404  1  0  0.029962  0  3.638013  0  0  -0.024011  0  3.900405  0  0  -0.019489  0  3.912029  0  0  -0.069067  -0.026878  0  3.892318  0
C  C58  1  0.77144597  0.30579413  0.54092208  1  0  0.02996  0  3.637549  0  0  -0.024359  0  3.90034  0  0  -0.019843  0  3.911962  0  0  -0.069245  -0.027233  0  3.89228  0
C  C59  1  0.72857243  0.69419429  0.04090535  1  0  0.02993  0  3.638214  0  0  -0.024052  0  3.900601  0  0  -0.019537  0  3.912237  0  0  -0.06908  -0.026925  0  3.892525  0
C  C60  1  0.51728840  0.97761073  0.24085479  1  0  0.037894  0  3.602512  0  0  -0.018502  0  3.863236  0  0  -0.014192  0  3.873351  0  0  -0.060875  -0.021293  0  3.856248  0
C  C61  1  0.98270549  0.02240630  0.74084035  1  0  0.038262  0  3.601995  0  0  -0.018066  0  3.862621  0  0  -0.013762  0  3.872731  0  0  -0.060756  -0.020854  0  3.855638  0
C  C62  1  0.48272886  0.47760110  0.25915074  1  0  0.03812  0  3.602178  0  0  -0.018246  0  3.862816  0  0  -0.013939  0  3.872936  0  0  -0.060889  -0.021034  0  3.855835  0
C  C63  1  0.01726600  0.52238170  0.75915047  1  0  0.037995  0  3.602375  0  0  -0.018351  0  3.862962  0  0  -0.014045  0  3.873072  0  0  -0.06083  -0.021136  0  3.855974  0
C  C64  1  0.19411553  0.76203976  0.04805922  1  0  0.042161  0  3.608002  0  0  -0.014605  0  3.8667  0  0  -0.010516  0  3.877881  0  0  -0.060951  -0.017208  0  3.858924  0
C  C65  1  0.30585576  0.23797252  0.54807611  1  0  0.041917  0  3.607918  0  0  -0.01471  0  3.866434  0  0  -0.01063  0  3.877599  0  0  -0.060961  -0.017276  0  3.858653  0
C  C66  1  0.80588828  0.26204106  0.45193895  1  0  0.042256  0  3.608041  0  0  -0.014416  0  3.866754  0  0  -0.010338  0  3.877938  0  0  -0.060837  -0.016992  0  3.858978  0
C  C67  1  0.69413833  0.73796591  0.95192570  1  0  0.041926  0  3.608196  0  0  -0.014603  0  3.866578  0  0  -0.010533  0  3.877741  0  0  -0.060894  -0.017166  0  3.858797  0
S  S68  1  0.19553965  0.27575348  0.04725038  1  0  -0.476649  0  2.090338  0  0  -0.431519  0  2.451764  0  0  -0.449486  0  2.439818  0  0  -0.198247  -0.418839  0  2.459595  0
S  S69  1  0.30447479  0.72426396  0.54724966  1  0  -0.476579  0  2.090722  0  0  -0.431404  0  2.452182  0  0  -0.449368  0  2.440236  0  0  -0.198174  -0.418713  0  2.459994  0
S  S70  1  0.80447594  0.77573930  0.45274904  1  0  -0.476675  0  2.090334  0  0  -0.431516  0  2.451735  0  0  -0.449485  0  2.439795  0  0  -0.198238  -0.418825  0  2.459532  0
S  S71  1  0.69553104  0.22425733  0.95275029  1  0  -0.476591  0  2.090329  0  0  -0.431427  0  2.451782  0  0  -0.449388  0  2.439834  0  0  -0.198232  -0.418743  0  2.459604  0
S  S72  1  0.02637433  0.05576801  0.26637163  1  0  -0.481761  0  2.108311  0  0  -0.442117  0  2.476795  0  0  -0.460316  0  2.465326  0  0  -0.20348  -0.429259  0  2.484267  0
S  S73  1  0.47364779  0.94421749  0.76637486  1  0  -0.481619  0  2.108592  0  0  -0.441965  0  2.477045  0  0  -0.460156  0  2.465588  0  0  -0.203399  -0.429111  0  2.484511  0
S  S74  1  0.97364087  0.55575240  0.23363849  1  0  -0.481689  0  2.108551  0  0  -0.442054  0  2.477046  0  0  -0.460252  0  2.465574  0  0  -0.203438  -0.429206  0  2.484513  0
S  S75  1  0.52634536  0.44422829  0.73362465  1  0  -0.48167  0  2.108731  0  0  -0.44201  0  2.477222  0  0  -0.4602  0  2.465753  0  0  -0.20341  -0.429153  0  2.484693  0
N  N76  1  0.74846551  0.12596429  0.17568624  1  0  -0.513409  0  3.126567  0  0  -0.424898  0  3.417294  0  0  -0.451006  0  3.428548  0  0  -0.417721  -0.407141  0  3.409181  0
N  N77  1  0.75154174  0.87404538  0.67567552  1  0  -0.513043  0  3.126083  0  0  -0.424578  0  3.416839  0  0  -0.450693  0  3.428094  0  0  -0.417605  -0.406819  0  3.408721  0
N  N78  1  0.25154328  0.62594097  0.32432170  1  0  -0.51333  0  3.126806  0  0  -0.42489  0  3.417536  0  0  -0.451  0  3.428794  0  0  -0.417777  -0.407134  0  3.409412  0
N  N79  1  0.24845651  0.37405178  0.82431953  1  0  -0.513391  0  3.12651  0  0  -0.424918  0  3.417285  0  0  -0.451031  0  3.428539  0  0  -0.417757  -0.407157  0  3.40917  0
N  N80  1  0.25924794  0.99402196  0.95942304  1  0  -0.511688  0  3.097419  0  0  -0.426276  0  3.383127  0  0  -0.452163  0  3.395039  0  0  -0.412161  -0.408688  0  3.374565  0
N  N81  1  0.24073808  0.00597911  0.45943822  1  0  -0.51214  0  3.097101  0  0  -0.426773  0  3.382881  0  0  -0.45266  0  3.394777  0  0  -0.412357  -0.409177  0  3.374318  0
N  N82  1  0.74074661  0.49403307  0.54057483  1  0  -0.512153  0  3.096693  0  0  -0.426637  0  3.382477  0  0  -0.452532  0  3.394379  0  0  -0.412325  -0.409051  0  3.373921  0
N  N83  1  0.75927312  0.50598899  0.04056570  1  0  -0.511887  0  3.097453  0  0  -0.426535  0  3.383226  0  0  -0.45242  0  3.395131  0  0  -0.41228  -0.408946  0  3.374668  0
N  N84  1  0.13192686  0.93004769  0.07767027  1  0  -0.430578  0  3.267631  0  0  -0.367682  0  3.510683  0  0  -0.387955  0  3.519851  0  0  -0.4347  -0.353794  0  3.504041  0
N  N85  1  0.36805939  0.06994946  0.57768259  1  0  -0.430742  0  3.267031  0  0  -0.367819  0  3.510095  0  0  -0.388145  0  3.519297  0  0  -0.434699  -0.353913  0  3.503486  0
N  N86  1  0.86807333  0.43003057  0.42232486  1  0  -0.430339  0  3.267576  0  0  -0.367557  0  3.510683  0  0  -0.38779  0  3.519825  0  0  -0.434719  -0.353665  0  3.504049  0
N  N87  1  0.63194486  0.56995140  0.92232045  1  0  -0.430748  0  3.267325  0  0  -0.367904  0  3.510319  0  0  -0.388164  0  3.519505  0  0  -0.434727  -0.353988  0  3.503711  0
N  N88  1  0.69085605  0.92632447  0.26975436  1  0  -0.433265  0  3.30393  0  0  -0.370987  0  3.548015  0  0  -0.391293  0  3.5576  0  0  -0.441524  -0.357048  0  3.541168  0
N  N89  1  0.80914366  0.07368131  0.76973934  1  0  -0.433104  0  3.304467  0  0  -0.370742  0  3.548431  0  0  -0.391035  0  3.558009  0  0  -0.441519  -0.35681  0  3.541582  0
N  N90  1  0.30914935  0.42630640  0.23025100  1  0  -0.433423  0  3.303687  0  0  -0.371154  0  3.54774  0  0  -0.391458  0  3.557316  0  0  -0.441582  -0.357224  0  3.540899  0
N  N91  1  0.19084099  0.57367601  0.73025167  1  0  -0.43314  0  3.303722  0  0  -0.370803  0  3.547725  0  0  -0.391095  0  3.557292  0  0  -0.441438  -0.356869  0  3.540885  0
