# generated using pymatgen
data_AlH11C16N4O7
_symmetry_space_group_name_H-M   'P 1'
_cell_length_a   6.77516749
_cell_length_b   19.85707630
_cell_length_c   23.90477732
_cell_angle_alpha   90.00004443
_cell_angle_beta   90.00114581
_cell_angle_gamma   89.99686739
_symmetry_Int_Tables_number   1
_chemical_formula_structural   AlH11C16N4O7
_chemical_formula_sum   'Al4 H44 C64 N16 O28'
_cell_volume   3216.02963850
_cell_formula_units_Z   4
loop_
 _symmetry_equiv_pos_site_id
 _symmetry_equiv_pos_as_xyz
  1  'x, y, z'
loop_
 _atom_site_type_symbol
 _atom_site_label
 _atom_site_symmetry_multiplicity
 _atom_site_fract_x
 _atom_site_fract_y
 _atom_site_fract_z
 _atom_site_occupancy
 _atom_site_pbe_bader_charge
 _atom_site_pbe_bader_spin_density
 _atom_site_pbe_cm5_charge
 _atom_site_pbe_ddec_charge
 _atom_site_pbe_ddec_spin_density
 _atom_site_pbe_ddec_sum_bond_order
 _atom_site_pbe_magmom
Al  Al0  1  0.86148286  0.75041787  0.75040856  1  2.502444  0  0.404971  1.639681  0  2.575305  0
Al  Al1  1  0.13851018  0.24958813  0.25040896  1  2.502948  0  0.40501  1.639457  0  2.575715  0
Al  Al2  1  0.36148616  0.74957575  0.74959165  1  2.50237  0  0.404946  1.639555  0  2.575666  0
Al  Al3  1  0.63850972  0.25042518  0.24958854  1  2.502356  0  0.404931  1.639529  0  2.575584  0
H  H4  1  0.27544439  0.59965704  0.42510470  1  0.43174  0  0.302254  0.300009  0  0.946279  0
H  H5  1  0.28064844  0.63023550  0.49026204  1  0.446513  0  0.299194  0.29427  0  0.963746  0
H  H6  1  0.79460621  0.38730579  0.59033807  1  0.398115  0  0.297701  0.293431  0  0.942683  0
H  H7  1  0.66684110  0.37826710  0.53062503  1  0.462171  0  0.295062  0.298383  0  0.97533  0
H  H8  1  0.72453703  0.40035011  0.92510198  1  0.431631  0  0.302248  0.300027  0  0.94633  0
H  H9  1  0.71934536  0.36976237  0.99025458  1  0.446638  0  0.29922  0.294274  0  0.96368  0
H  H10  1  0.20541238  0.61268397  0.09033759  1  0.398145  0  0.297859  0.293661  0  0.942507  0
H  H11  1  0.33317476  0.62172960  0.03062680  1  0.463751  0  0.295023  0.298356  0  0.975272  0
H  H12  1  0.77540341  0.90032813  0.07490672  1  0.431943  0  0.302332  0.300124  0  0.946015  0
H  H13  1  0.78069800  0.86976638  0.00974562  1  0.446611  0  0.299136  0.294162  0  0.963738  0
H  H14  1  0.29457130  0.11269187  0.90966201  1  0.398119  0  0.297774  0.293519  0  0.942638  0
H  H15  1  0.16677963  0.12172845  0.96937049  1  0.46391  0  0.295086  0.298365  0  0.975266  0
H  H16  1  0.22471775  0.09970791  0.57491319  1  0.432886  0  0.302344  0.30033  0  0.945751  0
H  H17  1  0.21928385  0.13023916  0.50974176  1  0.446244  0  0.299259  0.294283  0  0.963745  0
H  H18  1  0.70544035  0.88730516  0.40966883  1  0.398406  0  0.29777  0.29347  0  0.94264  0
H  H19  1  0.83320672  0.87827975  0.46938000  1  0.463446  0  0.295034  0.298359  0  0.975267  0
H  H20  1  0.80299759  0.60583852  0.41274301  1  0.419625  0  0.290395  0.282965  0  0.961803  0
H  H21  1  0.79187990  0.53124382  0.38119160  1  0.413575  0  0.289763  0.28002  0  0.970328  0
H  H22  1  0.37069687  0.44543392  0.57815998  1  0.449443  0  0.28555  0.28121  0  1.006676  0
H  H23  1  0.18600241  0.44723626  0.62300792  1  0.417175  0  0.29846  0.293464  0  0.935533  0
H  H24  1  0.19701894  0.39415459  0.91274560  1  0.419569  0  0.29035  0.282864  0  0.961819  0
H  H25  1  0.20811140  0.46874766  0.88118954  1  0.41096  0  0.289768  0.279983  0  0.97034  0
H  H26  1  0.62928307  0.55460576  0.07811595  1  0.449432  0  0.285628  0.281142  0  1.006675  0
H  H27  1  0.81387183  0.55270681  0.12300279  1  0.417376  0  0.29836  0.293439  0  0.93537  0
H  H28  1  0.30301638  0.89416413  0.08726129  1  0.398287  0  0.290457  0.28291  0  0.961866  0
H  H29  1  0.29192059  0.96875768  0.11881479  1  0.413468  0  0.289738  0.279877  0  0.970541  0
H  H30  1  0.87064072  0.05454720  0.92182670  1  0.450075  0  0.285597  0.281121  0  1.006851  0
H  H31  1  0.68590520  0.05275981  0.87698885  1  0.418465  0  0.298473  0.293458  0  0.935553  0
H  H32  1  0.69700030  0.10583911  0.58725660  1  0.419484  0  0.290426  0.282934  0  0.961836  0
H  H33  1  0.70807555  0.03124567  0.61881350  1  0.413476  0  0.289746  0.279907  0  0.970366  0
H  H34  1  0.12939041  0.94552529  0.42175327  1  0.449234  0  0.285542  0.281268  0  1.006785  0
H  H35  1  0.31432459  0.94714389  0.37698184  1  0.418493  0  0.298593  0.293604  0  0.935531  0
H  H36  1  0.32864006  0.41939860  0.41303639  1  0.065653  0  0.111349  0.053996  0  0.955679  0
H  H37  1  0.52841793  0.57170984  0.52990915  1  0.055818  0  0.092335  0.018557  0  1.002028  0
H  H38  1  0.67136471  0.58061517  0.91304290  1  0.065445  0  0.111239  0.053843  0  0.955953  0
H  H39  1  0.47159783  0.42828583  0.02991536  1  0.056102  0  0.092351  0.018673  0  1.001873  0
H  H40  1  0.82864203  0.08058675  0.08696357  1  0.065763  0  0.111273  0.053881  0  0.955717  0
H  H41  1  0.02842438  0.92828565  0.97010748  1  0.055516  0  0.09225  0.018611  0  1.001915  0
H  H42  1  0.17131852  0.91946634  0.58697452  1  0.066471  0  0.111299  0.053907  0  0.955556  0
H  H43  1  0.97156650  0.07170345  0.47011552  1  0.055585  0  0.092339  0.01869  0  1.001951  0
H  H44  1  0.61326604  0.66701610  0.72742503  1  0.634145  0  0.354426  0.434612  0  0.848304  0
H  H45  1  0.38673991  0.33298858  0.22741800  1  0.633858  0  0.354435  0.434598  0  0.848144  0
H  H46  1  0.11323701  0.83297880  0.77257525  1  0.631626  0  0.354446  0.434631  0  0.8482  0
H  H47  1  0.88676514  0.16702244  0.27257526  1  0.631664  0  0.354478  0.434632  0  0.848075  0
C  C48  1  0.61205251  0.83015000  0.67430448  1  1.645857  0  0.271282  0.7144  0  4.172843  0
C  C49  1  0.38922231  0.17304123  0.32742120  1  1.674148  0  0.278507  0.723371  0  4.153464  0
C  C50  1  0.38794576  0.16984122  0.17431251  1  1.645864  0  0.271205  0.7144  0  4.17252  0
C  C51  1  0.61075973  0.82696900  0.82742119  1  1.673898  0  0.278358  0.723172  0  4.153295  0
C  C52  1  0.11208899  0.66983694  0.82569413  1  1.644834  0  0.271306  0.714796  0  4.172412  0
C  C53  1  0.88923169  0.32696758  0.17256996  1  1.674043  0  0.278583  0.72359  0  4.153217  0
C  C54  1  0.88789724  0.33017323  0.32568284  1  1.645021  0  0.271259  0.714813  0  4.172174  0
C  C55  1  0.11078551  0.67302055  0.67258077  1  1.674014  0  0.278185  0.722924  0  4.154056  0
C  C56  1  0.88214408  0.52731517  0.46197633  1  0.454233  0  0.096994  0.18513  0  3.759917  0
C  C57  1  0.10650819  0.46612493  0.54320359  1  0.455357  0  0.111064  0.205807  0  3.750407  0
C  C58  1  0.11785891  0.47267817  0.96197545  1  0.454192  0  0.097086  0.185206  0  3.759993  0
C  C59  1  0.89351392  0.53387172  0.04320221  1  0.454542  0  0.111068  0.205671  0  3.750414  0
C  C60  1  0.38215380  0.97268331  0.03802712  1  0.454388  0  0.097175  0.185387  0  3.760269  0
C  C61  1  0.60647198  0.03387031  0.95679655  1  0.454108  0  0.111185  0.205958  0  3.750152  0
C  C62  1  0.61783214  0.02731668  0.53802552  1  0.454603  0  0.09707  0.18514  0  3.760178  0
C  C63  1  0.39350222  0.96612939  0.45679453  1  0.454593  0  0.111159  0.206014  0  3.750207  0
C  C64  1  0.09708098  0.54988526  0.48072138  1  0.478368  0  0.112917  0.198894  0  3.746107  0
C  C65  1  0.89214998  0.44368022  0.52562566  1  0.507785  0  0.116766  0.207712  0  3.734103  0
C  C66  1  0.90292620  0.45011176  0.98071746  1  0.478254  0  0.112794  0.198592  0  3.746442  0
C  C67  1  0.10786516  0.55631580  0.02562357  1  0.507712  0  0.11677  0.207739  0  3.734077  0
C  C68  1  0.59708339  0.95011184  0.01928256  1  0.478215  0  0.112744  0.198626  0  3.746313  0
C  C69  1  0.39211939  0.05631836  0.97437566  1  0.507956  0  0.116861  0.207662  0  3.734159  0
C  C70  1  0.40291312  0.04989857  0.51927548  1  0.478579  0  0.112952  0.199063  0  3.745355  0
C  C71  1  0.60785144  0.94368247  0.47437493  1  0.507977  0  0.116709  0.207526  0  3.734024  0
C  C72  1  0.10250730  0.62832413  0.62540536  1  0.173917  0  -0.040755  -0.204702  0  3.955448  0
C  C73  1  0.89178560  0.37237553  0.37484700  1  0.103097  0  -0.043257  -0.207603  0  3.956337  0
C  C74  1  0.89750161  0.37167089  0.12539561  1  0.174228  0  -0.040973  -0.205146  0  3.955983  0
C  C75  1  0.10821512  0.62763235  0.87484798  1  0.103109  0  -0.043116  -0.207455  0  3.955958  0
C  C76  1  0.60249076  0.87166959  0.87459869  1  0.173953  0  -0.04078  -0.204772  0  3.955347  0
C  C77  1  0.39180629  0.12764063  0.12515169  1  0.100954  0  -0.043293  -0.207642  0  3.956501  0
C  C78  1  0.39750992  0.12833576  0.37459387  1  0.173348  0  -0.040717  -0.20483  0  3.95548  0
C  C79  1  0.60814502  0.87234985  0.62514520  1  0.099093  0  -0.043408  -0.207651  0  3.956547  0
C  C80  1  0.81973446  0.52188791  0.52489813  1  -0.035571  0  -0.017868  -0.125034  0  3.691685  0
C  C81  1  0.16440696  0.47012415  0.48011321  1  -0.083808  0  -0.015168  -0.127158  0  3.721336  0
C  C82  1  0.18027024  0.47810708  0.02489658  1  -0.035447  0  -0.01792  -0.125325  0  3.692215  0
C  C83  1  0.83561489  0.52987285  0.98010746  1  -0.083412  0  -0.015057  -0.126705  0  3.720889  0
C  C84  1  0.31971781  0.97810897  0.97510837  1  -0.03554  0  -0.017955  -0.125387  0  3.692106  0
C  C85  1  0.66439469  0.02987153  0.01988931  1  -0.08342  0  -0.015071  -0.12685  0  3.721056  0
C  C86  1  0.68027084  0.02188886  0.47510803  1  -0.035736  0  -0.017903  -0.125211  0  3.691791  0
C  C87  1  0.33557091  0.97013638  0.51988188  1  -0.084205  0  -0.015046  -0.127029  0  3.720901  0
C  C88  1  0.03446604  0.54367441  0.54342650  1  0.090904  0  0.002219  -0.005547  0  3.84971  0
C  C89  1  0.94902645  0.45122229  0.46164253  1  0.138225  0  0.008337  0.011329  0  3.839462  0
C  C90  1  0.96554429  0.45632325  0.04342356  1  0.09138  0  0.00228  -0.005146  0  3.849258  0
C  C91  1  0.05097206  0.54877305  0.96164075  1  0.138063  0  0.008265  0.011163  0  3.839873  0
C  C92  1  0.53445272  0.95632212  0.95657840  1  0.091514  0  0.002213  -0.005128  0  3.849057  0
C  C93  1  0.44902312  0.04877933  0.03835949  1  0.138188  0  0.008274  0.011155  0  3.839536  0
C  C94  1  0.46554358  0.04367909  0.45657469  1  0.091283  0  0.00221  -0.005453  0  3.849391  0
C  C95  1  0.55094220  0.95122269  0.53835955  1  0.138961  0  0.008267  0.011277  0  3.839016  0
C  C96  1  0.07542095  0.59027207  0.58613750  1  -0.448254  0  -0.028015  -0.009638  0  4.105436  0
C  C97  1  0.91047765  0.40715307  0.41648429  1  -0.375711  0  -0.026408  -0.011605  0  4.097173  0
C  C98  1  0.92459113  0.40972207  0.08613649  1  -0.448571  0  -0.027895  -0.009473  0  4.105718  0
C  C99  1  0.08951875  0.59283917  0.91648734  1  -0.375493  0  -0.026466  -0.011703  0  4.096815  0
C  C100  1  0.57540722  0.90971824  0.91386488  1  -0.447877  0  -0.028087  -0.009816  0  4.105318  0
C  C101  1  0.41047862  0.09285257  0.08351690  1  -0.373859  0  -0.026379  -0.011543  0  4.096905  0
C  C102  1  0.42459323  0.09028297  0.41386219  1  -0.447659  0  -0.028154  -0.009717  0  4.105485  0
C  C103  1  0.58948290  0.90714701  0.58351462  1  -0.37298  0  -0.02631  -0.011518  0  4.096829  0
C  C104  1  0.34264681  0.44238607  0.45536448  1  0.918955  0  0.099182  0.284578  0  3.95121  0
C  C105  1  0.63978892  0.54246899  0.55416989  1  0.915444  0  0.090191  0.30481  0  3.986156  0
C  C106  1  0.65736407  0.55761710  0.95536567  1  0.91915  0  0.099184  0.284536  0  3.951435  0
C  C107  1  0.36021559  0.45752855  0.05416835  1  0.914973  0  0.090178  0.304831  0  3.986398  0
C  C108  1  0.84264344  0.05760422  0.04463422  1  0.919309  0  0.099157  0.284432  0  3.951363  0
C  C109  1  0.13977409  0.95752434  0.94584168  1  0.915967  0  0.0904  0.304903  0  3.986069  0
C  C110  1  0.15731689  0.94242068  0.54463460  1  0.917997  0  0.099212  0.284668  0  3.951156  0
C  C111  1  0.86023394  0.04246339  0.44584541  1  0.915946  0  0.090343  0.30478  0  3.986048  0
N  N112  1  0.19646714  0.60674539  0.46082971  1  -1.217697  0  -0.605718  -0.638091  0  3.296527  0
N  N113  1  0.80260130  0.38640781  0.54777128  1  -1.168357  0  -0.609843  -0.625728  0  3.272292  0
N  N114  1  0.80352387  0.39325698  0.96082587  1  -1.217711  0  -0.605662  -0.638043  0  3.296655  0
N  N115  1  0.19741704  0.61358497  0.04777203  1  -1.169836  0  -0.609952  -0.625917  0  3.272044  0
N  N116  1  0.69647017  0.89324797  0.03917169  1  -1.218097  0  -0.605664  -0.638047  0  3.296339  0
N  N117  1  0.30255072  0.11358972  0.95222881  1  -1.170191  0  -0.610038  -0.625852  0  3.272209  0
N  N118  1  0.30357497  0.10677170  0.53916292  1  -1.218748  0  -0.605831  -0.638413  0  3.29596  0
N  N119  1  0.69743167  0.88640730  0.45223481  1  -1.169947  0  -0.609892  -0.625688  0  3.271898  0
N  N120  1  0.76920410  0.55612314  0.41803165  1  -1.171436  0  -0.613525  -0.634057  0  3.241879  0
N  N121  1  0.22483608  0.43388867  0.58325368  1  -1.168513  0  -0.615532  -0.629233  0  3.240356  0
N  N122  1  0.23079843  0.44387166  0.91803058  1  -1.169043  0  -0.613529  -0.633918  0  3.241788  0
N  N123  1  0.77516377  0.56610184  0.08324908  1  -1.168422  0  -0.615489  -0.629087  0  3.240205  0
N  N124  1  0.26923073  0.94388215  0.08197475  1  -1.150127  0  -0.613652  -0.633943  0  3.242361  0
N  N125  1  0.72477735  0.06610336  0.91674099  1  -1.170036  0  -0.615641  -0.629183  0  3.240559  0
N  N126  1  0.73076452  0.05611889  0.58197204  1  -1.171382  0  -0.613585  -0.633896  0  3.242175  0
N  N127  1  0.27523090  0.93388636  0.41673598  1  -1.169201  0  -0.615732  -0.629606  0  3.240332  0
O  O128  1  0.44379697  0.80930843  0.80768938  1  -1.235508  0  -0.225354  -0.582646  0  2.291309  0
O  O129  1  0.55690529  0.18648040  0.19326666  1  -1.228579  0  -0.231054  -0.586056  0  2.290938  0
O  O130  1  0.55617336  0.19068448  0.30767638  1  -1.235166  0  -0.225345  -0.582811  0  2.291849  0
O  O131  1  0.44310310  0.81352962  0.69327371  1  -1.228362  0  -0.231077  -0.586117  0  2.290869  0
O  O132  1  0.94380709  0.69068429  0.69231081  1  -1.235261  0  -0.225316  -0.582694  0  2.291553  0
O  O133  1  0.05683452  0.31357152  0.30669573  1  -1.227793  0  -0.231145  -0.586371  0  2.290865  0
O  O134  1  0.05620263  0.30928642  0.19228601  1  -1.235703  0  -0.225569  -0.582876  0  2.291435  0
O  O135  1  0.94315191  0.68646215  0.80671895  1  -1.228026  0  -0.231226  -0.586452  0  2.29119  0
O  O136  1  0.78077766  0.81465254  0.69394004  1  -1.234168  0  -0.23204  -0.584813  0  2.281425  0
O  O137  1  0.21978910  0.19029730  0.30926524  1  -1.246113  0  -0.227902  -0.585317  0  2.283016  0
O  O138  1  0.21922640  0.18532376  0.19396366  1  -1.234747  0  -0.232054  -0.5848  0  2.281192  0
O  O139  1  0.78018442  0.80973495  0.80924843  1  -1.245518  0  -0.227682  -0.585277  0  2.283189  0
O  O140  1  0.28082708  0.68533882  0.80606062  1  -1.234303  0  -0.23211  -0.584957  0  2.280968  0
O  O141  1  0.71982162  0.30975044  0.19075776  1  -1.245376  0  -0.227715  -0.585354  0  2.28317  0
O  O142  1  0.71915188  0.31466008  0.30606395  1  -1.234606  0  -0.232025  -0.584931  0  2.281296  0
O  O143  1  0.28019231  0.69025193  0.69075641  1  -1.24577  0  -0.227653  -0.585118  0  2.283309  0
O  O144  1  0.61188604  0.70921910  0.74791794  1  -1.434739  0  -0.448039  -0.987371  0  2.154934  0
O  O145  1  0.38810516  0.29078177  0.24790644  1  -1.434343  0  -0.448056  -0.987318  0  2.154868  0
O  O146  1  0.11188350  0.79077137  0.75208904  1  -1.432238  0  -0.448082  -0.987428  0  2.154896  0
O  O147  1  0.88811716  0.20923217  0.25209016  1  -1.432332  0  -0.448118  -0.987335  0  2.154804  0
O  O148  1  0.50461532  0.44416340  0.47915048  1  -1.102778  0  -0.243645  -0.364494  0  2.273602  0
O  O149  1  0.60945252  0.52712085  0.60339705  1  -1.101485  0  -0.28465  -0.397123  0  2.104834  0
O  O150  1  0.49540048  0.55584263  0.97915301  1  -1.102675  0  -0.243569  -0.364422  0  2.273631  0
O  O151  1  0.39053549  0.47287038  0.10339933  1  -1.101421  0  -0.284694  -0.397264  0  2.104908  0
O  O152  1  0.00460308  0.05583369  0.02084414  1  -1.103197  0  -0.243571  -0.364339  0  2.273734  0
O  O153  1  0.10940202  0.97287032  0.89661536  1  -1.101868  0  -0.284743  -0.397199  0  2.104824  0
O  O154  1  0.99535085  0.94419188  0.52084507  1  -1.102455  0  -0.243595  -0.364472  0  2.273656  0
O  O155  1  0.89061218  0.02710761  0.39662153  1  -1.10185  0  -0.284817  -0.397246  0  2.105109  0
