# generated using pymatgen
data_ZnP2H20C7Cl2O9
_symmetry_space_group_name_H-M   'P 1'
_cell_length_a   7.05491073
_cell_length_b   8.92823253
_cell_length_c   14.02666849
_cell_angle_alpha   77.17396857
_cell_angle_beta   87.79723877
_cell_angle_gamma   71.33364686
_symmetry_Int_Tables_number   1
_chemical_formula_structural   ZnP2H20C7Cl2O9
_chemical_formula_sum   'Zn2 P4 H40 C14 Cl4 O18'
_cell_volume   815.64206223
_cell_formula_units_Z   2
loop_
 _symmetry_equiv_pos_site_id
 _symmetry_equiv_pos_as_xyz
  1  'x, y, z'
loop_
 _atom_site_type_symbol
 _atom_site_label
 _atom_site_symmetry_multiplicity
 _atom_site_fract_x
 _atom_site_fract_y
 _atom_site_fract_z
 _atom_site_occupancy
 _atom_site_hle17_bader_spin_density
 _atom_site_hle17_ddec_charge
 _atom_site_hle17_ddec_spin_density
 _atom_site_hle17_ddec_sum_bond_order
 _atom_site_hle17_magmom
 _atom_site_hse06_10hf_bader_spin_density
 _atom_site_hse06_10hf_ddec_charge
 _atom_site_hse06_10hf_ddec_spin_density
 _atom_site_hse06_10hf_ddec_sum_bond_order
 _atom_site_hse06_10hf_magmom
 _atom_site_hse06_bader_spin_density
 _atom_site_hse06_ddec_charge
 _atom_site_hse06_ddec_spin_density
 _atom_site_hse06_ddec_sum_bond_order
 _atom_site_hse06_magmom
 _atom_site_pbe_bader_spin_density
 _atom_site_pbe_cm5_charge
 _atom_site_pbe_ddec_charge
 _atom_site_pbe_ddec_spin_density
 _atom_site_pbe_ddec_sum_bond_order
 _atom_site_pbe_magmom
Zn  Zn0  1  0.78043087  0.20766236  0.07519243  1  0  1.305096  0  1.626077  0  0  1.146049  0  2.091378  0  0  1.189339  0  2.027571  0  0  0.710836  1.114828  0  2.13609  0
Zn  Zn1  1  0.21956347  0.79233592  0.92480573  1  0  1.305161  0  1.625948  0  0  1.146105  0  2.091241  0  0  1.189388  0  2.027428  0  0  0.710878  1.114882  0  2.135952  0
P  P2  1  0.36773215  0.29520093  0.19734946  1  0  1.405224  0  4.887675  0  0  1.228002  0  5.403596  0  0  1.28021  0  5.365079  0  0  0.360601  1.191417  0  5.429846  0
P  P3  1  0.63226741  0.70479860  0.80264902  1  0  1.405272  0  4.887558  0  0  1.228042  0  5.403521  0  0  1.280251  0  5.364997  0  0  0.360616  1.191453  0  5.429775  0
P  P4  1  0.23538940  0.99272702  0.18544922  1  0  1.390643  0  4.894648  0  0  1.211362  0  5.411902  0  0  1.26333  0  5.373604  0  0  0.359896  1.175002  0  5.4378  0
P  P5  1  0.76463020  0.00726534  0.81455176  1  0  1.390769  0  4.894575  0  0  1.211474  0  5.411831  0  0  1.263436  0  5.37353  0  0  0.35996  1.17512  0  5.437724  0
H  H6  1  0.63266809  0.95945173  0.09226198  1  0  0.451898  0  0.837283  0  0  0.420719  0  0.899006  0  0  0.431161  0  0.883979  0  0  0.299811  0.413398  0  0.909474  0
H  H7  1  0.36732873  0.04054779  0.90773803  1  0  0.451843  0  0.837364  0  0  0.420683  0  0.899057  0  0  0.431121  0  0.884035  0  0  0.299819  0.413364  0  0.909521  0
H  H8  1  0.79408917  0.94560557  0.00588080  1  0  0.432127  0  0.863342  0  0  0.403094  0  0.923217  0  0  0.412974  0  0.908642  0  0  0.299935  0.396182  0  0.933335  0
H  H9  1  0.20591284  0.05439520  0.99411884  1  0  0.432112  0  0.863358  0  0  0.403058  0  0.923261  0  0  0.412954  0  0.908672  0  0  0.299913  0.396148  0  0.933378  0
H  H10  1  0.96704390  0.41463587  0.09428989  1  0  0.436361  0  0.858551  0  0  0.403402  0  0.924847  0  0  0.413492  0  0.910251  0  0  0.292813  0.396272  0  0.935091  0
H  H11  1  0.03295943  0.58536123  0.90570812  1  0  0.436464  0  0.858412  0  0  0.403526  0  0.924695  0  0  0.413616  0  0.910096  0  0  0.292828  0.396394  0  0.934943  0
H  H12  1  0.79013450  0.50769909  0.01401532  1  0  0.443887  0  0.84572  0  0  0.41611  0  0.902207  0  0  0.426011  0  0.887842  0  0  0.299874  0.409326  0  0.911919  0
H  H13  1  0.20987196  0.49230043  0.98598006  1  0  0.44382  0  0.845828  0  0  0.416053  0  0.902304  0  0  0.425951  0  0.887942  0  0  0.299854  0.409269  0  0.912016  0
H  H14  1  0.60977281  0.24232598  0.90092081  1  0  0.448307  0  0.842628  0  0  0.41624  0  0.906066  0  0  0.427028  0  0.890427  0  0  0.303664  0.408589  0  0.917218  0
H  H15  1  0.39021527  0.75767112  0.09908275  1  0  0.448369  0  0.842536  0  0  0.416327  0  0.905951  0  0  0.4271  0  0.890324  0  0  0.303663  0.408674  0  0.917106  0
H  H16  1  0.69254996  0.39459292  0.89719964  1  0  0.440881  0  0.834746  0  0  0.410777  0  0.903076  0  0  0.42063  0  0.888545  0  0  0.312172  0.403458  0  0.914011  0
H  H17  1  0.30743572  0.60540660  0.10280363  1  0  0.440825  0  0.834667  0  0  0.410709  0  0.903151  0  0  0.42056  0  0.888624  0  0  0.312113  0.403393  0  0.914084  0
H  H18  1  0.62032438  0.25889672  0.34646955  1  0  0.015853  0  0.942245  0  0  0.029083  0  1.00447  0  0  0.028978  0  1.004324  0  0  0.094521  0.02924  0  1.004082  0
H  H19  1  0.37967386  0.74110281  0.65353041  1  0  0.015857  0  0.942254  0  0  0.029077  0  1.004481  0  0  0.028972  0  1.004338  0  0  0.094522  0.029235  0  1.004093  0
H  H20  1  0.66054598  0.51497213  0.24897148  1  0  0.122894  0  0.948716  0  0  0.142233  0  1.010394  0  0  0.14427  0  1.009707  0  0  0.089609  0.140631  0  1.011078  0
H  H21  1  0.33945368  0.48502741  0.75102843  1  0  0.122921  0  0.948669  0  0  0.142255  0  1.010354  0  0  0.144294  0  1.009665  0  0  0.089622  0.140655  0  1.011037  0
H  H22  1  0.71424701  0.49499214  0.37479934  1  0  0.102332  0  0.962615  0  0  0.124766  0  1.023204  0  0  0.125243  0  1.024427  0  0  0.086835  0.124288  0  1.022187  0
H  H23  1  0.28575088  0.50500864  0.62520259  1  0  0.10229  0  0.962671  0  0  0.124771  0  1.023198  0  0  0.125248  0  1.024421  0  0  0.086826  0.124294  0  1.02218  0
H  H24  1  0.48000162  0.62935353  0.31995844  1  0  0.123895  0  0.957474  0  0  0.13932  0  1.02664  0  0  0.141808  0  1.025357  0  0  0.089779  0.137612  0  1.027156  0
H  H25  1  0.52000087  0.37064237  0.68004121  1  0  0.123882  0  0.957421  0  0  0.139304  0  1.026603  0  0  0.141794  0  1.025317  0  0  0.089775  0.137599  0  1.027115  0
H  H26  1  0.29433906  0.48128911  0.44989859  1  0  0.106226  0  0.954371  0  0  0.130346  0  1.011054  0  0  0.131745  0  1.010844  0  0  0.088844  0.129252  0  1.011355  0
H  H27  1  0.70565909  0.51871406  0.55010011  1  0  0.106212  0  0.954336  0  0  0.130315  0  1.011045  0  0  0.131715  0  1.010835  0  0  0.088832  0.129223  0  1.011344  0
H  H28  1  0.52213889  0.33779481  0.50573896  1  0  0.110406  0  0.959881  0  0  0.13188  0  1.021951  0  0  0.132505  0  1.02335  0  0  0.089713  0.13168  0  1.02042  0
H  H29  1  0.47785732  0.66220955  0.49425891  1  0  0.110389  0  0.959858  0  0  0.131856  0  1.021941  0  0  0.13248  0  1.023342  0  0  0.089684  0.131655  0  1.020412  0
H  H30  1  0.33888107  0.27017950  0.46089988  1  0  0.094234  0  0.99527  0  0  0.107442  0  1.072181  0  0  0.108992  0  1.071802  0  0  0.07542  0.106386  0  1.072348  0
H  H31  1  0.66111527  0.72982124  0.53909997  1  0  0.094239  0  0.995264  0  0  0.107466  0  1.072156  0  0  0.109014  0  1.071779  0  0  0.075433  0.10641  0  1.07232  0
H  H32  1  0.86432791  0.98191159  0.26138745  1  0  0.023563  0  0.952997  0  0  0.033553  0  1.021977  0  0  0.033746  0  1.021401  0  0  0.097932  0.033593  0  1.021578  0
H  H33  1  0.13566547  0.01809276  0.73861053  1  0  0.02346  0  0.953124  0  0  0.033461  0  1.022113  0  0  0.033641  0  1.021537  0  0  0.097908  0.033499  0  1.021717  0
H  H34  1  0.09018295  0.72877348  0.44066694  1  0  0.103529  0  0.956328  0  0  0.126389  0  1.015915  0  0  0.127965  0  1.01542  0  0  0.085125  0.125207  0  1.016348  0
H  H35  1  0.90982144  0.27123218  0.55933329  1  0  0.10356  0  0.956234  0  0  0.126403  0  1.015842  0  0  0.127981  0  1.015343  0  0  0.085114  0.125221  0  1.016278  0
H  H36  1  0.83334784  0.84718198  0.43571622  1  0  0.102614  0  0.981129  0  0  0.122672  0  1.046885  0  0  0.123647  0  1.04733  0  0  0.080809  0.121901  0  1.04673  0
H  H37  1  0.16665514  0.15282002  0.56428391  1  0  0.102616  0  0.981134  0  0  0.122672  0  1.04691  0  0  0.123642  0  1.047359  0  0  0.0808  0.121918  0  1.046741  0
H  H38  1  0.02045283  0.94343827  0.42599154  1  0  0.098467  0  0.991899  0  0  0.111605  0  1.067465  0  0  0.113261  0  1.067236  0  0  0.075028  0.110371  0  1.067722  0
H  H39  1  0.97954674  0.05656856  0.57400726  1  0  0.098442  0  0.991962  0  0  0.111565  0  1.06753  0  0  0.11322  0  1.0673  0  0  0.075016  0.110333  0  1.067786  0
H  H40  1  0.93233776  0.73731799  0.18760895  1  0  0.120658  0  0.948416  0  0  0.139818  0  1.008792  0  0  0.142706  0  1.006471  0  0  0.088817  0.137708  0  1.010553  0
H  H41  1  0.06766535  0.26267672  0.81239299  1  0  0.120679  0  0.948309  0  0  0.139798  0  1.008733  0  0  0.142687  0  1.006411  0  0  0.088812  0.137692  0  1.010487  0
H  H42  1  0.76006063  0.74236711  0.28236448  1  0  0.114752  0  0.969129  0  0  0.134676  0  1.033503  0  0  0.135321  0  1.035124  0  0  0.08898  0.134035  0  1.032387  0
H  H43  1  0.23994439  0.25763005  0.71763774  1  0  0.114777  0  0.969119  0  0  0.134678  0  1.033523  0  0  0.135325  0  1.035142  0  0  0.088982  0.134035  0  1.032409  0
H  H44  1  0.01299589  0.60926153  0.30556262  1  0  0.11191  0  0.957545  0  0  0.127722  0  1.025835  0  0  0.129701  0  1.02527  0  0  0.083512  0.126836  0  1.024955  0
H  H45  1  0.98700448  0.39074049  0.69444117  1  0  0.111905  0  0.957576  0  0  0.127704  0  1.025856  0  0  0.129684  0  1.025291  0  0  0.083514  0.126816  0  1.024981  0
C  C46  1  0.26672660  0.13106188  0.26167106  1  0  -0.317731  0  3.530317  0  0  -0.275056  0  3.81077  0  0  -0.281628  0  3.813564  0  0  0.035047  -0.270753  0  3.809534  0
C  C47  1  0.73327553  0.86893891  0.73833071  1  0  -0.317763  0  3.530551  0  0  -0.275114  0  3.811059  0  0  -0.281687  0  3.813854  0  0  0.035031  -0.270812  0  3.809821  0
C  C48  1  0.50649035  0.37557433  0.34887771  1  0  0.342899  0  3.576564  0  0  0.322409  0  3.831812  0  0  0.331318  0  3.842369  0  0  0.004978  0.31617  0  3.824376  0
C  C49  1  0.49350793  0.62442521  0.65112296  1  0  0.342836  0  3.576468  0  0  0.322351  0  3.831719  0  0  0.331256  0  3.842282  0  0  0.00496  0.316113  0  3.824281  0
C  C50  1  0.59531047  0.51206399  0.32136676  1  0  -0.374889  0  3.672819  0  0  -0.454707  0  3.914901  0  0  -0.458413  0  3.923614  0  0  -0.258224  -0.452231  0  3.909319  0
C  C51  1  0.40469299  0.48793314  0.67863338  1  0  -0.374831  0  3.672686  0  0  -0.454685  0  3.914782  0  0  -0.458391  0  3.923493  0  0  -0.258209  -0.452209  0  3.909197  0
C  C52  1  0.40933053  0.36557252  0.44718876  1  0  -0.360074  0  3.67947  0  0  -0.442204  0  3.923814  0  0  -0.445602  0  3.933255  0  0  -0.253127  -0.439588  0  3.916809  0
C  C53  1  0.59066679  0.63442579  0.55281142  1  0  -0.360041  0  3.679437  0  0  -0.442161  0  3.923755  0  0  -0.445558  0  3.933198  0  0  -0.253107  -0.439544  0  3.916749  0
C  C54  1  0.97037078  0.86361962  0.29614355  1  0  0.341484  0  3.565225  0  0  0.322516  0  3.818683  0  0  0.331484  0  3.829444  0  0  0.005983  0.31625  0  3.810817  0
C  C55  1  0.02962751  0.13638357  0.70385728  1  0  0.341533  0  3.565386  0  0  0.322548  0  3.818839  0  0  0.331542  0  3.82958  0  0  0.005917  0.316289  0  3.810976  0
C  C56  1  0.98012655  0.84525724  0.40618686  1  0  -0.3654  0  3.69735  0  0  -0.449543  0  3.944495  0  0  -0.452915  0  3.953237  0  0  -0.25753  -0.446853  0  3.938183  0
C  C57  1  0.01987594  0.15474962  0.59381325  1  0  -0.365374  0  3.697339  0  0  -0.449492  0  3.944458  0  0  -0.452878  0  3.953232  0  0  -0.257468  -0.44682  0  3.938128  0
C  C58  1  0.91719770  0.72878861  0.26644593  1  0  -0.356452  0  3.649662  0  0  -0.436178  0  3.889874  0  0  -0.439888  0  3.898209  0  0  -0.256878  -0.433988  0  3.884429  0
C  C59  1  0.08280576  0.27121217  0.73355436  1  0  -0.356445  0  3.649611  0  0  -0.436094  0  3.889817  0  0  -0.439807  0  3.898144  0  0  -0.256858  -0.433907  0  3.884366  0
Cl  Cl60  1  0.02571961  0.22901297  0.30390439  1  0  -0.020498  0  1.423608  0  0  0.00162  0  1.671302  0  0  -0.000949  0  1.66423  0  0  0.047985  0.0032  0  1.67469  0
Cl  Cl61  1  0.97427854  0.77099020  0.69609431  1  0  -0.020463  0  1.423674  0  0  0.001646  0  1.671397  0  0  -0.000925  0  1.664325  0  0  0.047996  0.003226  0  1.674786  0
Cl  Cl62  1  0.43003591  0.00841256  0.36409620  1  0  -0.029615  0  1.395777  0  0  -0.01088  0  1.637711  0  0  -0.012821  0  1.63099  0  0  0.035509  -0.009949  0  1.641511  0
Cl  Cl63  1  0.56996013  0.99158577  0.63590616  1  0  -0.029598  0  1.395757  0  0  -0.010864  0  1.637699  0  0  -0.012803  0  1.630977  0  0  0.035528  -0.009929  0  1.641501  0
O  O64  1  0.75596141  0.98361117  0.06682878  1  0  -0.852972  0  1.902515  0  0  -0.785136  0  2.106797  0  0  -0.807795  0  2.073038  0  0  -0.574534  -0.7689  0  2.12991  0
O  O65  1  0.24403572  0.01639442  0.93316888  1  0  -0.852929  0  1.902558  0  0  -0.785101  0  2.106874  0  0  -0.807777  0  2.07308  0  0  -0.574535  -0.768866  0  2.12998  0
O  O66  1  0.82605190  0.42841569  0.07756719  1  0  -0.847137  0  1.869067  0  0  -0.787014  0  2.071945  0  0  -0.809128  0  2.037787  0  0  -0.574462  -0.771103  0  2.095136  0
O  O67  1  0.17394938  0.57158624  0.92242873  1  0  -0.847156  0  1.869055  0  0  -0.787086  0  2.071873  0  0  -0.809199  0  2.037716  0  0  -0.574431  -0.771176  0  2.095066  0
O  O68  1  0.64614666  0.31114545  0.93971797  1  0  -0.848041  0  1.892827  0  0  -0.778033  0  2.107407  0  0  -0.798597  0  2.068887  0  0  -0.565469  -0.764064  0  2.135126  0
O  O69  1  0.35382903  0.68885400  0.06028426  1  0  -0.848028  0  1.892628  0  0  -0.778046  0  2.107266  0  0  -0.798589  0  2.068793  0  0  -0.56537  -0.764076  0  2.134989  0
O  O70  1  0.58458510  0.21181833  0.17999288  1  0  -0.845862  0  2.096515  0  0  -0.75891  0  2.405622  0  0  -0.786547  0  2.380694  0  0  -0.363937  -0.739458  0  2.422308  0
O  O71  1  0.41542543  0.78817518  0.82000684  1  0  -0.84581  0  2.096632  0  0  -0.758818  0  2.405654  0  0  -0.786439  0  2.38071  0  0  -0.363909  -0.739369  0  2.422346  0
O  O72  1  0.22580757  0.39897469  0.11265638  1  0  -0.831536  0  1.974359  0  0  -0.745657  0  2.205445  0  0  -0.772317  0  2.18674  0  0  -0.352716  -0.726834  0  2.217636  0
O  O73  1  0.77420159  0.60101517  0.88734394  1  0  -0.831696  0  1.974199  0  0  -0.745824  0  2.205298  0  0  -0.772492  0  2.186597  0  0  -0.352742  -0.726994  0  2.217485  0
O  O74  1  0.34954542  0.40562285  0.27420286  1  0  -0.532982  0  2.238935  0  0  -0.442445  0  2.488487  0  0  -0.464905  0  2.481567  0  0  -0.209219  -0.426068  0  2.492869  0
O  O75  1  0.65045888  0.59437548  0.72579563  1  0  -0.532958  0  2.238835  0  0  -0.44241  0  2.48835  0  0  -0.464868  0  2.481423  0  0  -0.209229  -0.426041  0  2.492747  0
O  O76  1  0.07699642  0.09590308  0.10604064  1  0  -0.867117  0  2.100844  0  0  -0.772211  0  2.393289  0  0  -0.799559  0  2.36674  0  0  -0.36215  -0.752924  0  2.411257  0
O  O77  1  0.92299280  0.90410127  0.89395892  1  0  -0.867171  0  2.101365  0  0  -0.772224  0  2.393769  0  0  -0.799544  0  2.367193  0  0  -0.362092  -0.752918  0  2.411682  0
O  O78  1  0.43512697  0.90707726  0.14826993  1  0  -0.806104  0  1.957183  0  0  -0.723516  0  2.190372  0  0  -0.750782  0  2.173821  0  0  -0.348718  -0.704309  0  2.201178  0
O  O79  1  0.56485845  0.09293316  0.85172955  1  0  -0.806219  0  1.956661  0  0  -0.723571  0  2.189748  0  0  -0.750855  0  2.173239  0  0  -0.34884  -0.70435  0  2.20052  0
O  O80  1  0.17157061  0.85747275  0.25985812  1  0  -0.533727  0  2.258701  0  0  -0.442306  0  2.509418  0  0  -0.465009  0  2.502428  0  0  -0.207101  -0.425805  0  2.513826  0
O  O81  1  0.82842647  0.14252918  0.74013867  1  0  -0.533752  0  2.258671  0  0  -0.442368  0  2.509419  0  0  -0.465075  0  2.502425  0  0  -0.207087  -0.425904  0  2.5139  0
