# generated using pymatgen
data_Hf3H8C63Br30N3O16
_symmetry_space_group_name_H-M   'P 1'
_cell_length_a   17.95451209
_cell_length_b   18.10586648
_cell_length_c   18.30134846
_cell_angle_alpha   92.26324594
_cell_angle_beta   90.49242269
_cell_angle_gamma   91.14350494
_symmetry_Int_Tables_number   1
_chemical_formula_structural   Hf3H8C63Br30N3O16
_chemical_formula_sum   'Hf6 H16 C126 Br60 N6 O32'
_cell_volume   5943.35192683
_cell_formula_units_Z   2
loop_
 _symmetry_equiv_pos_site_id
 _symmetry_equiv_pos_as_xyz
  1  'x, y, z'
loop_
 _atom_site_type_symbol
 _atom_site_label
 _atom_site_symmetry_multiplicity
 _atom_site_fract_x
 _atom_site_fract_y
 _atom_site_fract_z
 _atom_site_occupancy
 _atom_site_pbe_bader_charge
 _atom_site_pbe_bader_spin_density
 _atom_site_pbe_cm5_charge
 _atom_site_pbe_ddec_charge
 _atom_site_pbe_ddec_spin_density
 _atom_site_pbe_ddec_sum_bond_order
 _atom_site_pbe_magmom
Hf  Hf0  1  0.02423291  0.19350501  0.13545889  1  2.589346  0  1.523436  2.144644  0  3.320925  0
Hf  Hf1  1  0.15794073  0.23743132  0.00418189  1  2.63745  0  1.447598  2.09982  0  3.192652  0
Hf  Hf2  1  0.99881727  0.01192623  0.07223149  1  2.610028  0  1.476826  2.089317  0  3.340717  0
Hf  Hf3  1  0.17780806  0.08038163  0.11981307  1  2.59356  0  1.474965  2.078362  0  3.377559  0
Hf  Hf4  1  0.97582118  0.16514333  0.95706251  1  2.611732  0  1.50009  2.092939  0  3.381744  0
Hf  Hf5  1  0.13204582  0.05217833  0.93735494  1  2.618271  0  1.49032  2.133259  0  3.416526  0
H  H6  1  0.79904454  0.86663817  0.46973320  1  0.099634  0  0.104552  0.133373  0  0.990633  0
H  H7  1  0.79499071  0.88886250  0.61606497  1  0.104296  0  0.111899  0.142619  0  0.977209  0
H  H8  1  0.36701411  0.30767263  0.65490846  1  0.096135  0  0.106184  0.135761  0  0.993649  0
H  H9  1  0.34467509  0.30973733  0.50964343  1  0.093069  0  0.109414  0.140777  0  0.977898  0
H  H10  1  0.51004913  0.82702213  0.78300442  1  0.097649  0  0.103933  0.133755  0  0.988863  0
H  H11  1  0.65858244  0.81105837  0.79284078  1  0.099672  0  0.105963  0.134003  0  0.994475  0
H  H12  1  0.69643137  0.43830522  0.23975558  1  0.092676  0  0.106874  0.137714  0  0.988633  0
H  H13  1  0.54842852  0.42190956  0.25396125  1  0.090067  0  0.112125  0.143078  0  0.974885  0
H  H14  1  0.90250616  0.53777116  0.76872197  1  0.101907  0  0.10202  0.132852  0  1.003665  0
H  H15  1  0.91462931  0.68491447  0.76487282  1  0.087933  0  0.097902  0.124649  0  1.024723  0
H  H16  1  0.27376473  0.75956121  0.29916600  1  0.082681  0  0.104607  0.132909  0  1.000691  0
H  H17  1  0.28790032  0.61644736  0.25821468  1  0.135993  0  0.097782  0.127167  0  1.023949  0
H  H18  1  0.17855026  0.22913194  0.16338438  1  0.607006  0  0.303243  0.384357  0  0.940539  0
H  H19  1  0.88827834  0.12628517  0.07645767  1  0.634779  0  0.340368  0.436681  0  0.834044  0
H  H20  1  0.13329008  0.93901599  0.04344556  1  0.622729  0  0.323697  0.417219  0  0.875438  0
H  H21  1  0.09945234  0.17481511  0.86099266  1  0.637785  0  0.340661  0.430821  0  0.838127  0
C  C22  1  0.75483145  0.97808971  0.46570584  1  0.278032  0  0.046278  0.073247  0  3.919482  0
C  C23  1  0.77609713  0.91429041  0.49846854  1  -0.003993  0  -0.110607  -0.160577  0  4.033467  0
C  C24  1  0.77283311  0.92513966  0.57574346  1  -0.010697  0  -0.109073  -0.185533  0  3.987827  0
C  C25  1  0.74950898  0.99608535  0.59022138  1  0.319824  0  0.063001  0.104584  0  3.980232  0
C  C26  1  0.43308944  0.20906865  0.62961475  1  0.324416  0  0.065526  0.093517  0  3.927683  0
C  C27  1  0.39292594  0.27183634  0.61405321  1  0.005935  0  -0.106785  -0.166238  0  4.002824  0
C  C28  1  0.38135968  0.27343562  0.53823498  1  -0.006761  0  -0.111758  -0.183089  0  4.022994  0
C  C29  1  0.41392361  0.21173663  0.50649900  1  0.320532  0  0.060521  0.094821  0  3.972106  0
C  C30  1  0.50810096  0.79119172  0.89569430  1  0.329513  0  0.050127  0.079779  0  3.917317  0
C  C31  1  0.53967359  0.80500312  0.82885918  1  -0.065639  0  -0.112553  -0.167651  0  4.030258  0
C  C32  1  0.61801557  0.79543654  0.83334484  1  0.025015  0  -0.10832  -0.178829  0  3.987932  0
C  C33  1  0.63459224  0.77601409  0.90356033  1  0.324134  0  0.061879  0.101486  0  3.966867  0
C  C34  1  0.66950416  0.48841303  0.13555538  1  0.332773  0  0.065431  0.094579  0  3.927898  0
C  C35  1  0.65458105  0.45983860  0.20372020  1  0.018987  0  -0.106916  -0.167664  0  3.995386  0
C  C36  1  0.57702600  0.45126574  0.21149440  1  -0.036882  0  -0.111143  -0.181886  0  4.02613  0
C  C37  1  0.54366135  0.47452241  0.14856279  1  0.350054  0  0.057066  0.091024  0  3.974232  0
C  C38  1  0.99637738  0.53654247  0.69231157  1  0.361771  0  0.063233  0.092963  0  3.947453  0
C  C39  1  0.93951462  0.56811035  0.73376901  1  -0.027419  0  -0.111166  -0.168386  0  4.01256  0
C  C40  1  0.94537032  0.64511245  0.73176054  1  -0.017268  0  -0.115329  -0.182494  0  4.02943  0
C  C41  1  0.00717922  0.66243422  0.69089672  1  0.291942  0  0.064225  0.102897  0  3.944292  0
C  C42  1  0.18210301  0.71981155  0.36744899  1  0.35314  0  0.066825  0.094477  0  3.950886  0
C  C43  1  0.24384805  0.71333963  0.32192129  1  -0.003856  0  -0.104614  -0.159249  0  3.976804  0
C  C44  1  0.25156508  0.63868508  0.30043402  1  -0.059414  0  -0.111486  -0.176204  0  4.009254  0
C  C45  1  0.19481744  0.59898451  0.33214653  1  0.32934  0  0.062296  0.099959  0  3.961831  0
C  C46  1  0.91787805  0.08326829  0.21486089  1  1.615831  0  0.237077  0.642826  0  4.139982  0
C  C47  1  0.10506561  0.34167851  0.15392566  1  1.631075  0  0.229251  0.626884  0  4.139421  0
C  C48  1  0.25195754  0.12291076  0.24089326  1  1.503878  0  0.188684  0.557053  0  4.183379  0
C  C49  1  0.89627725  0.28576878  0.07070555  1  1.581656  0  0.232824  0.64237  0  4.093272  0
C  C50  1  0.25634719  0.15999223  0.87377137  1  1.596964  0  0.23213  0.639508  0  4.078936  0
C  C51  1  0.04236445  0.94596000  0.82317434  1  1.641399  0  0.222378  0.624673  0  4.184016  0
C  C52  1  0.27507298  0.32386868  0.03829242  1  1.59142  0  0.194341  0.571931  0  4.182864  0
C  C53  1  0.04489695  0.30450545  0.88160374  1  1.590106  0  0.237187  0.646071  0  4.062274  0
C  C54  1  0.90504322  0.91054637  0.02095111  1  1.554206  0  0.210742  0.595765  0  4.116578  0
C  C55  1  0.10406912  0.94427804  0.19703820  1  1.584421  0  0.230675  0.642248  0  4.091667  0
C  C56  1  0.26942958  0.97447390  0.00990125  1  1.632556  0  0.23115  0.628785  0  4.166941  0
C  C57  1  0.88620572  0.11862927  0.85378290  1  1.559227  0  0.210281  0.595297  0  4.111978  0
C  C58  1  0.19269588  0.85352690  0.36136043  1  -0.031135  0  -0.02738  0.013806  0  3.918669  0
C  C59  1  0.14453767  0.79081493  0.36757070  1  0.070416  0  -0.003145  0.014271  0  3.948435  0
C  C60  1  0.07058254  0.80062871  0.34215852  1  -0.046054  0  -0.033461  0.006125  0  3.940998  0
C  C61  1  0.05568109  0.85320879  0.29004328  1  -0.036935  0  -0.02253  0.043883  0  3.929139  0
C  C62  1  0.11437613  0.89844049  0.26245990  1  0.069241  0  -0.037006  -0.149797  0  3.924216  0
C  C63  1  0.18337702  0.89909905  0.30215217  1  -0.035119  0  -0.019364  0.044331  0  3.905164  0
C  C64  1  0.17085387  0.39927707  0.26453003  1  -0.033828  0  -0.021657  0.03913  0  3.928746  0
C  C65  1  0.12677707  0.40808998  0.20188957  1  0.078519  0  -0.022813  -0.103757  0  3.973623  0
C  C66  1  0.10282383  0.47861171  0.18447862  1  -0.100572  0  -0.027988  0.023555  0  3.99958  0
C  C67  1  0.12159447  0.53949422  0.23088684  1  0.002094  0  -0.022878  0.017735  0  3.942904  0
C  C68  1  0.16526113  0.53079747  0.29478890  1  0.131353  0  -0.017941  -0.017502  0  4.026964  0
C  C69  1  0.18955592  0.46030631  0.31097507  1  -0.067533  0  -0.023102  0.029592  0  3.954758  0
C  C70  1  0.07755098  0.74491434  0.77710341  1  -0.055572  0  -0.026101  0.019314  0  3.934038  0
C  C71  1  0.04399743  0.73534498  0.70698861  1  0.108018  0  -0.024697  -0.030017  0  4.021217  0
C  C72  1  0.02886964  0.79903951  0.66845571  1  -0.046793  0  -0.024021  0.031848  0  3.925309  0
C  C73  1  0.03535770  0.86949929  0.70305994  1  -0.046255  0  -0.023326  0.042038  0  3.939948  0
C  C74  1  0.06027719  0.87759267  0.77595543  1  0.089951  0  -0.019126  -0.095976  0  3.935871  0
C  C75  1  0.08762514  0.81546857  0.81007408  1  -0.053448  0  -0.02833  0.032695  0  3.957438  0
C  C76  1  0.96250559  0.36875125  0.78983091  1  -0.062114  0  -0.026087  0.042499  0  3.926453  0
C  C77  1  0.03475009  0.35234951  0.81672806  1  0.059576  0  -0.033457  -0.133832  0  3.907042  0
C  C78  1  0.09559721  0.37877692  0.77554954  1  -0.009226  0  -0.024093  0.046882  0  3.936885  0
C  C79  1  0.08571456  0.43182043  0.72252006  1  -0.073105  0  -0.030878  0.013632  0  3.92423  0
C  C80  1  0.01426516  0.45975868  0.70704531  1  0.096502  0  -0.004935  0.008807  0  3.955353  0
C  C81  1  0.95398583  0.41386383  0.73008974  1  -0.043821  0  -0.025168  0.018408  0  3.88968  0
C  C82  1  0.03101922  0.57436021  0.52789638  1  -0.066203  0  -0.027612  -0.005933  0  3.928232  0
C  C83  1  0.07157399  0.59781610  0.59155643  1  0.468723  0  0.077468  0.092178  0  4.004181  0
C  C84  1  0.14262793  0.63017777  0.58169947  1  -0.011522  0  -0.029809  -0.00629  0  3.952859  0
C  C85  1  0.17003792  0.64155597  0.51115002  1  -0.047899  0  -0.026043  -0.001328  0  3.925377  0
C  C86  1  0.12602496  0.62542570  0.44772750  1  0.392692  0  0.076621  0.091481  0  3.984813  0
C  C87  1  0.05849421  0.58620844  0.45723243  1  0.011155  0  -0.028202  -0.00538  0  3.947507  0
C  C88  1  0.80444842  0.46322095  0.14791363  1  -0.02552  0  -0.028106  0.011308  0  3.907848  0
C  C89  1  0.74072583  0.46792513  0.10164674  1  0.034463  0  -0.002681  0.012948  0  3.935982  0
C  C90  1  0.74447818  0.42563119  0.03489158  1  -0.045894  0  -0.027135  0.019153  0  3.952564  0
C  C91  1  0.78883195  0.36290112  0.02994571  1  -0.060337  0  -0.019915  0.043773  0  3.92337  0
C  C92  1  0.84531693  0.35021196  0.08204901  1  0.075677  0  -0.031571  -0.132872  0  3.914886  0
C  C93  1  0.85333009  0.40395753  0.14099903  1  -0.026302  0  -0.020912  0.044434  0  3.918897  0
C  C94  1  0.41199933  0.32953423  0.06704342  1  -0.041389  0  -0.023544  0.031145  0  3.947934  0
C  C95  1  0.34386545  0.36661093  0.06304368  1  0.065156  0  -0.020388  -0.086008  0  3.921362  0
C  C96  1  0.34165386  0.44225974  0.08444089  1  0.008336  0  -0.020035  0.041272  0  3.93058  0
C  C97  1  0.40557367  0.47828543  0.11450618  1  -0.09924  0  -0.025805  0.018029  0  3.963482  0
C  C98  1  0.47338135  0.44192939  0.11840551  1  0.095118  0  -0.016222  -0.010545  0  4.025623  0
C  C99  1  0.47644617  0.36735851  0.09230152  1  -0.022331  0  -0.02457  0.013891  0  3.939087  0
C  C100  1  0.84088937  0.79608172  0.95657080  1  -0.004495  0  -0.014569  0.04993  0  3.915544  0
C  C101  1  0.83931890  0.85990528  0.00333452  1  0.026416  0  -0.017459  -0.089928  0  3.899799  0
C  C102  1  0.76940824  0.88518113  0.02674289  1  0.010653  0  -0.016543  0.053931  0  3.944337  0
C  C103  1  0.70434517  0.85943518  0.99102506  1  -0.049736  0  -0.024997  0.013187  0  3.928725  0
C  C104  1  0.70442264  0.79550158  0.94383286  1  0.097143  0  -0.01119  -0.006198  0  3.979603  0
C  C105  1  0.77364259  0.76219107  0.93089882  1  -0.062313  0  -0.021832  0.024912  0  3.911303  0
C  C106  1  0.33072687  0.84813943  0.00002021  1  -0.070556  0  -0.022038  0.042152  0  3.939851  0
C  C107  1  0.33351741  0.92440443  0.99229750  1  0.057157  0  -0.022432  -0.093864  0  3.974974  0
C  C108  1  0.39275467  0.95546552  0.95440989  1  -0.035508  0  -0.025298  0.031939  0  3.975276  0
C  C109  1  0.44398072  0.91121663  0.91715981  1  -0.036771  0  -0.020325  0.022648  0  3.881692  0
C  C110  1  0.44387523  0.83269959  0.92584341  1  0.148371  0  -0.007343  0.000851  0  3.926382  0
C  C111  1  0.38567952  0.80307517  0.96815824  1  -0.05911  0  -0.024488  0.021118  0  3.927362  0
C  C112  1  0.55091430  0.62952468  0.95020610  1  -0.007461  0  -0.029671  -0.009983  0  3.95499  0
C  C113  1  0.56430428  0.70014342  0.98415648  1  0.3738  0  0.075938  0.094805  0  3.983646  0
C  C114  1  0.57958249  0.70260323  0.05979183  1  -0.017222  0  -0.028266  0.001628  0  3.948343  0
C  C115  1  0.59455885  0.63752175  0.09643248  1  0.009486  0  -0.026642  -0.004846  0  3.931194  0
C  C116  1  0.58422858  0.56678389  0.06141932  1  0.398377  0  0.076551  0.093355  0  3.965276  0
C  C117  1  0.55317288  0.56462172  0.99026477  1  -0.0348  0  -0.030309  -0.009559  0  3.939135  0
C  C118  1  0.39525523  0.11132131  0.72088576  1  -0.018744  0  -0.031017  0.013118  0  3.9306  0
C  C119  1  0.42476166  0.18174306  0.70382131  1  0.044669  0  -0.003014  0.017812  0  3.945616  0
C  C120  1  0.42170297  0.23547146  0.76239159  1  -0.040551  0  -0.027516  0.015453  0  3.906526  0
C  C121  1  0.36830963  0.22980363  0.81750085  1  -0.031526  0  -0.023159  0.040324  0  3.910729  0
C  C122  1  0.32280814  0.16468882  0.82363146  1  0.038478  0  -0.034766  -0.144664  0  3.899238  0
C  C123  1  0.34378049  0.10293287  0.77754470  1  -0.019877  0  -0.020194  0.045713  0  3.904586  0
C  C124  1  0.41239107  0.19074536  0.36819238  1  -0.030306  0  -0.025575  0.024748  0  3.943643  0
C  C125  1  0.38300313  0.17870550  0.43728196  1  0.058257  0  -0.013609  -0.006216  0  4.025381  0
C  C126  1  0.31204906  0.14387302  0.44154135  1  -0.04895  0  -0.025013  0.013946  0  3.929414  0
C  C127  1  0.27051202  0.12466134  0.37825167  1  0.007429  0  -0.020953  0.041472  0  3.924803  0
C  C128  1  0.29888307  0.13993461  0.30814542  1  0.019212  0  -0.028661  -0.109188  0  3.922133  0
C  C129  1  0.37121743  0.17257184  0.30398939  1  -0.0063  0  -0.021164  0.045681  0  3.914006  0
C  C130  1  0.86777272  0.11792406  0.71869279  1  -0.029926  0  -0.011908  0.055615  0  3.91924  0
C  C131  1  0.83912372  0.10000610  0.78755675  1  0.122189  0  -0.013841  -0.085599  0  3.900422  0
C  C132  1  0.77209683  0.05821114  0.79020774  1  -0.050502  0  -0.014213  0.052585  0  3.911622  0
C  C133  1  0.73723685  0.03207354  0.72473441  1  -0.078234  0  -0.021468  0.024364  0  3.922158  0
C  C134  1  0.77094142  0.04084504  0.65662473  1  0.113783  0  -0.01099  -0.006401  0  3.992278  0
C  C135  1  0.83714798  0.08456061  0.65473324  1  -0.035277  0  -0.023934  0.013593  0  3.934063  0
C  C136  1  0.79420446  0.07079054  0.28317582  1  -0.060706  0  -0.024089  0.043573  0  3.947267  0
C  C137  1  0.87130258  0.06436909  0.27987601  1  0.072785  0  -0.025229  -0.102247  0  3.989354  0
C  C138  1  0.90854734  0.03121867  0.33678567  1  -0.046603  0  -0.028717  0.024505  0  3.989174  0
C  C139  1  0.86966641  0.99689983  0.39225719  1  0.010069  0  -0.020463  0.022846  0  3.88095  0
C  C140  1  0.79038254  0.00425799  0.39824792  1  0.07245  0  -0.006789  0.002989  0  3.931073  0
C  C141  1  0.75452075  0.04215237  0.34208033  1  -0.049648  0  -0.025023  0.01956  0  3.926345  0
C  C142  1  0.52302725  0.06247424  0.51889869  1  -0.028139  0  -0.030895  -0.007807  0  3.951466  0
C  C143  1  0.51903683  0.13621207  0.54587713  1  0.443938  0  0.077148  0.093877  0  3.972339  0
C  C144  1  0.58718141  0.17663564  0.55320177  1  -0.051348  0  -0.025517  -0.000454  0  3.923715  0
C  C145  1  0.65614917  0.14295779  0.53959670  1  0.017163  0  -0.027601  0.001431  0  3.939071  0
C  C146  1  0.66028293  0.06622658  0.52486992  1  0.354959  0  0.076553  0.094933  0  3.982427  0
C  C147  1  0.59189188  0.02656586  0.51548886  1  -0.004799  0  -0.030714  -0.012201  0  3.962509  0
Br  Br148  1  0.27315802  0.94682196  0.27310798  1  0.018593  0  0.070021  0.015454  0  1.71601  0
Br  Br149  1  0.27378230  0.86547219  0.42854508  1  -0.018494  0  0.027801  -0.051131  0  1.585487  0
Br  Br150  1  0.95617891  0.85630355  0.25508394  1  0.030649  0  0.061128  0.013258  0  1.677867  0
Br  Br151  1  0.99494249  0.73683621  0.37504754  1  -0.004687  0  0.049516  -0.021826  0  1.818964  0
Br  Br152  1  0.24877511  0.45108598  0.39620724  1  -0.022982  0  0.03742  -0.034697  0  1.472389  0
Br  Br153  1  0.20928810  0.30513564  0.28421107  1  -0.015373  0  0.07603  0.008698  0  1.648937  0
Br  Br154  1  0.09010266  0.63458897  0.20652557  1  0.001603  0  0.0581  -0.003833  0  1.629811  0
Br  Br155  1  0.04827140  0.49098530  0.09692193  1  0.0065  0  0.060004  0.008133  0  1.583832  0
Br  Br156  1  0.13220911  0.82580374  0.90447759  1  -0.026076  0  0.040571  -0.04613  0  1.74494  0
Br  Br157  1  0.10155803  0.66049685  0.83042093  1  -0.018884  0  0.045657  -0.013956  0  1.609145  0
Br  Br158  1  0.00535841  0.95484296  0.65453878  1  -0.012012  0  0.03303  -0.03626  0  1.602402  0
Br  Br159  1  0.99433025  0.78553117  0.57027918  1  -0.033184  0  0.024698  -0.043682  0  1.616305  0
Br  Br160  1  0.86031824  0.41520993  0.68000318  1  -0.036851  0  0.022721  -0.057699  0  1.561546  0
Br  Br161  1  0.87370044  0.34105048  0.83832130  1  0.019604  0  0.034704  -0.036252  0  1.819322  0
Br  Br162  1  0.16853320  0.46888423  0.67162249  1  -0.014948  0  0.038629  -0.031782  0  1.666429  0
Br  Br163  1  0.19267073  0.34366620  0.79187833  1  0.011034  0  0.039708  -0.026693  0  1.734024  0
Br  Br164  1  0.00315431  0.54890250  0.37485732  1  0.004586  0  0.055751  -0.002593  0  1.750926  0
Br  Br165  1  0.93489895  0.53180384  0.53713617  1  0.013993  0  0.055343  -0.006335  0  1.655885  0
Br  Br166  1  0.27075089  0.67135153  0.50107910  1  0.010188  0  0.05555  -0.00961  0  1.657588  0
Br  Br167  1  0.20297131  0.65775614  0.66362832  1  0.009618  0  0.056382  -0.005821  0  1.723211  0
Br  Br168  1  0.92364845  0.39560784  0.21784611  1  0.017711  0  0.053255  0.004468  0  1.724874  0
Br  Br169  1  0.82032814  0.54057668  0.22040768  1  -0.023172  0  0.024226  -0.059677  0  1.537899  0
Br  Br170  1  0.75592692  0.28714845  0.96127552  1  0.024788  0  0.067172  0.029974  0  1.709631  0
Br  Br171  1  0.68755901  0.45127511  0.95381744  1  0.011817  0  0.051479  -0.02899  0  1.810352  0
Br  Br172  1  0.56915494  0.31921572  0.08747656  1  -0.00177  0  0.055186  -0.01621  0  1.674936  0
Br  Br173  1  0.41967904  0.22892126  0.03583386  1  0.011976  0  0.058526  0.010436  0  1.864774  0
Br  Br174  1  0.40432297  0.57851047  0.14865603  1  -0.025582  0  0.054452  -0.01892  0  1.604791  0
Br  Br175  1  0.25363692  0.49630257  0.07343133  1  0.018571  0  0.06075  0.010422  0  1.641359  0
Br  Br176  1  0.77347175  0.67183718  0.87468202  1  -0.029573  0  0.040514  -0.030506  0  1.495959  0
Br  Br177  1  0.93329289  0.75705103  0.92731146  1  0.016586  0  0.055801  -0.011542  0  1.634068  0
Br  Br178  1  0.62235633  0.92350472  0.99471285  1  0.005464  0  0.057454  -0.009291  0  1.901773  0
Br  Br179  1  0.76130404  0.95378497  0.10688068  1  0.011029  0  0.037742  -0.037867  0  1.727539  0
Br  Br180  1  0.37835525  0.69972432  0.97856441  1  -0.003132  0  0.04744  -0.029328  0  1.656392  0
Br  Br181  1  0.25013548  0.80820463  0.05379583  1  -0.022731  0  0.057151  -0.001161  0  1.547858  0
Br  Br182  1  0.50907728  0.96306435  0.85495285  1  0.008267  0  0.058878  -0.025637  0  1.90242  0
Br  Br183  1  0.40026971  0.06024273  0.95697242  1  -0.008961  0  0.065802  0.009915  0  1.75777  0
Br  Br184  1  0.50899148  0.47676465  0.94803820  1  0.007828  0  0.058023  0.005231  0  1.775669  0
Br  Br185  1  0.53032804  0.62011124  0.84894071  1  -0.000697  0  0.051906  -0.013669  0  1.630434  0
Br  Br186  1  0.62276862  0.64551251  0.19608979  1  0.005094  0  0.055676  -0.010367  0  1.634654  0
Br  Br187  1  0.57322966  0.79318951  0.11347130  1  0.008843  0  0.048912  -0.012107  0  1.652619  0
Br  Br188  1  0.30360242  0.00590859  0.78586832  1  0.03532  0  0.066337  0.021673  0  1.713813  0
Br  Br189  1  0.42405497  0.02907392  0.66259881  1  -0.001469  0  0.041886  -0.042039  0  1.845807  0
Br  Br190  1  0.35637427  0.31659274  0.87690402  1  0.026717  0  0.071623  0.033499  0  1.885944  0
Br  Br191  1  0.49102050  0.31648679  0.76204969  1  -0.02169  0  0.024234  -0.059136  0  1.554054  0
Br  Br192  1  0.41295892  0.19806062  0.21384935  1  0.033358  0  0.042381  -0.018105  0  1.758815  0
Br  Br193  1  0.50928415  0.23419420  0.36547856  1  -0.022979  0  0.036997  -0.034754  0  1.544522  0
Br  Br194  1  0.17713923  0.07743618  0.39275907  1  0.027054  0  0.054867  -0.001797  0  1.870797  0
Br  Br195  1  0.27290155  0.12452490  0.53496600  1  0.002476  0  0.056422  -0.007381  0  1.64617  0
Br  Br196  1  0.89335605  0.08881853  0.56811937  1  0.003483  0  0.055858  -0.010736  0  1.857238  0
Br  Br197  1  0.94672748  0.18793210  0.70988543  1  0.007584  0  0.055183  -0.0078  0  1.654932  0
Br  Br198  1  0.64426464  0.98025400  0.72464848  1  -0.028588  0  0.043627  -0.025889  0  1.648112  0
Br  Br199  1  0.73016012  0.03195279  0.88024844  1  0.026445  0  0.049387  -0.00717  0  1.648669  0
Br  Br200  1  0.64980026  0.05161037  0.34357351  1  0.007559  0  0.046711  -0.024377  0  1.618491  0
Br  Br201  1  0.74610927  0.12009562  0.20673724  1  -0.017395  0  0.052703  -0.005006  0  1.524143  0
Br  Br202  1  0.93003113  0.94122497  0.45478640  1  0.001614  0  0.061063  -0.023355  0  1.865485  0
Br  Br203  1  0.01398147  0.04002923  0.33645983  1  0.000658  0  0.070734  0.014631  0  1.852576  0
Br  Br204  1  0.59036247  0.92286007  0.50001150  1  -0.003196  0  0.049333  -0.018028  0  1.637645  0
Br  Br205  1  0.43647589  0.01177664  0.48217690  1  0.001251  0  0.052838  0.002848  0  1.762702  0
Br  Br206  1  0.74402871  0.20158071  0.53724742  1  0.010696  0  0.048593  -0.01128  0  1.628124  0
Br  Br207  1  0.58526005  0.27918003  0.57560257  1  0.008226  0  0.054082  -0.011428  0  1.645344  0
N  N208  1  0.73093985  0.02856621  0.52337531  1  -1.076086  0  -0.249086  -0.11739  0  3.574407  0
N  N209  1  0.44940779  0.17235462  0.56160671  1  -1.107937  0  -0.237328  -0.091166  0  3.630463  0
N  N210  1  0.56686262  0.76613166  0.94182255  1  -1.095533  0  -0.250499  -0.116053  0  3.592449  0
N  N211  1  0.59966394  0.50144390  0.10174589  1  -1.105253  0  -0.240705  -0.096364  0  3.616258  0
N  N212  1  0.03826089  0.59587121  0.66285819  1  -1.097721  0  -0.234645  -0.08854  0  3.625522  0
N  N213  1  0.15309290  0.64754044  0.37758558  1  -1.108727  0  -0.238634  -0.093575  0  3.632646  0
O  O214  1  0.92435966  0.03091181  0.16740112  1  -1.170494  0  -0.322992  -0.563529  0  2.37416  0
O  O215  1  0.12928942  0.33648333  0.09000742  1  -1.16384  0  -0.287767  -0.52525  0  2.34421  0
O  O216  1  0.18129315  0.12326773  0.24372435  1  -1.125722  0  -0.321469  -0.548392  0  2.309996  0
O  O217  1  0.92904745  0.26184650  0.12731763  1  -1.175973  0  -0.366309  -0.604069  0  2.421311  0
O  O218  1  0.90552521  0.25852326  0.00676892  1  -1.164946  0  -0.319763  -0.560375  0  2.388441  0
O  O219  1  0.28200105  0.10765749  0.17848662  1  -1.146143  0  -0.35028  -0.545843  0  2.272882  0
O  O220  1  0.06289665  0.29430729  0.18549021  1  -1.168426  0  -0.368767  -0.593781  0  2.353086  0
O  O221  1  0.94888955  0.14718844  0.21394258  1  -1.177139  0  -0.344458  -0.576088  0  2.297481  0
O  O222  1  0.04823789  0.21626157  0.03275280  1  -1.203029  0  -0.769714  -1.061772  0  2.27668  0
O  O223  1  0.06384574  0.08901064  0.13038735  1  -1.216744  0  -0.767568  -1.067105  0  2.240128  0
O  O224  1  0.15017199  0.19764622  0.12821041  1  -1.243933  0  -0.647896  -0.94447  0  2.331346  0
O  O225  1  0.94042267  0.12365996  0.06274121  1  -1.26601  0  -0.641124  -0.95956  0  2.261889  0
O  O226  1  0.24157484  0.21383528  0.91805388  1  -1.182961  0  -0.339405  -0.58969  0  2.432526  0
O  O227  1  0.97653847  0.95372515  0.83819262  1  -1.093764  0  -0.273505  -0.451  0  2.076333  0
O  O228  1  0.26078635  0.26216613  0.06852292  1  -1.152923  0  -0.350631  -0.567521  0  2.311983  0
O  O229  1  0.99235123  0.25750749  0.89117237  1  -1.173032  0  -0.360132  -0.582714  0  2.499874  0
O  O230  1  0.89335212  0.98028311  0.01732129  1  -1.14712  0  -0.347896  -0.557989  0  2.262311  0
O  O231  1  0.15952810  0.98538800  0.17973464  1  -1.187142  0  -0.375657  -0.600357  0  2.51344  0
O  O232  1  0.22771628  0.98334579  0.95438980  1  -1.171793  0  -0.344073  -0.590117  0  2.422479  0
O  O233  1  0.95676576  0.11364370  0.84758373  1  -1.150847  0  -0.334196  -0.539781  0  2.316419  0
O  O234  1  0.26205516  0.00375822  0.07310907  1  -1.171732  0  -0.322485  -0.552535  0  2.35328  0
O  O235  1  0.85999699  0.14007737  0.91598759  1  -1.149786  0  -0.339827  -0.559099  0  2.2231  0
O  O236  1  0.23135966  0.34553136  0.98977462  1  -1.124566  0  -0.307655  -0.515118  0  2.303124  0
O  O237  1  0.04384511  0.94135133  0.16017890  1  -1.173662  0  -0.330345  -0.562083  0  2.402036  0
O  O238  1  0.96963183  0.89040504  0.04048868  1  -1.147919  0  -0.325666  -0.545361  0  2.188139  0
O  O239  1  0.10285099  0.31053511  0.92226311  1  -1.174838  0  -0.321654  -0.551761  0  2.306399  0
O  O240  1  0.21567418  0.10132819  0.86787281  1  -1.188523  0  -0.351561  -0.585098  0  2.43066  0
O  O241  1  0.09848749  0.98824203  0.84716322  1  -1.202294  0  -0.405021  -0.644663  0  2.307881  0
O  O242  1  0.02423057  0.06332898  0.97619208  1  -1.204433  0  -0.734212  -1.019876  0  2.111954  0
O  O243  1  0.17814848  0.12306634  0.01769285  1  -1.227992  0  -0.740974  -1.052202  0  2.131872  0
O  O244  1  0.11151235  0.98691607  0.03579221  1  -1.268285  0  -0.640442  -0.960333  0  2.26755  0
O  O245  1  0.09245280  0.16048674  0.91115270  1  -1.261931  0  -0.640267  -0.949555  0  2.285293  0
