# generated using pymatgen
data_Zn3H18C28(NO7)2
_symmetry_space_group_name_H-M   'P 1'
_cell_length_a   10.42742391
_cell_length_b   10.69953149
_cell_length_c   14.82640000
_cell_angle_alpha   87.81036720
_cell_angle_beta   85.50288951
_cell_angle_gamma   60.83783492
_symmetry_Int_Tables_number   1
_chemical_formula_structural   Zn3H18C28(NO7)2
_chemical_formula_sum   'Zn6 H36 C56 N4 O28'
_cell_volume   1440.03817425
_cell_formula_units_Z   2
loop_
 _symmetry_equiv_pos_site_id
 _symmetry_equiv_pos_as_xyz
  1  'x, y, z'
loop_
 _atom_site_type_symbol
 _atom_site_label
 _atom_site_symmetry_multiplicity
 _atom_site_fract_x
 _atom_site_fract_y
 _atom_site_fract_z
 _atom_site_occupancy
 _atom_site_hle17_bader_spin_density
 _atom_site_hle17_ddec_charge
 _atom_site_hle17_ddec_spin_density
 _atom_site_hle17_ddec_sum_bond_order
 _atom_site_hle17_magmom
 _atom_site_hse06_10hf_bader_spin_density
 _atom_site_hse06_10hf_ddec_charge
 _atom_site_hse06_10hf_ddec_spin_density
 _atom_site_hse06_10hf_ddec_sum_bond_order
 _atom_site_hse06_10hf_magmom
 _atom_site_hse06_bader_spin_density
 _atom_site_hse06_ddec_charge
 _atom_site_hse06_ddec_spin_density
 _atom_site_hse06_ddec_sum_bond_order
 _atom_site_hse06_magmom
 _atom_site_pbe_bader_charge
 _atom_site_pbe_bader_spin_density
 _atom_site_pbe_cm5_charge
 _atom_site_pbe_ddec_charge
 _atom_site_pbe_ddec_spin_density
 _atom_site_pbe_ddec_sum_bond_order
 _atom_site_pbe_magmom
Zn  Zn0  1  0.98924382  0.61643303  0.67065008  1  0  1.111799  0  1.779894  0  0  0.928823  0  2.258879  0  0  0.976363  0  2.198055  0  1.303965  0  0.716738  0.895457  0  2.301038  0
Zn  Zn1  1  0.60567677  0.38356675  0.17065009  1  0  1.111767  0  1.779937  0  0  0.928795  0  2.258905  0  0  0.976329  0  2.198086  0  1.303298  0  0.716718  0.895431  0  2.301066  0
Zn  Zn2  1  0.01075622  0.38356675  0.32934999  1  0  1.111748  0  1.779948  0  0  0.92877  0  2.25893  0  0  0.976308  0  2.198112  0  1.303971  0  0.716722  0.895404  0  2.301089  0
Zn  Zn3  1  0.39432327  0.61643303  0.82934998  1  0  1.111778  0  1.779945  0  0  0.928807  0  2.258925  0  0  0.976342  0  2.198104  0  1.303281  0  0.716719  0.895441  0  2.301086  0
Zn  Zn4  1  0.02278206  0.95443772  0.75000014  1  0  1.169353  0  1.767926  0  0  0.990769  0  2.273953  0  0  1.043739  0  2.201309  0  1.342848  0  0.68832  0.953284  0  2.324704  0
Zn  Zn5  1  0.97721744  0.04556312  0.25000061  1  0  1.16934  0  1.767932  0  0  0.990754  0  2.273982  0  0  1.043727  0  2.201333  0  1.342847  0  0.688308  0.953271  0  2.324731  0
H  H6  1  0.81565906  0.59129844  0.90862209  1  0  0.112868  0  0.940244  0  0  0.12129  0  1.003409  0  0  0.125463  0  0.999602  0  0.134755  0  0.10971  0.118327  0  1.005986  0
H  H7  1  0.40695801  0.40870026  0.40862211  1  0  0.112866  0  0.940268  0  0  0.121291  0  1.003432  0  0  0.125465  0  0.999623  0  0.137601  0  0.109695  0.118328  0  1.006009  0
H  H8  1  0.18434097  0.40870133  0.09137799  1  0  0.112869  0  0.94025  0  0  0.121291  0  1.003416  0  0  0.125463  0  0.999609  0  0.134769  0  0.109693  0.118327  0  1.005993  0
H  H9  1  0.59304256  0.59129844  0.59137796  1  0  0.11287  0  0.940268  0  0  0.121288  0  1.003435  0  0  0.125461  0  0.999628  0  0.137593  0  0.109711  0.118325  0  1.006011  0
H  H10  1  0.79579883  0.64747451  0.19633139  1  0  0.114701  0  0.948786  0  0  0.12099  0  1.016426  0  0  0.125304  0  1.012218  0  0.151753  0  0.108731  0.117841  0  1.019421  0
H  H11  1  0.44327416  0.35252526  0.69633133  1  0  0.114693  0  0.948798  0  0  0.120985  0  1.016438  0  0  0.1253  0  1.012228  0  0.156099  0  0.108725  0.117836  0  1.019432  0
H  H12  1  0.20420025  0.35252526  0.80366874  1  0  0.114681  0  0.948782  0  0  0.12096  0  1.016436  0  0  0.125276  0  1.012228  0  0.15177  0  0.108722  0.117811  0  1.019432  0
H  H13  1  0.55672534  0.64747558  0.30366874  1  0  0.114707  0  0.948783  0  0  0.120998  0  1.016429  0  0  0.125312  0  1.012219  0  0.156139  0  0.10873  0.117848  0  1.019425  0
H  H14  1  0.96904027  0.86044954  0.01350642  1  0  0.118734  0  0.93065  0  0  0.128485  0  0.989775  0  0  0.132715  0  0.985698  0  0.13676  0  0.112525  0.125565  0  0.99244  0
H  H15  1  0.82949009  0.13955237  0.51350690  1  0  0.118712  0  0.930705  0  0  0.128486  0  0.989812  0  0  0.13272  0  0.985729  0  0.093062  0  0.112508  0.125566  0  0.992476  0
H  H16  1  0.03095827  0.13955130  0.98649303  1  0  0.118731  0  0.930687  0  0  0.128502  0  0.989794  0  0  0.132735  0  0.985713  0  0.136754  0  0.112522  0.125582  0  0.992459  0
H  H17  1  0.17051038  0.86044847  0.48649312  1  0  0.118729  0  0.930679  0  0  0.128501  0  0.989787  0  0  0.132734  0  0.985705  0  0.093062  0  0.112517  0.125581  0  0.992451  0
H  H18  1  0.70391059  0.82311691  0.72677275  1  0  0.079429  0  0.969429  0  0  0.087872  0  1.033484  0  0  0.089949  0  1.032139  0  0.131584  0  0.119205  0.086304  0  1.034573  0
H  H19  1  0.52702850  0.17688179  0.22677398  1  0  0.07943  0  0.969441  0  0  0.08788  0  1.033495  0  0  0.089957  0  1.032149  0  0.132457  0  0.119193  0.086312  0  1.034584  0
H  H20  1  0.29608987  0.17688393  0.27322659  1  0  0.079412  0  0.969418  0  0  0.087856  0  1.033486  0  0  0.089933  0  1.032139  0  0.131577  0  0.119193  0.086288  0  1.034575  0
H  H21  1  0.47297154  0.82311798  0.77322677  1  0  0.079435  0  0.969417  0  0  0.087879  0  1.033475  0  0  0.089955  0  1.03213  0  0.132464  0  0.119198  0.08631  0  1.034564  0
H  H22  1  0.46801610  0.98738325  0.65880792  1  0  0.10706  0  0.952715  0  0  0.120204  0  1.007613  0  0  0.123022  0  1.00711  0  0.095704  0  0.113422  0.118175  0  1.008101  0
H  H23  1  0.45540055  0.01261438  0.15880908  1  0  0.107094  0  0.952665  0  0  0.120282  0  1.00751  0  0  0.1231  0  1.007004  0  0.079658  0  0.113447  0.118252  0  1.008  0
H  H24  1  0.53198447  0.01261545  0.34119147  1  0  0.107038  0  0.952696  0  0  0.120202  0  1.007574  0  0  0.123019  0  1.007071  0  0.095697  0  0.113415  0.118173  0  1.008063  0
H  H25  1  0.54459906  0.98738432  0.84119240  1  0  0.107058  0  0.952679  0  0  0.120219  0  1.007557  0  0  0.123037  0  1.007054  0  0.079691  0  0.113428  0.11819  0  1.008046  0
H  H26  1  0.71945054  0.89907186  0.39872376  1  0  0.119832  0  0.957879  0  0  0.127686  0  1.019414  0  0  0.131356  0  1.017795  0  0.143971  0  0.112027  0.125077  0  1.020726  0
H  H27  1  0.61852217  0.10092899  0.89872495  1  0  0.119835  0  0.95792  0  0  0.127694  0  1.01945  0  0  0.131365  0  1.017832  0  0.144573  0  0.112054  0.125085  0  1.020763  0
H  H28  1  0.28054896  0.10092899  0.60127564  1  0  0.119828  0  0.957908  0  0  0.127682  0  1.019438  0  0  0.131352  0  1.01782  0  0.143989  0  0.112048  0.125073  0  1.02075  0
H  H29  1  0.38147786  0.89907079  0.10127580  1  0  0.119814  0  0.957925  0  0  0.127663  0  1.019461  0  0  0.131333  0  1.017842  0  0.144551  0  0.112036  0.125054  0  1.020772  0
H  H30  1  0.93976833  0.74222902  0.47904161  1  0  0.095805  0  0.941668  0  0  0.105216  0  1.000796  0  0  0.108055  0  0.99802  0  0.183041  0  0.127257  0.10329  0  1.002479  0
H  H31  1  0.68199499  0.25777289  0.97904230  1  0  0.09582  0  0.941656  0  0  0.105235  0  1.000781  0  0  0.108072  0  0.998004  0  0.143105  0  0.127264  0.103308  0  1.002462  0
H  H32  1  0.06023213  0.25777182  0.52095841  1  0  0.095821  0  0.941655  0  0  0.105228  0  1.000786  0  0  0.108067  0  0.998009  0  0.183056  0  0.12726  0.103302  0  1.002468  0
H  H33  1  0.31800259  0.74222795  0.02095855  1  0  0.095794  0  0.941631  0  0  0.105206  0  1.000769  0  0  0.108043  0  0.997993  0  0.143084  0  0.127253  0.103279  0  1.002451  0
H  H34  1  0.98010295  0.37518213  0.68945749  1  0  0.441079  0  0.856036  0  0  0.409964  0  0.918345  0  0  0.420801  0  0.90286  0  0.671173  0  0.292356  0.402264  0  0.929356  0
H  H35  1  0.35528591  0.62481871  0.18945756  1  0  0.441204  0  0.855852  0  0  0.410035  0  0.918237  0  0  0.420871  0  0.902751  0  0.672898  0  0.292372  0.402335  0  0.929247  0
H  H36  1  0.01989656  0.62481871  0.31054258  1  0  0.441105  0  0.855996  0  0  0.409971  0  0.918333  0  0  0.420808  0  0.902846  0  0.671172  0  0.292355  0.402271  0  0.929344  0
H  H37  1  0.64471412  0.37518106  0.81054252  1  0  0.441148  0  0.855937  0  0  0.40999  0  0.918308  0  0  0.420827  0  0.902822  0  0.672898  0  0.292365  0.402289  0  0.929319  0
H  H38  1  0.87999619  0.46848426  0.60674124  1  0  0.441777  0  0.851218  0  0  0.411191  0  0.913709  0  0  0.421923  0  0.898037  0  0.659776  0  0.296835  0.403552  0  0.924882  0
H  H39  1  0.34848121  0.53151444  0.10674200  1  0  0.441803  0  0.851191  0  0  0.411219  0  0.913677  0  0  0.421951  0  0.898006  0  0.661796  0  0.296847  0.40358  0  0.924849  0
H  H40  1  0.12000384  0.53151551  0.39325883  1  0  0.441774  0  0.851223  0  0  0.411189  0  0.913711  0  0  0.421921  0  0.898039  0  0.659772  0  0.296834  0.40355  0  0.924883  0
H  H41  1  0.65151786  0.46848533  0.89325880  1  0  0.441785  0  0.851212  0  0  0.411201  0  0.9137  0  0  0.421931  0  0.898029  0  0.66179  0  0.296833  0.403561  0  0.924873  0
C  C42  1  0.89854619  0.72709091  0.95177010  1  0  -0.096563  0  3.773764  0  0  -0.068968  0  4.013853  0  0  -0.082224  0  4.03917  0  0.003278  0  -0.024179  -0.060638  0  3.997412  0
C  C43  1  0.62563626  0.27290994  0.45177007  1  0  -0.096552  0  3.773862  0  0  -0.068972  0  4.013938  0  0  -0.082228  0  4.039255  0  -0.015692  0  -0.024177  -0.060641  0  3.997496  0
C  C44  1  0.10145384  0.27290887  0.04822997  1  0  -0.096666  0  3.773705  0  0  -0.069029  0  4.013831  0  0  -0.082288  0  4.039151  0  0.002936  0  -0.024216  -0.060698  0  3.99739  0
C  C45  1  0.37436378  0.72708984  0.54823000  1  0  -0.096564  0  3.773801  0  0  -0.068968  0  4.013884  0  0  -0.082224  0  4.039201  0  -0.015667  0  -0.024182  -0.060637  0  3.997442  0
C  C46  1  0.83418188  0.63933927  0.96614763  1  0  -0.047377  0  3.696083  0  0  -0.08875  0  3.948114  0  0  -0.08342  0  3.966697  0  -0.099748  0  -0.071131  -0.091639  0  3.935714  0
C  C47  1  0.47352199  0.36066050  0.46614758  1  0  -0.047332  0  3.696111  0  0  -0.088701  0  3.948116  0  0  -0.083374  0  3.966704  0  -0.111975  0  -0.0711  -0.09159  0  3.935717  0
C  C48  1  0.16581720  0.36066050  0.03385317  1  0  -0.0474  0  3.696117  0  0  -0.088759  0  3.948119  0  0  -0.08343  0  3.966706  0  -0.099786  0  -0.071125  -0.091648  0  3.93572  0
C  C49  1  0.52647848  0.63934034  0.53385243  1  0  -0.047355  0  3.69615  0  0  -0.088722  0  3.948158  0  0  -0.083393  0  3.966744  0  -0.111977  0  -0.071119  -0.091611  0  3.935759  0
C  C50  1  0.79636308  0.61169380  0.05395736  1  0  -0.081545  0  3.775056  0  0  -0.053697  0  4.011947  0  0  -0.066055  0  4.037306  0  -0.015511  0  -0.021894  -0.046081  0  3.995625  0
C  C51  1  0.40805681  0.38830597  0.55395737  1  0  -0.081549  0  3.775057  0  0  -0.053695  0  4.011944  0  0  -0.066052  0  4.037305  0  -0.002346  0  -0.021901  -0.046078  0  3.995622  0
C  C52  1  0.20363696  0.38830597  0.94604339  1  0  -0.081495  0  3.775086  0  0  -0.053653  0  4.011956  0  0  -0.066012  0  4.037318  0  -0.015219  0  -0.021872  -0.046036  0  3.995633  0
C  C53  1  0.59194323  0.61169380  0.44604270  1  0  -0.081545  0  3.775084  0  0  -0.053683  0  4.011955  0  0  -0.06604  0  4.037315  0  -0.002342  0  -0.021894  -0.046066  0  3.995632  0
C  C54  1  0.82369029  0.67143713  0.12788456  1  0  -0.0431  0  3.651286  0  0  -0.081547  0  3.898385  0  0  -0.075926  0  3.915033  0  -0.054871  0  -0.067742  -0.08487  0  3.886991  0
C  C55  1  0.49512819  0.32856264  0.62788518  1  0  -0.043102  0  3.651276  0  0  -0.081539  0  3.898396  0  0  -0.075917  0  3.915042  0  -0.073638  0  -0.067741  -0.084861  0  3.887002  0
C  C56  1  0.17630879  0.32856264  0.87211556  1  0  -0.043076  0  3.651337  0  0  -0.081502  0  3.898436  0  0  -0.075885  0  3.915086  0  -0.054867  0  -0.067742  -0.084825  0  3.887041  0
C  C57  1  0.50487174  0.67143927  0.37211484  1  0  -0.043094  0  3.65126  0  0  -0.081545  0  3.89837  0  0  -0.075922  0  3.915014  0  -0.073669  0  -0.067728  -0.084866  0  3.886974  0
C  C58  1  0.88435644  0.76243708  0.11382914  1  0  -0.081073  0  3.748389  0  0  -0.053269  0  3.985309  0  0  -0.064968  0  4.0093  0  -0.02164  0  -0.019442  -0.045934  0  3.969214  0
C  C59  1  0.64679453  0.23756376  0.61382966  1  0  -0.081078  0  3.748482  0  0  -0.053329  0  3.985489  0  0  -0.065028  0  4.009479  0  -0.014908  0  -0.019458  -0.045998  0  3.969402  0
C  C60  1  0.11564156  0.23756483  0.88617031  1  0  -0.081132  0  3.748435  0  0  -0.053366  0  3.985412  0  0  -0.065064  0  4.0094  0  -0.021655  0  -0.019474  -0.046032  0  3.969319  0
C  C61  1  0.35320593  0.76243708  0.38617035  1  0  -0.081075  0  3.748454  0  0  -0.053307  0  3.985426  0  0  -0.065004  0  4.009413  0  -0.014865  0  -0.019463  -0.045975  0  3.969335  0
C  C62  1  0.92151127  0.79006757  0.02529901  1  0  -0.030906  0  3.658012  0  0  -0.071736  0  3.906487  0  0  -0.065593  0  3.923266  0  -0.025613  0  -0.065776  -0.075319  0  3.895282  0
C  C63  1  0.71157926  0.20993434  0.52529952  1  0  -0.030889  0  3.658098  0  0  -0.071723  0  3.906581  0  0  -0.06558  0  3.92336  0  0.0472  0  -0.065752  -0.075306  0  3.895375  0
C  C64  1  0.07848727  0.20993327  0.97470111  1  0  -0.030867  0  3.657978  0  0  -0.071707  0  3.90645  0  0  -0.065563  0  3.923228  0  -0.025204  0  -0.065765  -0.07529  0  3.895246  0
C  C65  1  0.28842067  0.79006757  0.47470050  1  0  -0.030921  0  3.658018  0  0  -0.071765  0  3.906496  0  0  -0.065623  0  3.923276  0  0.047199  0  -0.065783  -0.075348  0  3.895292  0
C  C66  1  0.94222907  0.75278953  0.85743225  1  0  0.692557  0  3.886459  0  0  0.636659  0  4.177897  0  0  0.673036  0  4.169562  0  1.589343  0  0.226604  0.611979  0  4.182776  0
C  C67  1  0.69502017  0.24721024  0.35743278  1  0  0.692489  0  3.886497  0  0  0.636646  0  4.177862  0  0  0.673024  0  4.169526  0  1.596067  0  0.226609  0.611967  0  4.18274  0
C  C68  1  0.05777054  0.24720917  0.14256855  1  0  0.692669  0  3.886263  0  0  0.636623  0  4.177894  0  0  0.673002  0  4.169561  0  1.589363  0  0.226634  0.611943  0  4.182773  0
C  C69  1  0.30498083  0.75278953  0.64256792  1  0  0.692542  0  3.886493  0  0  0.636645  0  4.177929  0  0  0.673023  0  4.169594  0  1.595855  0  0.22659  0.611966  0  4.182809  0
C  C70  1  0.72869121  0.51700886  0.06901398  1  0  0.64656  0  3.924311  0  0  0.595147  0  4.21533  0  0  0.629223  0  4.210235  0  1.557791  0  0.207373  0.57183  0  4.218633  0
C  C71  1  0.24570115  0.48299091  0.56901466  1  0  0.646417  0  3.92452  0  0  0.59499  0  4.215568  0  0  0.629065  0  4.210473  0  1.564725  0  0.207294  0.571673  0  4.218869  0
C  C72  1  0.27130936  0.48298984  0.93098609  1  0  0.646507  0  3.924463  0  0  0.595109  0  4.215458  0  0  0.629186  0  4.210364  0  1.557509  0  0.207335  0.571792  0  4.218761  0
C  C73  1  0.75429931  0.51700993  0.43098535  1  0  0.64642  0  3.924514  0  0  0.595  0  4.215549  0  0  0.629074  0  4.210457  0  1.564722  0  0.2073  0.571683  0  4.218851  0
C  C74  1  0.90636416  0.83373521  0.19227840  1  0  0.661191  0  3.91207  0  0  0.610549  0  4.203218  0  0  0.645391  0  4.196451  0  1.566135  0  0.211658  0.586925  0  4.20702  0
C  C75  1  0.74009970  0.16626670  0.69227889  1  0  0.661059  0  3.912273  0  0  0.610412  0  4.203463  0  0  0.645252  0  4.1967  0  1.571062  0  0.211561  0.586788  0  4.207263  0
C  C76  1  0.09363535  0.16626563  0.80772168  1  0  0.661155  0  3.912139  0  0  0.610513  0  4.203305  0  0  0.645354  0  4.19654  0  1.565946  0  0.211617  0.586889  0  4.207107  0
C  C77  1  0.25990023  0.83373521  0.30772181  1  0  0.661092  0  3.912261  0  0  0.610466  0  4.203403  0  0  0.645306  0  4.196636  0  1.570989  0  0.21161  0.586842  0  4.207204  0
C  C78  1  0.69933973  0.84525684  0.65447580  1  0  0.13436  0  3.709761  0  0  0.102734  0  3.957303  0  0  0.109734  0  3.976606  0  0.478896  0  0.049542  0.098294  0  3.943995  0
C  C79  1  0.54459656  0.15474187  0.15447572  1  0  0.134289  0  3.709816  0  0  0.102644  0  3.957381  0  0  0.109642  0  3.976687  0  0.51975  0  0.049506  0.098207  0  3.944073  0
C  C80  1  0.30066127  0.15474294  0.34552422  1  0  0.134373  0  3.709749  0  0  0.102739  0  3.957299  0  0  0.109739  0  3.976604  0  0.478914  0  0.049542  0.0983  0  3.943991  0
C  C81  1  0.45540156  0.84525791  0.84552446  1  0  0.13431  0  3.709742  0  0  0.102685  0  3.957287  0  0  0.109685  0  3.976592  0  0.51975  0  0.049514  0.098246  0  3.94398  0
C  C82  1  0.56926582  0.93541875  0.61565456  1  0  -0.146882  0  3.703637  0  0  -0.167091  0  3.953445  0  0  -0.175552  0  3.975993  0  -0.052067  0  -0.074344  -0.161614  0  3.938189  0
C  C83  1  0.50468683  0.06457888  0.11565568  1  0  -0.146927  0  3.703578  0  0  -0.167149  0  3.953392  0  0  -0.175611  0  3.975944  0  -0.05444  0  -0.074357  -0.161672  0  3.938136  0
C  C84  1  0.43073422  0.06458102  0.38434484  1  0  -0.146889  0  3.703604  0  0  -0.167111  0  3.953422  0  0  -0.175572  0  3.97597  0  -0.052109  0  -0.074351  -0.161634  0  3.938166  0
C  C85  1  0.49531374  0.93541982  0.88434507  1  0  -0.14685  0  3.703534  0  0  -0.167055  0  3.95334  0  0  -0.175517  0  3.975889  0  -0.054406  0  -0.074319  -0.161578  0  3.938084  0
C  C86  1  0.56952124  0.95568461  0.52163960  1  0  0.101777  0  3.741262  0  0  0.112118  0  3.973521  0  0  0.116094  0  3.996073  0  0.004262  0  0.021383  0.109468  0  3.958937  0
C  C87  1  0.52520561  0.04431410  0.02164081  1  0  0.101824  0  3.741238  0  0  0.112136  0  3.973569  0  0  0.11611  0  3.996123  0  -0.048997  0  0.02139  0.109486  0  3.958984  0
C  C88  1  0.43047976  0.04431517  0.47835975  1  0  0.101794  0  3.741237  0  0  0.112125  0  3.973512  0  0  0.116102  0  3.996064  0  -0.027179  0  0.02138  0.109474  0  3.958928  0
C  C89  1  0.47479400  0.95568461  0.97835998  1  0  0.101786  0  3.741255  0  0  0.112098  0  3.973564  0  0  0.116074  0  3.996116  0  -0.0041  0  0.021375  0.109447  0  3.958979  0
C  C90  1  0.70614488  0.88816244  0.47169079  1  0  -0.134061  0  3.647493  0  0  -0.152641  0  3.894461  0  0  -0.160951  0  3.915733  0  0.00742  0  -0.06609  -0.147442  0  3.880662  0
C  C91  1  0.59430668  0.11183733  0.97169204  1  0  -0.134046  0  3.64752  0  0  -0.15263  0  3.894513  0  0  -0.16094  0  3.91579  0  -0.012984  0  -0.06609  -0.147432  0  3.880713  0
C  C92  1  0.29385516  0.11183733  0.52830860  1  0  -0.134036  0  3.647504  0  0  -0.152605  0  3.894462  0  0  -0.160912  0  3.915729  0  0.007435  0  -0.066086  -0.147407  0  3.880663  0
C  C93  1  0.40569239  0.88816244  0.02830943  1  0  -0.13406  0  3.647507  0  0  -0.152618  0  3.894479  0  0  -0.160928  0  3.915752  0  -0.012954  0  -0.066086  -0.14742  0  3.88068  0
C  C94  1  0.83234879  0.79942615  0.51549310  1  0  0.163971  0  3.655223  0  0  0.130479  0  3.903218  0  0  0.138749  0  3.919831  0  0.434338  0  0.066822  0.125322  0  3.891565  0
C  C95  1  0.63177395  0.20057470  0.01549439  1  0  0.163938  0  3.655108  0  0  0.130454  0  3.903095  0  0  0.138727  0  3.919701  0  0.483109  0  0.066806  0.1253  0  3.891443  0
C  C96  1  0.16765125  0.20057363  0.48450629  1  0  0.1639  0  3.655158  0  0  0.130407  0  3.903146  0  0  0.138678  0  3.919759  0  0.434338  0  0.066782  0.125251  0  3.891493  0
C  C97  1  0.36822459  0.79942615  0.98450641  1  0  0.164012  0  3.655163  0  0  0.130513  0  3.903156  0  0  0.138783  0  3.919772  0  0.483097  0  0.066829  0.125357  0  3.891503  0
N  N98  1  0.82850087  0.77606181  0.60512291  1  0  -0.335264  0  3.32675  0  0  -0.248506  0  3.606462  0  0  -0.26837  0  3.619703  0  -1.259408  0  -0.330104  -0.235124  0  3.597222  0
N  N99  1  0.60456132  0.22393796  0.10512426  1  0  -0.335211  0  3.326681  0  0  -0.248439  0  3.60637  0  0  -0.268303  0  3.619618  0  -1.25526  0  -0.330075  -0.235065  0  3.597136  0
N  N100  1  0.17150013  0.22393796  0.39487644  1  0  -0.33521  0  3.326681  0  0  -0.248438  0  3.606373  0  0  -0.268307  0  3.619621  0  -1.259411  0  -0.330068  -0.235059  0  3.597134  0
N  N101  1  0.39543680  0.77606181  0.89487659  1  0  -0.335287  0  3.326778  0  0  -0.248529  0  3.606488  0  0  -0.268395  0  3.619733  0  -1.255252  0  -0.330126  -0.235148  0  3.597249  0
O  O102  1  0.91883894  0.68928735  0.79495676  1  0  -0.657672  0  2.118162  0  0  -0.581446  0  2.400644  0  0  -0.609391  0  2.382555  0  -1.19637  0  -0.320397  -0.561955  0  2.412394  0
O  O103  1  0.60812810  0.31071028  0.29495669  1  0  -0.657616  0  2.118092  0  0  -0.581419  0  2.400553  0  0  -0.609361  0  2.382465  0  -1.201075  0  -0.320399  -0.561926  0  2.412303  0
O  O104  1  0.08116270  0.31070921  0.20504399  1  0  -0.657649  0  2.118119  0  0  -0.581375  0  2.400668  0  0  -0.609317  0  2.382581  0  -1.196361  0  -0.320374  -0.561881  0  2.412417  0
O  O105  1  0.39187354  0.68928628  0.70504338  1  0  -0.657659  0  2.118148  0  0  -0.581442  0  2.400636  0  0  -0.609385  0  2.382548  0  -1.200877  0  -0.320396  -0.56195  0  2.412387  0
O  O106  1  0.99658103  0.83630497  0.84768079  1  0  -0.646956  0  2.097634  0  0  -0.576665  0  2.383955  0  0  -0.604458  0  2.362735  0  -1.190958  0  -0.312582  -0.557499  0  2.398282  0
O  O107  1  0.83288686  0.16369587  0.34768195  1  0  -0.646955  0  2.097696  0  0  -0.576691  0  2.383996  0  0  -0.604484  0  2.362774  0  -1.198664  0  -0.312596  -0.557526  0  2.398323  0
O  O108  1  0.00341709  0.16369480  0.15231872  1  0  -0.646988  0  2.097638  0  0  -0.576656  0  2.38403  0  0  -0.60445  0  2.36281  0  -1.190997  0  -0.312591  -0.557492  0  2.398358  0
O  O109  1  0.16711510  0.83630390  0.65231869  1  0  -0.646951  0  2.09769  0  0  -0.576662  0  2.384012  0  0  -0.604456  0  2.362793  0  -1.198639  0  -0.312566  -0.557498  0  2.398339  0
O  O110  1  0.71209357  0.48732771  0.15319921  1  0  -0.636845  0  2.080846  0  0  -0.558617  0  2.35827  0  0  -0.588644  0  2.342676  0  -1.148797  0  -0.321369  -0.537533  0  2.368333  0
O  O111  1  0.19942114  0.51266885  0.65319939  1  0  -0.636782  0  2.080898  0  0  -0.558545  0  2.358301  0  0  -0.588588  0  2.342741  0  -1.151037  0  -0.321335  -0.537461  0  2.368361  0
O  O112  1  0.28790593  0.51267314  0.84680154  1  0  -0.636826  0  2.080885  0  0  -0.558595  0  2.358286  0  0  -0.588631  0  2.34271  0  -1.148831  0  -0.321356  -0.537513  0  2.36835  0
O  O113  1  0.80057932  0.48733199  0.34679996  1  0  -0.636782  0  2.080896  0  0  -0.55855  0  2.358299  0  0  -0.588589  0  2.342732  0  -1.151032  0  -0.321353  -0.537466  0  2.36836  0
O  O114  1  0.69167661  0.47077039  0.00469462  1  0  -0.645967  0  1.974805  0  0  -0.593923  0  2.205186  0  0  -0.618723  0  2.195285  0  -1.204365  0  -0.315501  -0.57668  0  2.211962  0
O  O115  1  0.16244903  0.52923152  0.50469521  1  0  -0.645904  0  1.974876  0  0  -0.593856  0  2.205266  0  0  -0.618651  0  2.195357  0  -1.206645  0  -0.31546  -0.576613  0  2.21204  0
O  O116  1  0.30832546  0.52922724  0.99530540  1  0  -0.645959  0  1.974844  0  0  -0.593935  0  2.205251  0  0  -0.61872  0  2.195319  0  -1.204364  0  -0.315484  -0.576691  0  2.212025  0
O  O117  1  0.83755197  0.47076825  0.49530481  1  0  -0.645903  0  1.974861  0  0  -0.593849  0  2.205234  0  0  -0.61865  0  2.19534  0  -1.206658  0  -0.315459  -0.576607  0  2.212009  0
O  O118  1  0.91733397  0.94597926  0.17012710  1  0  -0.656076  0  2.077564  0  0  -0.584811  0  2.359981  0  0  -0.615404  0  2.342492  0  -1.160044  0  -0.325534  -0.563376  0  2.371367  0
O  O119  1  0.86331611  0.05402480  0.67012733  1  0  -0.656038  0  2.0776  0  0  -0.584763  0  2.360025  0  0  -0.615354  0  2.342535  0  -1.169221  0  -0.325516  -0.563328  0  2.371411  0
O  O120  1  0.08266499  0.05402266  0.82987297  1  0  -0.656069  0  2.077582  0  0  -0.5848  0  2.360007  0  0  -0.615389  0  2.342512  0  -1.16004  0  -0.32553  -0.563365  0  2.371394  0
O  O121  1  0.13668713  0.94597819  0.32987248  1  0  -0.656039  0  2.077615  0  0  -0.584774  0  2.360026  0  0  -0.615369  0  2.342541  0  -1.169246  0  -0.325533  -0.563341  0  2.371412  0
O  O122  1  0.90953010  0.78643288  0.27177433  1  0  -0.644118  0  1.950246  0  0  -0.590374  0  2.166403  0  0  -0.614028  0  2.154661  0  -1.196378  0  -0.32471  -0.573751  0  2.174063  0
O  O123  1  0.69596202  0.21356796  0.77177495  1  0  -0.644021  0  1.950296  0  0  -0.59026  0  2.166456  0  0  -0.613913  0  2.154716  0  -1.195421  0  -0.324631  -0.573634  0  2.174111  0
O  O124  1  0.09046941  0.21356796  0.72822506  1  0  -0.64407  0  1.950247  0  0  -0.590331  0  2.166396  0  0  -0.613986  0  2.154655  0  -1.196223  0  -0.324667  -0.573705  0  2.174049  0
O  O125  1  0.30403652  0.78643288  0.22822517  1  0  -0.64407  0  1.950302  0  0  -0.590311  0  2.166445  0  0  -0.613967  0  2.154706  0  -1.195393  0  -0.324651  -0.573683  0  2.174096  0
O  O126  1  0.91379686  0.47412360  0.66655544  1  0  -0.843755  0  1.867913  0  0  -0.772733  0  2.070153  0  0  -0.795315  0  2.032639  0  -1.283638  0  -0.575527  -0.75684  0  2.096407  0
O  O127  1  0.38792162  0.52587618  0.16655614  1  0  -0.843884  0  1.86776  0  0  -0.772819  0  2.070089  0  0  -0.795403  0  2.032573  0  -1.288329  0  -0.575553  -0.75693  0  2.096349  0
O  O128  1  0.08620318  0.52587618  0.33344463  1  0  -0.843765  0  1.86788  0  0  -0.772726  0  2.070145  0  0  -0.795308  0  2.03263  0  -1.283596  0  -0.575522  -0.756832  0  2.096397  0
O  O129  1  0.61207842  0.47412360  0.83344461  1  0  -0.843822  0  1.867827  0  0  -0.772768  0  2.07013  0  0  -0.795351  0  2.032616  0  -1.288275  0  -0.575526  -0.756874  0  2.096383  0
