# generated using pymatgen
data_GdH4C5O8
_symmetry_space_group_name_H-M   'P 1'
_cell_length_a   9.64166521
_cell_length_b   9.71644384
_cell_length_c   9.91153574
_cell_angle_alpha   89.99998355
_cell_angle_beta   119.90299043
_cell_angle_gamma   90.00004278
_symmetry_Int_Tables_number   1
_chemical_formula_structural   GdH4C5O8
_chemical_formula_sum   'Gd4 H16 C20 O32'
_cell_volume   804.92364077
_cell_formula_units_Z   4
loop_
 _symmetry_equiv_pos_site_id
 _symmetry_equiv_pos_as_xyz
  1  'x, y, z'
loop_
 _atom_site_type_symbol
 _atom_site_label
 _atom_site_symmetry_multiplicity
 _atom_site_fract_x
 _atom_site_fract_y
 _atom_site_fract_z
 _atom_site_occupancy
 _atom_site_hle17_bader_spin_density
 _atom_site_hle17_ddec_charge
 _atom_site_hle17_ddec_spin_density
 _atom_site_hle17_ddec_sum_bond_order
 _atom_site_hle17_magmom
 _atom_site_hse06_10hf_bader_spin_density
 _atom_site_hse06_10hf_ddec_charge
 _atom_site_hse06_10hf_ddec_spin_density
 _atom_site_hse06_10hf_ddec_sum_bond_order
 _atom_site_hse06_10hf_magmom
 _atom_site_hse06_bader_spin_density
 _atom_site_hse06_ddec_charge
 _atom_site_hse06_ddec_spin_density
 _atom_site_hse06_ddec_sum_bond_order
 _atom_site_hse06_magmom
 _atom_site_pbe_bader_spin_density
 _atom_site_pbe_cm5_charge
 _atom_site_pbe_ddec_charge
 _atom_site_pbe_ddec_spin_density
 _atom_site_pbe_ddec_sum_bond_order
 _atom_site_pbe_magmom
Gd  Gd0  1  0.27132181  0.44040805  0.63451929  1  0  2.183054  0  1.751895  0  0  2.093767  0  2.093766  0  0  2.140837  0  2.049139  0  0  1.457967  2.054071  0  2.133967  0
Gd  Gd1  1  0.72867852  0.94040799  0.86547994  1  0  2.183089  0  1.751878  0  0  2.093784  0  2.093754  0  0  2.140846  0  2.049133  0  0  1.457968  2.054093  0  2.133953  0
Gd  Gd2  1  0.72867843  0.55959281  0.36548034  1  0  2.18309  0  1.751902  0  0  2.093756  0  2.093814  0  0  2.140836  0  2.049167  0  0  1.457963  2.05408  0  2.133985  0
Gd  Gd3  1  0.27132171  0.05959184  0.13451970  1  0  2.183102  0  1.751857  0  0  2.0938  0  2.093749  0  0  2.14086  0  2.049141  0  0  1.457981  2.054097  0  2.133967  0
H  H4  1  0.52469974  0.37194272  0.96308695  1  0  0.433039  0  0.867325  0  0  0.403745  0  0.927872  0  0  0.414912  0  0.911618  0  0  0.303895  0.395669  0  0.939698  0
H  H5  1  0.47530053  0.87194359  0.53691227  1  0  0.433061  0  0.867291  0  0  0.403753  0  0.927862  0  0  0.414919  0  0.911608  0  0  0.303896  0.395677  0  0.939689  0
H  H6  1  0.47530050  0.62805608  0.03691268  1  0  0.433039  0  0.867326  0  0  0.403732  0  0.927895  0  0  0.414899  0  0.911641  0  0  0.303887  0.395656  0  0.939722  0
H  H7  1  0.52469970  0.12805727  0.46308736  1  0  0.433026  0  0.867343  0  0  0.403735  0  0.927888  0  0  0.4149  0  0.911636  0  0  0.303893  0.395659  0  0.939714  0
H  H8  1  0.54867509  0.26616124  0.85827542  1  0  0.433553  0  0.851  0  0  0.40556  0  0.918771  0  0  0.415965  0  0.903602  0  0  0.309423  0.398232  0  0.929463  0
H  H9  1  0.45132391  0.76616104  0.64172424  1  0  0.433564  0  0.850986  0  0  0.40557  0  0.918757  0  0  0.415976  0  0.903587  0  0  0.309423  0.398242  0  0.929449  0
H  H10  1  0.45132396  0.73383859  0.14172466  1  0  0.433559  0  0.850989  0  0  0.405566  0  0.918762  0  0  0.415971  0  0.903593  0  0  0.309428  0.398237  0  0.929453  0
H  H11  1  0.54867513  0.23383879  0.35827483  1  0  0.433552  0  0.850995  0  0  0.40556  0  0.918771  0  0  0.415964  0  0.903604  0  0  0.309423  0.398231  0  0.929463  0
H  H12  1  0.25580779  0.17921477  0.46339132  1  0  0.445267  0  0.842972  0  0  0.415598  0  0.903805  0  0  0.426055  0  0.888581  0  0  0.311128  0.408317  0  0.914376  0
H  H13  1  0.74419125  0.67921482  0.03660816  1  0  0.445347  0  0.842861  0  0  0.415632  0  0.903792  0  0  0.426097  0  0.888552  0  0  0.31111  0.408344  0  0.914376  0
H  H14  1  0.74419125  0.82078506  0.53660775  1  0  0.445362  0  0.842841  0  0  0.415651  0  0.903762  0  0  0.426114  0  0.888525  0  0  0.311119  0.408364  0  0.914347  0
H  H15  1  0.25580898  0.32078501  0.96339147  1  0  0.445275  0  0.842959  0  0  0.415604  0  0.903796  0  0  0.426063  0  0.88857  0  0  0.311133  0.408321  0  0.914369  0
H  H16  1  0.34183125  0.12800983  0.64402648  1  0  0.455689  0  0.826628  0  0  0.427018  0  0.884321  0  0  0.438513  0  0.867367  0  0  0.310247  0.41897  0  0.896109  0
H  H17  1  0.65816764  0.62800972  0.85597316  1  0  0.455741  0  0.826556  0  0  0.427073  0  0.88424  0  0  0.438565  0  0.867289  0  0  0.310268  0.419024  0  0.896027  0
H  H18  1  0.65816660  0.87199000  0.35597303  1  0  0.455734  0  0.826568  0  0  0.427065  0  0.884255  0  0  0.438557  0  0.867305  0  0  0.310263  0.419016  0  0.896043  0
H  H19  1  0.34183140  0.37199011  0.14402590  1  0  0.455701  0  0.826611  0  0  0.427031  0  0.884303  0  0  0.438523  0  0.867353  0  0  0.310252  0.418981  0  0.896093  0
C  C20  1  0.16882010  0.73946396  0.42574572  1  0  0.233361  0  3.791277  0  0  0.213272  0  4.069838  0  0  0.226228  0  4.081989  0  0  0.125647  0.204363  0  4.061481  0
C  C21  1  0.83117898  0.23946342  0.07425377  1  0  0.233463  0  3.791171  0  0  0.213363  0  4.069761  0  0  0.226318  0  4.081908  0  0  0.125681  0.204454  0  4.061403  0
C  C22  1  0.83118252  0.26053793  0.57425506  1  0  0.233329  0  3.791367  0  0  0.213246  0  4.06992  0  0  0.226201  0  4.082069  0  0  0.125644  0.204337  0  4.061563  0
C  C23  1  0.16882005  0.76053641  0.92574530  1  0  0.233405  0  3.791212  0  0  0.213314  0  4.069788  0  0  0.226267  0  4.08194  0  0  0.125651  0.204404  0  4.061426  0
C  C24  1  0.20408703  0.84588563  0.34132605  1  0  0.198316  0  3.846096  0  0  0.174861  0  4.12394  0  0  0.186427  0  4.136727  0  0  0.107254  0.166532  0  4.115402  0
C  C25  1  0.79590976  0.34588505  0.15867231  1  0  0.198302  0  3.846121  0  0  0.174823  0  4.12397  0  0  0.186392  0  4.136752  0  0  0.107215  0.166495  0  4.115432  0
C  C26  1  0.79591320  0.15411523  0.65867257  1  0  0.198386  0  3.846095  0  0  0.17491  0  4.123963  0  0  0.186478  0  4.136746  0  0  0.107284  0.166582  0  4.115424  0
C  C27  1  0.20408809  0.65411478  0.84132618  1  0  0.198364  0  3.84606  0  0  0.174899  0  4.123919  0  0  0.186467  0  4.136707  0  0  0.107264  0.166573  0  4.115372  0
C  C28  1  0.43036772  0.48114835  0.41753216  1  0  0.569422  0  3.904824  0  0  0.524551  0  4.21078  0  0  0.554784  0  4.201082  0  0  0.219854  0.503998  0  4.216511  0
C  C29  1  0.56963277  0.98114929  0.08246894  1  0  0.569502  0  3.90478  0  0  0.524604  0  4.210777  0  0  0.554837  0  4.201076  0  0  0.219877  0.504038  0  4.216529  0
C  C30  1  0.56963254  0.51885148  0.58246950  1  0  0.569544  0  3.904774  0  0  0.524639  0  4.210776  0  0  0.554865  0  4.201087  0  0  0.219879  0.504078  0  4.216515  0
C  C31  1  0.43036746  0.01885157  0.91753070  1  0  0.569491  0  3.904777  0  0  0.524596  0  4.210774  0  0  0.55482  0  4.201083  0  0  0.219849  0.50404  0  4.216517  0
C  C32  1  0.04264186  0.83653341  0.21036588  1  0  0.237126  0  3.87195  0  0  0.213811  0  4.157392  0  0  0.227334  0  4.16735  0  0  0.120982  0.204415  0  4.150373  0
C  C33  1  0.95735851  0.33653290  0.28963418  1  0  0.237205  0  3.871899  0  0  0.213902  0  4.15734  0  0  0.227423  0  4.167299  0  0  0.121026  0.204506  0  4.150321  0
C  C34  1  0.95735959  0.16346848  0.78963534  1  0  0.237132  0  3.871959  0  0  0.213795  0  4.157445  0  0  0.227316  0  4.167408  0  0  0.120959  0.204399  0  4.150425  0
C  C35  1  0.04264172  0.66346590  0.71036443  1  0  0.237107  0  3.871967  0  0  0.213804  0  4.157403  0  0  0.227326  0  4.167362  0  0  0.120956  0.204408  0  4.150378  0
C  C36  1  0.00197368  0.73027846  0.29102902  1  0  0.255964  0  3.764965  0  0  0.234449  0  4.043962  0  0  0.24883  0  4.053346  0  0  0.139878  0.224853  0  4.037119  0
C  C37  1  0.99802539  0.23027800  0.20896945  1  0  0.255861  0  3.765015  0  0  0.234344  0  4.044042  0  0  0.248723  0  4.053428  0  0  0.139864  0.224748  0  4.0372  0
C  C38  1  0.99803015  0.26972240  0.70897233  1  0  0.255971  0  3.765094  0  0  0.234467  0  4.044093  0  0  0.248847  0  4.053479  0  0  0.139874  0.224871  0  4.037251  0
C  C39  1  0.00197365  0.76972080  0.79102961  1  0  0.255959  0  3.764937  0  0  0.234449  0  4.043929  0  0  0.248831  0  4.053312  0  0  0.139914  0.224853  0  4.037084  0
O  O40  1  0.25155173  0.68043826  0.55538138  1  0  -0.586971  0  2.194314  0  0  -0.543289  0  2.431873  0  0  -0.565889  0  2.430326  0  0  -0.348156  -0.526744  0  2.432872  0
O  O41  1  0.74844720  0.18043755  0.94461725  1  0  -0.587031  0  2.194291  0  0  -0.543342  0  2.431854  0  0  -0.565941  0  2.430305  0  0  -0.348178  -0.5268  0  2.432854  0
O  O42  1  0.74844971  0.31956260  0.44461882  1  0  -0.586968  0  2.194391  0  0  -0.543284  0  2.431949  0  0  -0.565887  0  2.430402  0  0  -0.348135  -0.526743  0  2.432948  0
O  O43  1  0.25155304  0.81956228  0.05538238  1  0  -0.587023  0  2.19428  0  0  -0.543333  0  2.431842  0  0  -0.565935  0  2.430297  0  0  -0.348172  -0.526789  0  2.43284  0
O  O44  1  0.32304522  0.91825577  0.36121089  1  0  -0.565774  0  2.119496  0  0  -0.513696  0  2.346553  0  0  -0.535572  0  2.342014  0  0  -0.341384  -0.497904  0  2.35017  0
O  O45  1  0.67695521  0.41825510  0.13878919  1  0  -0.565813  0  2.119638  0  0  -0.513697  0  2.346648  0  0  -0.535574  0  2.342107  0  0  -0.341374  -0.49791  0  2.350264  0
O  O46  1  0.67695861  0.08174509  0.63879046  1  0  -0.565817  0  2.119585  0  0  -0.513704  0  2.346601  0  0  -0.535579  0  2.342061  0  0  -0.341419  -0.497917  0  2.350219  0
O  O47  1  0.32304502  0.58174472  0.86121044  1  0  -0.565792  0  2.119494  0  0  -0.51372  0  2.346556  0  0  -0.535598  0  2.342018  0  0  -0.341375  -0.497932  0  2.35017  0
O  O48  1  0.29822313  0.44948960  0.40528111  1  0  -0.62805  0  2.076341  0  0  -0.591395  0  2.317474  0  0  -0.615117  0  2.31121  0  0  -0.356458  -0.57427  0  2.320931  0
O  O49  1  0.70177732  0.94948960  0.09471795  1  0  -0.628094  0  2.076345  0  0  -0.591422  0  2.317489  0  0  -0.615145  0  2.31123  0  0  -0.356467  -0.574289  0  2.32095  0
O  O50  1  0.70177830  0.55051125  0.59471909  1  0  -0.628104  0  2.07629  0  0  -0.591432  0  2.317445  0  0  -0.615158  0  2.311189  0  0  -0.356477  -0.574307  0  2.320906  0
O  O51  1  0.29822291  0.05051126  0.90528067  1  0  -0.628088  0  2.076306  0  0  -0.591421  0  2.317453  0  0  -0.615142  0  2.311195  0  0  -0.356453  -0.574291  0  2.320913  0
O  O52  1  0.46211103  0.48592585  0.30705906  1  0  -0.67735  0  2.079395  0  0  -0.629161  0  2.313105  0  0  -0.653155  0  2.302017  0  0  -0.357618  -0.611934  0  2.320078  0
O  O53  1  0.53788945  0.98592673  0.19294103  1  0  -0.677386  0  2.079403  0  0  -0.629191  0  2.313128  0  0  -0.653179  0  2.302039  0  0  -0.357622  -0.611956  0  2.320109  0
O  O54  1  0.53789161  0.51407295  0.69294273  1  0  -0.677374  0  2.079424  0  0  -0.629185  0  2.313154  0  0  -0.653173  0  2.302069  0  0  -0.357595  -0.611954  0  2.320131  0
O  O55  1  0.46210959  0.01407413  0.80705804  1  0  -0.677366  0  2.079424  0  0  -0.629172  0  2.313144  0  0  -0.653162  0  2.302059  0  0  -0.357607  -0.611942  0  2.320122  0
O  O56  1  0.29771433  0.20792486  0.57261155  1  0  -0.905635  0  1.854652  0  0  -0.862204  0  2.03772  0  0  -0.881104  0  2.004697  0  0  -0.639168  -0.847678  0  2.060751  0
O  O57  1  0.70228462  0.70792579  0.92738708  1  0  -0.905756  0  1.854508  0  0  -0.862301  0  2.03758  0  0  -0.881204  0  2.004552  0  0  -0.63917  -0.847774  0  2.060612  0
O  O58  1  0.70228471  0.79207497  0.42738751  1  0  -0.905759  0  1.854504  0  0  -0.862303  0  2.037573  0  0  -0.88121  0  2.004549  0  0  -0.639172  -0.847779  0  2.060605  0
O  O59  1  0.29771442  0.29207404  0.07261198  1  0  -0.905665  0  1.85463  0  0  -0.862229  0  2.037702  0  0  -0.881125  0  2.004679  0  0  -0.63918  -0.8477  0  2.060735  0
O  O60  1  0.97892287  0.89778972  0.08153203  1  0  -0.613096  0  2.258646  0  0  -0.581034  0  2.52591  0  0  -0.602266  0  2.52123  0  0  -0.372825  -0.565345  0  2.528976  0
O  O61  1  0.02107635  0.39778849  0.41846747  1  0  -0.613124  0  2.258667  0  0  -0.581051  0  2.525889  0  0  -0.602283  0  2.521213  0  0  -0.372843  -0.565362  0  2.528956  0
O  O62  1  0.02107736  0.10221114  0.91846760  1  0  -0.613136  0  2.258706  0  0  -0.581045  0  2.525946  0  0  -0.602267  0  2.52125  0  0  -0.372822  -0.565355  0  2.529016  0
O  O63  1  0.97892269  0.60221134  0.58153159  1  0  -0.613105  0  2.258707  0  0  -0.581028  0  2.525928  0  0  -0.602257  0  2.521237  0  0  -0.372831  -0.565345  0  2.528995  0
O  O64  1  0.46530904  0.32372857  0.86075779  1  0  -0.892931  0  1.921821  0  0  -0.854093  0  2.124762  0  0  -0.873167  0  2.093272  0  0  -0.650003  -0.839603  0  2.146856  0
O  O65  1  0.53469000  0.82372946  0.63924086  1  0  -0.892964  0  1.921773  0  0  -0.854123  0  2.12475  0  0  -0.873174  0  2.093215  0  0  -0.649997  -0.839633  0  2.146843  0
O  O66  1  0.53469000  0.67627023  0.13924127  1  0  -0.89293  0  1.921792  0  0  -0.854085  0  2.124771  0  0  -0.873141  0  2.093239  0  0  -0.650001  -0.839598  0  2.146862  0
O  O67  1  0.46530904  0.17627140  0.36075820  1  0  -0.892916  0  1.921815  0  0  -0.854085  0  2.124762  0  0  -0.873151  0  2.093268  0  0  -0.649998  -0.839593  0  2.146856  0
O  O68  1  0.87770062  0.66101785  0.25322206  1  0  -0.575025  0  2.187266  0  0  -0.531767  0  2.428112  0  0  -0.553636  0  2.42451  0  0  -0.340671  -0.515944  0  2.430349  0
O  O69  1  0.12229959  0.16101674  0.24677697  1  0  -0.574961  0  2.187252  0  0  -0.53173  0  2.428115  0  0  -0.553589  0  2.424515  0  0  -0.340671  -0.515906  0  2.430352  0
O  O70  1  0.12230320  0.33898301  0.74677928  1  0  -0.575011  0  2.187299  0  0  -0.531782  0  2.428149  0  0  -0.553643  0  2.424549  0  0  -0.340677  -0.515958  0  2.430385  0
O  O71  1  0.87769945  0.83898309  0.75322209  1  0  -0.575041  0  2.187228  0  0  -0.531799  0  2.428093  0  0  -0.553666  0  2.424491  0  0  -0.340701  -0.515975  0  2.43033  0
