# generated using pymatgen
data_ZnH16C14(NO)4
_symmetry_space_group_name_H-M   'P 1'
_cell_length_a   8.12265401
_cell_length_b   9.90824002
_cell_length_c   10.52087972
_cell_angle_alpha   97.00144203
_cell_angle_beta   109.72429109
_cell_angle_gamma   99.60776544
_symmetry_Int_Tables_number   1
_chemical_formula_structural   ZnH16C14(NO)4
_chemical_formula_sum   'Zn2 H32 C28 N8 O8'
_cell_volume   771.24818469
_cell_formula_units_Z   2
loop_
 _symmetry_equiv_pos_site_id
 _symmetry_equiv_pos_as_xyz
  1  'x, y, z'
loop_
 _atom_site_type_symbol
 _atom_site_label
 _atom_site_symmetry_multiplicity
 _atom_site_fract_x
 _atom_site_fract_y
 _atom_site_fract_z
 _atom_site_occupancy
 _atom_site_hle17_bader_spin_density
 _atom_site_hle17_ddec_charge
 _atom_site_hle17_ddec_spin_density
 _atom_site_hle17_ddec_sum_bond_order
 _atom_site_hle17_magmom
 _atom_site_hse06_10hf_bader_spin_density
 _atom_site_hse06_10hf_ddec_charge
 _atom_site_hse06_10hf_ddec_spin_density
 _atom_site_hse06_10hf_ddec_sum_bond_order
 _atom_site_hse06_10hf_magmom
 _atom_site_hse06_bader_spin_density
 _atom_site_hse06_ddec_charge
 _atom_site_hse06_ddec_spin_density
 _atom_site_hse06_ddec_sum_bond_order
 _atom_site_hse06_magmom
 _atom_site_pbe_bader_spin_density
 _atom_site_pbe_cm5_charge
 _atom_site_pbe_ddec_charge
 _atom_site_pbe_ddec_spin_density
 _atom_site_pbe_ddec_sum_bond_order
 _atom_site_pbe_magmom
Zn  Zn0  1  0.96755743  0.33307352  0.22212603  1  0  0.999887  0  1.895383  0  0  0.809035  0  2.377797  0  0  0.855816  0  2.321984  0  0  0.694383  0.776449  0  2.416195  0
Zn  Zn1  1  0.03243963  0.66692690  0.77787372  1  0  0.999901  0  1.895475  0  0  0.809058  0  2.377902  0  0  0.855836  0  2.322088  0  0  0.694402  0.776469  0  2.416306  0
H  H2  1  0.50707497  0.62071685  0.10986293  1  0  0.105893  0  0.960496  0  0  0.112457  0  1.027253  0  0  0.116298  0  1.025218  0  0  0.100177  0.109706  0  1.028913  0
H  H3  1  0.49291644  0.37927728  0.89013369  1  0  0.105902  0  0.960493  0  0  0.112456  0  1.027276  0  0  0.116294  0  1.025246  0  0  0.100174  0.10971  0  1.028933  0
H  H4  1  0.88048527  0.08835717  0.54000760  1  0  0.112235  0  0.967052  0  0  0.120872  0  1.031921  0  0  0.124543  0  1.030216  0  0  0.107023  0.118265  0  1.033241  0
H  H5  1  0.11952199  0.91164228  0.45999476  1  0  0.112231  0  0.967062  0  0  0.120853  0  1.03197  0  0  0.12453  0  1.030246  0  0  0.107033  0.118245  0  1.033292  0
H  H6  1  0.87628089  0.33834759  0.90840745  1  0  0.113937  0  0.954669  0  0  0.122702  0  1.01396  0  0  0.125428  0  1.013109  0  0  0.119035  0.120704  0  1.014718  0
H  H7  1  0.12371734  0.66164765  0.09159300  1  0  0.113985  0  0.954734  0  0  0.122769  0  1.013977  0  0  0.125488  0  1.013149  0  0  0.119038  0.120767  0  1.014739  0
H  H8  1  0.07011265  0.22678259  0.76401780  1  0  0.119993  0  0.96778  0  0  0.128086  0  1.032299  0  0  0.130583  0  1.031398  0  0  0.122919  0.126469  0  1.032718  0
H  H9  1  0.92988646  0.77321576  0.23598132  1  0  0.120009  0  0.967774  0  0  0.128129  0  1.032265  0  0  0.130627  0  1.031366  0  0  0.12293  0.126513  0  1.032684  0
H  H10  1  0.20207280  0.10749040  0.15380361  1  0  0.105941  0  0.959176  0  0  0.113023  0  1.027142  0  0  0.116113  0  1.023219  0  0  0.136535  0.110771  0  1.029943  0
H  H11  1  0.79792471  0.89250690  0.84619592  1  0  0.10597  0  0.959119  0  0  0.113034  0  1.027112  0  0  0.116125  0  1.023187  0  0  0.13652  0.110742  0  1.029963  0
H  H12  1  0.20291026  0.96041452  0.84729286  1  0  0.06971  0  0.970262  0  0  0.082467  0  1.041101  0  0  0.082528  0  1.041607  0  0  0.106668  0.082263  0  1.040952  0
H  H13  1  0.79709861  0.03958598  0.15270909  1  0  0.069713  0  0.970151  0  0  0.08246  0  1.041045  0  0  0.082524  0  1.041546  0  0  0.106674  0.082243  0  1.040905  0
H  H14  1  0.33647367  0.11769339  0.83918022  1  0  0.076178  0  0.906836  0  0  0.096638  0  0.962064  0  0  0.096947  0  0.96212  0  0  0.114699  0.09631  0  0.962223  0
H  H15  1  0.66353340  0.88231025  0.16082539  1  0  0.076144  0  0.906823  0  0  0.096636  0  0.96206  0  0  0.096944  0  0.96212  0  0  0.11471  0.096301  0  0.962213  0
H  H16  1  0.39208076  0.98197489  0.09386977  1  0  0.071077  0  0.925771  0  0  0.091862  0  0.980783  0  0  0.09245  0  0.981645  0  0  0.094487  0.091208  0  0.980613  0
H  H17  1  0.60792049  0.01802664  0.90613500  1  0  0.071107  0  0.925802  0  0  0.091884  0  0.980778  0  0  0.092469  0  0.981638  0  0  0.094512  0.091232  0  0.980607  0
H  H18  1  0.52551123  0.14265307  0.08982407  1  0  0.086473  0  0.934369  0  0  0.103086  0  0.994176  0  0  0.104512  0  0.994223  0  0  0.096332  0.10196  0  0.994242  0
H  H19  1  0.47449161  0.85734951  0.91018125  1  0  0.086526  0  0.934457  0  0  0.103129  0  0.99423  0  0  0.104534  0  0.994301  0  0  0.096333  0.102002  0  0.994302  0
H  H20  1  0.36767518  0.40733617  0.22887787  1  0  0.098299  0  0.963999  0  0  0.109344  0  1.02264  0  0  0.110995  0  1.023076  0  0  0.11502  0.108183  0  1.022478  0
H  H21  1  0.63232044  0.59266839  0.77111908  1  0  0.098284  0  0.96402  0  0  0.109327  0  1.022661  0  0  0.110978  0  1.023096  0  0  0.114997  0.108167  0  1.022498  0
H  H22  1  0.60871341  0.64736802  0.39201166  1  0  0.133027  0  0.955004  0  0  0.141063  0  1.015783  0  0  0.144512  0  1.013523  0  0  0.123994  0.138605  0  1.017385  0
H  H23  1  0.39128383  0.35263757  0.60798393  1  0  0.133015  0  0.955038  0  0  0.141063  0  1.015812  0  0  0.144508  0  1.013553  0  0  0.123988  0.138606  0  1.017411  0
H  H24  1  0.11154354  0.62514149  0.44878958  1  0  0.115912  0  0.94823  0  0  0.122404  0  1.014329  0  0  0.12569  0  1.010077  0  0  0.13756  0.119913  0  1.017557  0
H  H25  1  0.88845803  0.37486105  0.55121254  1  0  0.115924  0  0.948241  0  0  0.122403  0  1.014359  0  0  0.125686  0  1.010106  0  0  0.137572  0.119913  0  1.017585  0
H  H26  1  0.58229560  0.81375480  0.61173142  1  0  0.088966  0  0.954033  0  0  0.104566  0  1.016596  0  0  0.105896  0  1.01571  0  0  0.108938  0.103534  0  1.017448  0
H  H27  1  0.41770365  0.18624875  0.38826734  1  0  0.089046  0  0.953975  0  0  0.104623  0  1.016549  0  0  0.105964  0  1.015658  0  0  0.108966  0.10359  0  1.017404  0
H  H28  1  0.35754734  0.82578148  0.59137194  1  0  0.08509  0  0.946508  0  0  0.098794  0  1.010863  0  0  0.100246  0  1.00992  0  0  0.109387  0.097654  0  1.011781  0
H  H29  1  0.64245324  0.17422207  0.40862622  1  0  0.085067  0  0.946572  0  0  0.098775  0  1.010901  0  0  0.100228  0  1.009967  0  0  0.109379  0.097634  0  1.011817  0
H  H30  1  0.56081873  0.90956165  0.40268917  1  0  0.065466  0  0.933688  0  0  0.083929  0  0.995185  0  0  0.084406  0  0.996029  0  0  0.089518  0.083486  0  0.994828  0
H  H31  1  0.43917893  0.09044085  0.59730810  1  0  0.06547  0  0.933687  0  0  0.083943  0  0.995174  0  0  0.084407  0  0.996028  0  0  0.089515  0.083499  0  0.994817  0
H  H32  1  0.33580057  0.92180011  0.37305519  1  0  0.066821  0  0.947299  0  0  0.081356  0  1.015978  0  0  0.082344  0  1.016093  0  0  0.088608  0.08046  0  1.016326  0
H  H33  1  0.66419709  0.07820239  0.62694303  1  0  0.066824  0  0.94728  0  0  0.08138  0  1.015955  0  0  0.082344  0  1.016089  0  0  0.088598  0.080478  0  1.016298  0
C  C34  1  0.70235740  0.48644526  0.15886555  1  0  0.66003  0  3.949532  0  0  0.619458  0  4.234763  0  0  0.653242  0  4.22709  0  0  0.191221  0.596512  0  4.239322  0
C  C35  1  0.29763562  0.51354993  0.84113066  1  0  0.660113  0  3.949547  0  0  0.619483  0  4.234864  0  0  0.653266  0  4.227192  0  0  0.191217  0.596535  0  4.239426  0
C  C36  1  0.54596855  0.53148872  0.06580264  1  0  -0.169881  0  3.680529  0  0  -0.189147  0  3.936574  0  0  -0.194542  0  3.952078  0  0  -0.091971  -0.185875  0  3.926819  0
C  C37  1  0.45402211  0.46850752  0.93419684  1  0  -0.169976  0  3.680615  0  0  -0.18923  0  3.936677  0  0  -0.194625  0  3.952185  0  0  -0.092004  -0.185963  0  3.926928  0
C  C38  1  0.00890704  0.14252512  0.39163224  1  0  0.661029  0  3.950058  0  0  0.618043  0  4.236918  0  0  0.651888  0  4.22848  0  0  0.195732  0.595262  0  4.241761  0
C  C39  1  0.99110328  0.85747123  0.60837061  1  0  0.660603  0  3.950412  0  0  0.617736  0  4.237118  0  0  0.651577  0  4.228685  0  0  0.195553  0.594953  0  4.241958  0
C  C40  1  0.96879484  0.05760881  0.48903649  1  0  -0.167019  0  3.674546  0  0  -0.185398  0  3.925597  0  0  -0.1904  0  3.939571  0  0  -0.085782  -0.182454  0  3.916244  0
C  C41  1  0.03121182  0.94238858  0.51096834  1  0  -0.166806  0  3.674634  0  0  -0.18523  0  3.925649  0  0  -0.19024  0  3.939652  0  0  -0.085769  -0.182284  0  3.916296  0
C  C42  1  0.97102804  0.27189417  0.93620343  1  0  -0.006144  0  3.735275  0  0  -0.036591  0  3.995518  0  0  -0.035069  0  4.01549  0  0  -0.005025  -0.037662  0  3.982235  0
C  C43  1  0.02897108  0.72810418  0.06379569  1  0  -0.006256  0  3.735519  0  0  -0.036711  0  3.995776  0  0  -0.03519  0  4.01574  0  0  -0.00503  -0.037781  0  3.982494  0
C  C44  1  0.06395783  0.21613208  0.86360257  1  0  -0.053852  0  3.670571  0  0  -0.097175  0  3.932572  0  0  -0.096521  0  3.953305  0  0  0.002333  -0.097665  0  3.918614  0
C  C45  1  0.93603939  0.78386419  0.13639677  1  0  -0.053855  0  3.670548  0  0  -0.097206  0  3.932545  0  0  -0.096555  0  3.953277  0  0  0.002294  -0.097693  0  3.918582  0
C  C46  1  0.14015197  0.15488109  0.06753606  1  0  0.15326  0  3.656263  0  0  0.089168  0  3.926754  0  0  0.103013  0  3.938758  0  0  0.138179  0.080245  0  3.918242  0
C  C47  1  0.85984843  0.84511729  0.93246626  1  0  0.153247  0  3.656154  0  0  0.089175  0  3.92662  0  0  0.10302  0  3.938622  0  0  0.138204  0.080282  0  3.918131  0
C  C48  1  0.28637388  0.06203894  0.90765465  1  0  0.009261  0  3.617612  0  0  -0.055041  0  3.877025  0  0  -0.050697  0  3.889556  0  0  -0.050198  -0.057699  0  3.868205  0
C  C49  1  0.71363132  0.93796259  0.09234833  1  0  0.009408  0  3.617412  0  0  -0.055029  0  3.876971  0  0  -0.05068  0  3.88949  0  0  -0.050252  -0.057658  0  3.868122  0
C  C50  1  0.44282289  0.04097345  0.02737945  1  0  -0.124206  0  3.665113  0  0  -0.164375  0  3.927006  0  0  -0.165934  0  3.940194  0  0  -0.159103  -0.163119  0  3.917885  0
C  C51  1  0.55718098  0.95902810  0.97262603  1  0  -0.124412  0  3.665319  0  0  -0.164424  0  3.927088  0  0  -0.165969  0  3.940291  0  0  -0.159075  -0.16318  0  3.917959  0
C  C52  1  0.34967270  0.48862936  0.29831817  1  0  -0.00058  0  3.757201  0  0  -0.035268  0  4.025696  0  0  -0.033777  0  4.047169  0  0  -0.006372  -0.036203  0  4.011116  0
C  C53  1  0.65032551  0.51137524  0.70168233  1  0  -0.000536  0  3.757129  0  0  -0.035229  0  4.025631  0  0  -0.033737  0  4.047104  0  0  -0.006363  -0.036169  0  4.011052  0
C  C54  1  0.46984324  0.60813241  0.37850488  1  0  -0.061265  0  3.660655  0  0  -0.102984  0  3.921031  0  0  -0.102052  0  3.940476  0  0  0.001787  -0.103134  0  3.907322  0
C  C55  1  0.53015703  0.39187011  0.62149499  1  0  -0.061274  0  3.660551  0  0  -0.103022  0  3.920972  0  0  -0.10208  0  3.940401  0  0  0.001795  -0.10317  0  3.907267  0
C  C56  1  0.21109057  0.59756140  0.40910537  1  0  0.176448  0  3.621083  0  0  0.114879  0  3.881443  0  0  0.129035  0  3.893651  0  0  0.149138  0.105945  0  3.87286  0
C  C57  1  0.78890782  0.40243902  0.59089283  1  0  0.176491  0  3.621  0  0  0.114916  0  3.881373  0  0  0.129075  0  3.893576  0  0  0.149124  0.10598  0  3.872785  0
C  C58  1  0.44965011  0.81291456  0.53697944  1  0  -0.016922  0  3.618759  0  0  -0.080188  0  3.875044  0  0  -0.076716  0  3.886248  0  0  -0.057759  -0.082465  0  3.867602  0
C  C59  1  0.55034945  0.18709003  0.46301856  1  0  -0.017116  0  3.61891  0  0  -0.080357  0  3.875197  0  0  -0.076912  0  3.886415  0  0  -0.057886  -0.082637  0  3.867753  0
C  C60  1  0.46652692  0.92774138  0.45420260  1  0  -0.121228  0  3.688281  0  0  -0.161907  0  3.951577  0  0  -0.16333  0  3.965404  0  0  -0.163071  -0.160865  0  3.942277  0
C  C61  1  0.53347236  0.07226215  0.54579426  1  0  -0.121173  0  3.688311  0  0  -0.161863  0  3.951553  0  0  -0.163245  0  3.965388  0  0  -0.16303  -0.16082  0  3.94227  0
N  N62  1  0.01980565  0.23296159  0.06339492  1  0  -0.38877  0  3.310776  0  0  -0.308856  0  3.609066  0  0  -0.328308  0  3.621248  0  0  -0.361026  -0.295744  0  3.600563  0
N  N63  1  0.98019681  0.76703471  0.93660583  1  0  -0.388705  0  3.310738  0  0  -0.308797  0  3.609033  0  0  -0.328247  0  3.621214  0  0  -0.361005  -0.295685  0  3.600517  0
N  N64  1  0.17068860  0.14315764  0.94808663  1  0  -0.058365  0  3.557038  0  0  0.036904  0  3.77651  0  0  0.021864  0  3.804131  0  0  -0.238415  0.046981  0  3.757585  0
N  N65  1  0.82931024  0.85683966  0.05191135  1  0  -0.058408  0  3.556977  0  0  0.0369  0  3.776469  0  0  0.021863  0  3.804089  0  0  -0.238397  0.046968  0  3.757529  0
N  N66  1  0.18888455  0.48329288  0.31792738  1  0  -0.399806  0  3.344767  0  0  -0.31679  0  3.648881  0  0  -0.337689  0  3.661149  0  0  -0.365722  -0.302466  0  3.640065  0
N  N67  1  0.81111267  0.51671273  0.68207011  1  0  -0.399849  0  3.344755  0  0  -0.316803  0  3.648854  0  0  -0.337703  0  3.661122  0  0  -0.365713  -0.302468  0  3.64003  0
N  N68  1  0.37975435  0.67540380  0.44753068  1  0  -0.056705  0  3.576457  0  0  0.039499  0  3.793473  0  0  0.024479  0  3.821345  0  0  -0.240127  0.049548  0  3.773997  0
N  N69  1  0.62024389  0.32460078  0.55246696  1  0  -0.056698  0  3.576508  0  0  0.039508  0  3.793515  0  0  0.024496  0  3.821393  0  0  -0.240103  0.049555  0  3.77404  0
O  O70  1  0.74418345  0.37774219  0.10569595  1  0  -0.659199  0  2.032178  0  0  -0.583497  0  2.299538  0  0  -0.611989  0  2.283913  0  0  -0.344349  -0.563573  0  2.309455  0
O  O71  1  0.25580475  0.62224986  0.89430148  1  0  -0.65924  0  2.032271  0  0  -0.583503  0  2.299627  0  0  -0.612009  0  2.284043  0  0  -0.344349  -0.563571  0  2.309533  0
O  O72  1  0.78438543  0.55396051  0.27947235  1  0  -0.624564  0  1.87571  0  0  -0.578945  0  2.089449  0  0  -0.601498  0  2.080471  0  0  -0.328005  -0.56332  0  2.095337  0
O  O73  1  0.21561376  0.44603779  0.72051918  1  0  -0.624611  0  1.8756  0  0  -0.578958  0  2.089342  0  0  -0.601507  0  2.080365  0  0  -0.328009  -0.563331  0  2.095231  0
O  O74  1  0.90437980  0.22845535  0.35512191  1  0  -0.648452  0  2.025005  0  0  -0.572699  0  2.290389  0  0  -0.600955  0  2.273551  0  0  -0.32924  -0.553141  0  2.301532  0
O  O75  1  0.09563056  0.77154098  0.64487809  1  0  -0.64833  0  2.024931  0  0  -0.57268  0  2.290353  0  0  -0.600933  0  2.273517  0  0  -0.329212  -0.553126  0  2.3015  0
O  O76  1  0.12989921  0.12603403  0.34654686  1  0  -0.617958  0  1.93644  0  0  -0.570772  0  2.165646  0  0  -0.59334  0  2.157203  0  0  -0.317481  -0.555036  0  2.170946  0
O  O77  1  0.87010936  0.87395609  0.65345866  1  0  -0.617754  0  1.936618  0  0  -0.570599  0  2.165762  0  0  -0.593162  0  2.157317  0  0  -0.317361  -0.554859  0  2.17105  0
