# generated using pymatgen
data_CoH18C20N6O5
_symmetry_space_group_name_H-M   'P 1'
_cell_length_a   8.95181374
_cell_length_b   9.61552773
_cell_length_c   12.40865570
_cell_angle_alpha   112.80116103
_cell_angle_beta   103.65784173
_cell_angle_gamma   89.98069586
_symmetry_Int_Tables_number   1
_chemical_formula_structural   CoH18C20N6O5
_chemical_formula_sum   'Co2 H36 C40 N12 O10'
_cell_volume   951.81646094
_cell_formula_units_Z   2
loop_
 _symmetry_equiv_pos_site_id
 _symmetry_equiv_pos_as_xyz
  1  'x, y, z'
loop_
 _atom_site_type_symbol
 _atom_site_label
 _atom_site_symmetry_multiplicity
 _atom_site_fract_x
 _atom_site_fract_y
 _atom_site_fract_z
 _atom_site_occupancy
 _atom_site_pbe_cm5_charge
 _atom_site_pbe_ddec_charge
 _atom_site_pbe_ddec_spin_density
 _atom_site_pbe_ddec_sum_bond_order
 _atom_site_pbe_magmom
Co  Co0  1  0.00000119  0.99999997  0.00000179  1  0.622245  0.706998  0.971572  2.889048  0.887
Co  Co1  1  0.49999909  0.00000088  0.00000031  1  0.623485  0.710462  -0.97189  2.889521  -0.887
H  H2  1  0.53713903  0.85830082  0.65845653  1  0.102111  0.105513  1.9e-05  1.036919  0.0
H  H3  1  0.96292169  0.19973464  0.34154521  1  0.102096  0.105573  -1.9e-05  1.037512  0.0
H  H4  1  0.46285583  0.14170072  0.34154589  1  0.102078  0.105451  1.9e-05  1.036986  0.0
H  H5  1  0.03708441  0.80026590  0.65845302  1  0.102098  0.105629  -1.9e-05  1.037435  0.0
H  H6  1  0.53434660  0.75760923  0.44138691  1  0.097245  0.099208  -5e-06  1.03887  0.0
H  H7  1  0.96620875  0.31643498  0.55873900  1  0.097015  0.099176  3e-06  1.039149  0.0
H  H8  1  0.46564532  0.24239802  0.55861442  1  0.097255  0.099238  -5e-06  1.038876  0.0
H  H9  1  0.03379983  0.68356786  0.44125873  1  0.09701  0.099156  3e-06  1.039097  0.0
H  H10  1  0.17156420  0.41128345  0.36334498  1  0.100699  0.101111  -4.3e-05  1.030544  0.0
H  H11  1  0.32889885  0.04776576  0.63654546  1  0.100671  0.100943  4.2e-05  1.030844  0.0
H  H12  1  0.82844143  0.58871132  0.63665623  1  0.100706  0.10116  -4.3e-05  1.030489  0.0
H  H13  1  0.67110158  0.95223470  0.36345509  1  0.100676  0.100976  4.2e-05  1.030783  0.0
H  H14  1  0.17722462  0.51170591  0.58095580  1  0.099747  0.098953  1.2e-05  1.030967  0.0
H  H15  1  0.32271688  0.93016001  0.41878848  1  0.099691  0.099224  -1.5e-05  1.030891  0.0
H  H16  1  0.82277839  0.48828545  0.41904473  1  0.099707  0.098934  1.2e-05  1.030953  0.0
H  H17  1  0.67728427  0.06983589  0.58121237  1  0.099689  0.099214  -1.5e-05  1.030941  0.0
H  H18  1  0.46487615  0.47853927  0.24382412  1  0.11974  0.110116  4.5e-05  0.98652  0.0
H  H19  1  0.03552736  0.23604593  0.75620496  1  0.119724  0.110538  -3.2e-05  0.986268  0.0
H  H20  1  0.53512218  0.52146347  0.75617600  1  0.119775  0.110139  4.5e-05  0.986522  0.0
H  H21  1  0.96447252  0.76395006  0.24379089  1  0.119735  0.110551  -3.2e-05  0.986305  0.0
H  H22  1  0.35299723  0.62501949  0.23004208  1  0.126439  0.122753  -1e-06  0.970918  0.0
H  H23  1  0.14829865  0.39551338  0.76973118  1  0.126437  0.12308  -1.3e-05  0.97058  0.0
H  H24  1  0.64699988  0.37498209  0.76995910  1  0.126474  0.122775  -1e-06  0.970893  0.0
H  H25  1  0.85169934  0.60448596  0.23026783  1  0.126428  0.12308  -1.3e-05  0.970589  0.0
H  H26  1  0.30297439  0.20632955  0.17454883  1  0.149153  0.134376  2e-06  1.017261  0.0
H  H27  1  0.19717435  0.03206111  0.82536584  1  0.149071  0.134026  -4e-06  1.016912  0.0
H  H28  1  0.69702627  0.79367318  0.82545246  1  0.149157  0.134392  2e-06  1.01724  0.0
H  H29  1  0.80282399  0.96794163  0.17463428  1  0.149046  0.13401  -4e-06  1.016926  0.0
H  H30  1  0.90477644  0.32203046  0.97950662  1  0.135118  0.100909  -9.4e-05  1.019028  0.0
H  H31  1  0.59518952  0.34272334  0.02109150  1  0.135334  0.10039  9.6e-05  1.019782  0.0
H  H32  1  0.09522504  0.67796886  0.02049455  1  0.13512  0.100939  -9.4e-05  1.019003  0.0
H  H33  1  0.40481086  0.65727716  0.97890744  1  0.135318  0.100365  9.6e-05  1.019764  0.0
H  H34  1  0.76124732  0.16084878  0.07400641  1  0.286049  0.362984  3.3e-05  0.995771  0.0
H  H35  1  0.73894585  0.08722629  0.92615461  1  0.285594  0.362001  -3.3e-05  0.997175  0.0
H  H36  1  0.23875194  0.83915169  0.92599315  1  0.286046  0.363014  3.3e-05  0.995738  0.0
H  H37  1  0.26105446  0.91277304  0.07384556  1  0.285566  0.361993  -3.3e-05  0.997186  0.0
C  C38  1  0.35505466  0.75574482  0.76444286  1  0.203955  0.54064  0.002181  4.21183  0.003
C  C39  1  0.14467160  0.99084629  0.23541748  1  0.203816  0.53962  -0.002061  4.212969  -0.002
C  C40  1  0.64494326  0.24425336  0.23555739  1  0.203967  0.540702  0.002182  4.211828  0.003
C  C41  1  0.85533076  0.00915079  0.76458151  1  0.203746  0.539483  -0.002061  4.213101  -0.002
C  C42  1  0.35706171  0.69108776  0.63377931  1  -0.025229  -0.05629  0.000311  3.998967  0.0
C  C43  1  0.14293793  0.05695196  0.36614639  1  -0.025858  -0.056834  -0.000241  4.001644  0.0
C  C44  1  0.64293611  0.30890927  0.36622137  1  -0.025221  -0.056408  0.000311  3.998958  0.0
C  C45  1  0.85706468  0.94304737  0.63385414  1  -0.025858  -0.056811  -0.000241  4.001534  0.0
C  C46  1  0.45813412  0.75961417  0.59356538  1  -0.08619  -0.089835  0.000432  3.97279  0.0
C  C47  1  0.04199094  0.16589343  0.40640885  1  -0.086132  -0.089466  -0.000389  3.973517  0.0
C  C48  1  0.54186159  0.24038516  0.40643407  1  -0.086169  -0.089724  0.000432  3.972762  0.0
C  C49  1  0.95801285  0.83410710  0.59358903  1  -0.086106  -0.089516  -0.000389  3.973569  0.0
C  C50  1  0.45499459  0.70389042  0.47168578  1  -0.091738  -0.12971  -0.000124  3.972362  0.0
C  C51  1  0.04538972  0.23221962  0.52831954  1  -0.0917  -0.130298  0.000141  3.974233  0.0
C  C52  1  0.54499930  0.29611342  0.52831560  1  -0.091761  -0.129743  -0.000124  3.972366  0.0
C  C53  1  0.95461919  0.76778541  0.47168295  1  -0.091718  -0.130293  0.000141  3.974211  0.0
C  C54  1  0.35128608  0.57952331  0.38695918  1  -0.005418  0.100405  0.000606  3.95436  0.001
C  C55  1  0.14919432  0.19259519  0.61302339  1  -0.005086  0.101857  -0.000668  3.955318  -0.001
C  C56  1  0.64871217  0.42047828  0.61304137  1  -0.00541  0.100376  0.000606  3.954446  0.001
C  C57  1  0.85081060  0.80740536  0.38697386  1  -0.005069  0.10194  -0.000668  3.955142  -0.001
C  C58  1  0.25229315  0.50945472  0.42711370  1  -0.094237  -0.145956  -0.000151  3.983752  0.0
C  C59  1  0.24803777  0.08216203  0.57282664  1  -0.094785  -0.146376  0.000143  3.984412  0.0
C  C60  1  0.74770894  0.49053890  0.57288740  1  -0.094259  -0.146087  -0.000151  3.983817  0.0
C  C61  1  0.75196498  0.91783842  0.42717508  1  -0.094808  -0.146466  0.000143  3.984379  0.0
C  C62  1  0.25522488  0.56519897  0.54965790  1  -0.082804  -0.081346  0.000677  3.974228  0.001
C  C63  1  0.24484713  0.01514077  0.45022037  1  -0.082395  -0.081189  -0.000716  3.975396  -0.001
C  C64  1  0.74477752  0.43479808  0.45034270  1  -0.082747  -0.081181  0.000677  3.974009  0.001
C  C65  1  0.75515427  0.98485861  0.54977758  1  -0.082386  -0.081165  -0.000716  3.975459  -0.001
C  C66  1  0.35617921  0.52806122  0.25619892  1  -0.036762  -0.142968  -1.3e-05  3.898937  0.0
C  C67  1  0.14450003  0.27240958  0.74381983  1  -0.036782  -0.145397  4e-06  3.899532  0.0
C  C68  1  0.64381802  0.47194149  0.74380263  1  -0.036835  -0.142982  -1.3e-05  3.89896  0.0
C  C69  1  0.85550164  0.72759204  0.25618046  1  -0.036761  -0.145419  4e-06  3.899689  0.0
C  C70  1  0.21417403  0.26761844  0.14173305  1  0.165731  0.085366  -0.002999  3.832092  -0.004
C  C71  1  0.28598753  0.12616930  0.85834581  1  0.165534  0.08662  0.002967  3.831971  0.004
C  C72  1  0.78582546  0.73238431  0.85826725  1  0.165745  0.085422  -0.002999  3.831982  -0.004
C  C73  1  0.71401171  0.87383119  0.14165295  1  0.165575  0.086653  0.002967  3.831981  0.004
C  C74  1  0.01421953  0.33025040  0.04302082  1  0.146438  0.134268  -0.001805  3.96003  -0.002
C  C75  1  0.48584515  0.28747008  0.95741210  1  0.146155  0.136166  0.001795  3.9582  0.002
C  C76  1  0.98577860  0.66975006  0.95697936  1  0.146442  0.134244  -0.001805  3.960009  -0.002
C  C77  1  0.51415521  0.71253043  0.04258604  1  0.146127  0.136228  0.001795  3.958092  0.002
N  N78  1  0.22961521  0.41747992  0.17033021  1  -0.134982  0.172738  -0.00064  3.75866  -0.001
N  N79  1  0.27073560  0.24745425  0.82978522  1  -0.135006  0.173259  0.000631  3.758308  0.001
N  N80  1  0.77038407  0.58252054  0.82967016  1  -0.134999  0.17266  -0.00064  3.75863  -0.001
N  N81  1  0.72926368  0.75254621  0.17021515  1  -0.135052  0.173194  0.000631  3.758362  0.001
N  N82  1  0.10338844  0.45991130  0.10902054  1  -0.221361  -0.269135  -7.2e-05  3.104882  0.0
N  N83  1  0.39687854  0.35118589  0.89133767  1  -0.220664  -0.268964  8.6e-05  3.102833  0.0
N  N84  1  0.89660955  0.54008804  0.89097847  1  -0.221362  -0.269111  -7.2e-05  3.104846  0.0
N  N85  1  0.60312044  0.64881235  0.10865954  1  -0.220609  -0.268937  8.6e-05  3.102795  0.0
N  N86  1  0.07794676  0.20878737  0.06099049  1  -0.36125  -0.272043  -0.003301  3.647749  -0.005
N  N87  1  0.42204432  0.14806348  0.93931305  1  -0.36105  -0.274232  0.003298  3.65019  0.005
N  N88  1  0.92205380  0.79121422  0.93901123  1  -0.361275  -0.272091  -0.003301  3.647793  -0.005
N  N89  1  0.57795401  0.85193926  0.06068707  1  -0.361034  -0.274263  0.003298  3.650162  0.005
O  O90  1  0.46764003  0.85861459  0.83443850  1  -0.307964  -0.521525  0.001736  2.503218  0.004
O  O91  1  0.03211284  0.02394390  0.16557350  1  -0.307452  -0.519849  -0.001775  2.501854  -0.004
O  O92  1  0.53235810  0.14138587  0.16556168  1  -0.307937  -0.521465  0.001736  2.503227  0.004
O  O93  1  0.96788974  0.97605545  0.83442624  1  -0.307444  -0.519834  -0.001776  2.501829  -0.004
O  O94  1  0.24715793  0.71035866  0.79673199  1  -0.320255  -0.539855  0.001434  2.168125  0.002
O  O95  1  0.25231041  0.91284153  0.20301847  1  -0.319328  -0.538444  -0.001295  2.167533  -0.002
O  O96  1  0.75284127  0.28964064  0.20326961  1  -0.320276  -0.539899  0.001434  2.168068  0.002
O  O97  1  0.74769033  0.08715101  0.79697885  1  -0.319287  -0.538363  -0.001295  2.167535  -0.002
O  O98  1  0.75001815  0.06318508  0.99996845  1  -0.552001  -0.75086  -2.8e-05  2.280651  0.0
O  O99  1  0.24998240  0.93681652  0.00003247  1  -0.55197  -0.750859  -2.8e-05  2.280566  0.0
