# generated using pymatgen
data_Pr2Cu3P6H24C30(NO3)6
_symmetry_space_group_name_H-M   'P 1'
_cell_length_a   10.45788673
_cell_length_b   11.45483156
_cell_length_c   11.45425118
_cell_angle_alpha   111.16400014
_cell_angle_beta   107.71445186
_cell_angle_gamma   107.72806900
_symmetry_Int_Tables_number   1
_chemical_formula_structural   Pr2Cu3P6H24C30(NO3)6
_chemical_formula_sum   'Pr2 Cu3 P6 H24 C30 N6 O18'
_cell_volume   1078.19999571
_cell_formula_units_Z   1
loop_
 _symmetry_equiv_pos_site_id
 _symmetry_equiv_pos_as_xyz
  1  'x, y, z'
loop_
 _atom_site_type_symbol
 _atom_site_label
 _atom_site_symmetry_multiplicity
 _atom_site_fract_x
 _atom_site_fract_y
 _atom_site_fract_z
 _atom_site_occupancy
 _atom_site_hle17_ddec_charge
 _atom_site_hle17_ddec_spin_density
 _atom_site_hle17_ddec_sum_bond_order
 _atom_site_hle17_magmom
 _atom_site_hse06_10hf_ddec_charge
 _atom_site_hse06_10hf_ddec_spin_density
 _atom_site_hse06_10hf_ddec_sum_bond_order
 _atom_site_hse06_10hf_magmom
 _atom_site_hse06_ddec_charge
 _atom_site_hse06_ddec_spin_density
 _atom_site_hse06_ddec_sum_bond_order
 _atom_site_hse06_magmom
 _atom_site_pbe_cm5_charge
 _atom_site_pbe_ddec_charge
 _atom_site_pbe_ddec_spin_density
 _atom_site_pbe_ddec_sum_bond_order
 _atom_site_pbe_magmom
Pr  Pr0  1  0.99999823  0.99999936  0.99999763  1  2.447735  4.3e-05  1.737013  0.0  2.312589  -0.000184  2.191459  0.0  2.373743  -0.000162  2.093056  0.0  1.561318  2.283635  -0.000101  2.230706  0.0
Pr  Pr1  1  0.50000099  0.00000088  0.99999930  1  2.422063  -0.000375  1.785601  -0.001  2.321139  -0.000597  2.17605  -0.001  2.351661  -0.00029  2.131095  -0.001  1.576374  2.28697  -0.000323  2.220435  0.0
Cu  Cu2  1  0.99999819  0.00000026  0.49999843  1  0.846837  0.757566  1.843132  0.505  0.813743  0.825871  2.242232  0.613  0.899658  0.904816  2.172019  0.689  0.767439  0.757708  0.770831  2.29352  0.564
Cu  Cu3  1  0.00000072  0.50000295  0.99999944  1  0.846746  -0.714591  1.843927  -0.506  0.813345  -0.790494  2.243036  -0.613  0.89903  -0.857856  2.173114  -0.689  0.768024  0.75738  -0.743636  2.294237  -0.564
Cu  Cu4  1  0.49999676  0.49999598  0.49999595  1  0.846997  -0.71439  1.842634  -0.506  0.813569  -0.790533  2.242344  -0.613  0.899861  -0.857933  2.171713  -0.689  0.767466  0.757573  -0.743596  2.293534  -0.564
P  P5  1  0.17356537  0.01676084  0.76340081  1  1.471378  0.004265  4.999132  0.001  1.312401  0.006464  5.52197  0.003  1.365495  0.004901  5.481059  0.003  0.343675  1.27471  0.007461  5.549928  0.004
P  P6  1  0.15682363  0.74662081  0.98322190  1  1.472036  -0.003765  5.001387  -0.001  1.31297  -0.006122  5.524162  -0.003  1.366092  -0.00455  5.483151  -0.003  0.343887  1.27526  -0.007155  5.552219  -0.004
P  P7  1  0.41019587  0.23653052  0.25338402  1  1.470979  -0.003778  5.001719  -0.001  1.311876  -0.006124  5.524448  -0.003  1.364984  -0.004554  5.483581  -0.003  0.343872  1.27417  -0.007146  5.55236  -0.004
P  P8  1  0.82643232  0.98323746  0.23659542  1  1.471391  0.004257  4.99896  0.001  1.312426  0.006464  5.521792  0.003  1.365518  0.0049  5.480884  0.003  0.343647  1.274747  0.007461  5.549724  0.004
P  P9  1  0.84317713  0.25337962  0.01677595  1  1.471943  -0.00377  5.001465  -0.001  1.31287  -0.006124  5.524236  -0.003  1.365993  -0.004552  5.483237  -0.003  0.343873  1.275158  -0.007156  5.552299  -0.004
P  P10  1  0.58980018  0.76346249  0.74661158  1  1.471  -0.003775  5.001702  -0.001  1.311902  -0.006126  5.524368  -0.004  1.364996  -0.004552  5.483542  -0.003  0.343887  1.274204  -0.007145  5.552266  -0.004
H  H11  1  0.33521837  0.31321734  0.01870653  1  0.123489  0.000634  0.940704  0.001  0.135111  0.00053  0.996059  0.001  0.138863  0.000368  0.994425  0.0  0.121255  0.132144  0.000665  0.997784  0.001
H  H12  1  0.02204595  0.70539228  0.68681887  1  0.123268  -0.000609  0.940594  -0.001  0.13493  -0.000514  0.995892  -0.001  0.138726  -0.000357  0.994198  0.0  0.121257  0.131975  -0.000648  0.9976  -0.001
H  H13  1  0.31650304  0.98127120  0.29464879  1  0.123294  -0.000658  0.941366  -0.001  0.134874  -0.000631  0.996714  -0.001  0.138573  -0.00045  0.995154  0.0  0.121379  0.131991  -0.000776  0.998316  -0.001
H  H14  1  0.66478329  0.68677885  0.98129003  1  0.123499  0.000634  0.940677  0.001  0.135119  0.000529  0.996031  0.001  0.138854  0.000368  0.99442  0.0  0.121252  0.132151  0.000665  0.997757  0.001
H  H15  1  0.97795941  0.29461132  0.31318052  1  0.12319  -0.000608  0.940622  -0.001  0.134933  -0.000514  0.995832  -0.001  0.138726  -0.000357  0.994141  0.0  0.12124  0.131974  -0.000648  0.997543  -0.001
H  H16  1  0.68349450  0.01872076  0.70534946  1  0.123294  -0.000658  0.941359  -0.001  0.134832  -0.000632  0.996758  -0.001  0.138531  -0.00045  0.995197  0.0  0.121396  0.131948  -0.000776  0.998351  -0.001
H  H17  1  0.37162986  0.54505631  0.02537660  1  0.100864  0.000307  0.938073  0.0  0.114495  2.5e-05  0.992883  0.0  0.117025  2e-06  0.991685  0.0  0.11294  0.112733  5.4e-05  0.993584  0.0
H  H18  1  0.82659046  0.48020010  0.45498486  1  0.101103  -0.000217  0.937259  0.0  0.114963  3.4e-05  0.991959  0.0  0.117416  5.2e-05  0.990841  0.0  0.112993  0.11326  8e-06  0.992596  0.0
H  H19  1  0.34630688  0.97468453  0.51985485  1  0.101381  -0.000292  0.936891  0.0  0.115136  -3.5e-05  0.991639  0.0  0.117694  -1e-05  0.990385  0.0  0.113126  0.113375  -6.8e-05  0.992341  0.0
H  H20  1  0.62837139  0.45494305  0.97462623  1  0.100864  0.00031  0.938099  0.0  0.114486  2.5e-05  0.992915  0.0  0.117019  2e-06  0.991713  0.0  0.112933  0.112721  5.4e-05  0.993615  0.0
H  H21  1  0.17341136  0.51980244  0.54501491  1  0.101074  -0.000215  0.937301  0.0  0.114951  3.4e-05  0.991971  0.0  0.117405  5.2e-05  0.990853  0.0  0.112989  0.113249  8e-06  0.992607  0.0
H  H22  1  0.65369231  0.02531271  0.48014752  1  0.101453  -0.000288  0.93687  0.0  0.115176  -3.5e-05  0.991637  0.0  0.117726  -1e-05  0.990402  0.0  0.113133  0.113415  -6.8e-05  0.992338  0.0
H  H23  1  0.25483395  0.54239791  0.79942468  1  0.120752  0.000593  0.938114  0.001  0.132949  0.00051  0.992093  0.001  0.136345  0.000369  0.990965  0.0  0.11804  0.130244  0.000637  0.993492  0.001
H  H24  1  0.71236583  0.25690497  0.45763577  1  0.120685  -0.000515  0.938415  -0.001  0.132433  -0.000464  0.992632  -0.001  0.135829  -0.000336  0.991512  0.0  0.117725  0.12972  -0.000579  0.994048  -0.001
H  H25  1  0.45549108  0.20070652  0.74313899  1  0.121097  -0.000638  0.938128  -0.001  0.133359  -0.000599  0.991978  -0.001  0.136771  -0.000436  0.990833  0.0  0.118215  0.130645  -0.000744  0.993387  -0.001
H  H26  1  0.74516034  0.45760357  0.20058136  1  0.120702  0.000593  0.938138  0.001  0.132876  0.00051  0.992148  0.001  0.136274  0.000369  0.991022  0.0  0.118018  0.13017  0.000637  0.993546  0.001
H  H27  1  0.28762897  0.74309757  0.54236382  1  0.120652  -0.000512  0.938391  -0.001  0.132482  -0.000464  0.992547  -0.001  0.135876  -0.000336  0.991421  0.0  0.117755  0.129765  -0.000579  0.993962  -0.001
H  H28  1  0.54450566  0.79929391  0.25685861  1  0.121104  -0.00064  0.938121  -0.001  0.133363  -0.000599  0.991961  -0.001  0.136777  -0.000436  0.990811  0.0  0.118222  0.130652  -0.000744  0.993371  -0.001
H  H29  1  0.08355584  0.30395829  0.57266216  1  0.094243  0.000821  0.94052  0.002  0.103838  0.000716  1.000292  0.001  0.105764  0.000525  0.999031  0.001  0.121193  0.102227  0.000869  1.001309  0.002
H  H30  1  0.77942175  0.26860447  0.69608839  1  0.093574  -0.000815  0.941631  -0.002  0.103721  -0.000714  1.000727  -0.001  0.105683  -0.000523  0.999435  -0.001  0.121318  0.102103  -0.000869  1.001771  -0.002
H  H31  1  0.51094918  0.42740998  0.73136177  1  0.093477  -0.000769  0.9418  -0.002  0.103536  -0.00069  1.001043  -0.001  0.105476  -0.000502  0.999766  -0.001  0.120958  0.101925  -0.000841  1.002071  -0.002
H  H32  1  0.91643601  0.69604636  0.42734175  1  0.094238  0.00082  0.940622  0.002  0.103853  0.000716  1.000354  0.001  0.105778  0.000525  0.999094  0.001  0.121183  0.102243  0.000869  1.00137  0.002
H  H33  1  0.22057257  0.73139913  0.30391232  1  0.093586  -0.00081  0.941635  -0.002  0.10372  -0.000714  1.000745  -0.001  0.10568  -0.000523  0.999454  -0.001  0.121325  0.102105  -0.000869  1.001787  -0.002
H  H34  1  0.48904343  0.57258621  0.26862967  1  0.093566  -0.000777  0.941668  -0.002  0.103607  -0.00069  1.000911  -0.001  0.105555  -0.000502  0.999635  -0.001  0.121015  0.101998  -0.000841  1.001941  -0.002
C  C35  1  0.19626254  0.19162976  0.79275178  1  -0.055524  -0.00755  3.700452  -0.008  -0.030462  -0.001512  3.943724  -0.002  -0.028991  -0.002506  3.965415  -0.004  0.112045  -0.031476  -0.000675  3.930171  -0.001
C  C36  1  0.00460536  0.60102743  0.80840685  1  -0.056194  0.008153  3.701269  0.008  -0.031439  0.001718  3.944875  0.002  -0.029976  0.002743  3.966532  0.004  0.111699  -0.032497  0.00085  3.931394  0.001
C  C37  1  0.40346866  0.20722116  0.39893063  1  -0.055284  0.008159  3.700896  0.008  -0.030043  0.001715  3.944049  0.002  -0.028553  0.002751  3.965716  0.004  0.1122  -0.031014  0.000813  3.930446  0.001
C  C38  1  0.80373468  0.80836961  0.20724558  1  -0.055523  -0.007561  3.700441  -0.008  -0.030444  -0.001511  3.943719  -0.002  -0.028971  -0.002503  3.965405  -0.004  0.112051  -0.031461  -0.000675  3.930176  -0.001
C  C39  1  0.99539593  0.39897405  0.19159327  1  -0.056267  0.008149  3.701277  0.008  -0.031481  0.001713  3.944905  0.002  -0.030026  0.00274  3.966583  0.004  0.111636  -0.032546  0.00085  3.931441  0.001
C  C40  1  0.59652640  0.79277185  0.60106645  1  -0.055305  0.008143  3.700909  0.008  -0.029946  0.001714  3.943907  0.002  -0.028453  0.002751  3.965567  0.004  0.112224  -0.030918  0.000813  3.930312  0.001
C  C41  1  0.28413469  0.31737096  0.92291327  1  -0.083545  0.008823  3.699208  0.008  -0.102531  0.003274  3.939795  0.003  -0.10837  0.003229  3.960624  0.003  -0.063082  -0.099122  0.003386  3.926639  0.003
C  C42  1  0.96678542  0.60544017  0.68266889  1  -0.082539  -0.008176  3.699005  -0.008  -0.101539  -0.002892  3.939876  -0.003  -0.1074  -0.002836  3.960641  -0.003  -0.062916  -0.098131  -0.003011  3.926767  -0.003
C  C43  1  0.36121411  0.07709034  0.39458119  1  -0.083888  -0.008337  3.700606  -0.008  -0.102884  -0.003129  3.941527  -0.003  -0.108703  -0.003059  3.962375  -0.003  -0.063534  -0.099522  -0.003254  3.928312  -0.003
C  C44  1  0.71586449  0.68262629  0.07708561  1  -0.083572  0.008836  3.69919  0.008  -0.102563  0.003276  3.939784  0.003  -0.10839  0.003228  3.960621  0.003  -0.063091  -0.099155  0.003386  3.926633  0.003
C  C45  1  0.03321740  0.39456237  0.31733029  1  -0.08242  -0.008176  3.698944  -0.008  -0.10148  -0.00289  3.939794  -0.003  -0.107337  -0.002835  3.960565  -0.003  -0.062878  -0.098066  -0.003011  3.926684  -0.003
C  C46  1  0.63878396  0.92290268  0.60541759  1  -0.083833  -0.008336  3.700522  -0.008  -0.102825  -0.003128  3.941434  -0.003  -0.108636  -0.003059  3.962268  -0.003  -0.063535  -0.099461  -0.003254  3.928222  -0.003
C  C47  1  0.30407326  0.44471948  0.92605481  1  -0.005534  -0.00861  3.7029  -0.008  -0.026656  -0.002495  3.959721  -0.003  -0.02335  -0.002763  3.977365  -0.003  -0.059563  -0.028888  -0.00232  3.947749  -0.002
C  C48  1  0.85938545  0.48122508  0.55532136  1  -0.005612  0.009576  3.701834  0.008  -0.02721  0.003133  3.958653  0.003  -0.023843  0.003429  3.976301  0.003  -0.059665  -0.029488  0.002878  3.946689  0.002
C  C49  1  0.37808163  0.07399426  0.51881662  1  -0.005177  0.00912  3.702559  0.008  -0.02642  0.002617  3.959421  0.003  -0.023122  0.00293  3.977053  0.003  -0.059438  -0.028664  0.002414  3.947487  0.002
C  C50  1  0.69592445  0.55527883  0.07394666  1  -0.005586  -0.008628  3.703001  -0.008  -0.026701  -0.002496  3.959821  -0.003  -0.023395  -0.002763  3.977458  -0.003  -0.059595  -0.028928  -0.00232  3.947841  -0.002
C  C51  1  0.14061490  0.51877852  0.44467839  1  -0.005677  0.009577  3.701717  0.008  -0.027273  0.003134  3.958612  0.003  -0.023909  0.003427  3.976259  0.003  -0.059674  -0.029552  0.002878  3.94665  0.002
C  C52  1  0.62191803  0.92600193  0.48118201  1  -0.005225  0.009111  3.702534  0.008  -0.026457  0.002616  3.959396  0.003  -0.023159  0.002929  3.977024  0.003  -0.059431  -0.0287  0.002414  3.947461  0.002
C  C53  1  0.23666319  0.44367479  0.79970515  1  -0.102506  0.010919  3.700336  0.011  -0.119026  0.004423  3.955258  0.005  -0.125234  0.004187  3.975123  0.005  -0.075096  -0.115184  0.004621  3.942388  0.005
C  C54  1  0.79295715  0.35592059  0.55636150  1  -0.103113  -0.010072  3.700245  -0.011  -0.118733  -0.003965  3.954953  -0.005  -0.124919  -0.003698  3.974734  -0.004  -0.074752  -0.114898  -0.004186  3.94211  -0.005
C  C55  1  0.43701360  0.20037082  0.64409702  1  -0.103642  -0.010379  3.701601  -0.011  -0.120148  -0.004309  3.956651  -0.005  -0.126368  -0.004025  3.976534  -0.005  -0.075232  -0.1163  -0.004548  3.943783  -0.005
C  C56  1  0.76333463  0.55632775  0.20029964  1  -0.102483  0.010936  3.700455  0.011  -0.118977  0.004423  3.955365  0.005  -0.12519  0.004187  3.975237  0.005  -0.075118  -0.115131  0.00462  3.942487  0.005
C  C57  1  0.20704124  0.64408513  0.44364022  1  -0.102947  -0.010075  3.700081  -0.011  -0.118682  -0.003965  3.954823  -0.005  -0.124867  -0.003697  3.974618  -0.004  -0.074802  -0.114839  -0.004186  3.941976  -0.005
C  C58  1  0.56298309  0.79962749  0.35590068  1  -0.103685  -0.010378  3.701591  -0.011  -0.120168  -0.004308  3.956597  -0.005  -0.126386  -0.004024  3.976475  -0.005  -0.075229  -0.116322  -0.004548  3.943734  -0.005
C  C59  1  0.14480263  0.31427670  0.67456548  1  0.130994  -0.005457  3.673374  -0.006  0.102758  0.000175  3.92825  -0.001  0.11113  -0.001086  3.948536  -0.002  0.049343  0.097547  0.001095  3.914337  0.0
C  C60  1  0.83040259  0.36018675  0.68576217  1  0.131885  0.006097  3.673161  0.006  0.102916  5.6e-05  3.927713  0.001  0.111253  0.001345  3.948025  0.002  0.049237  0.09769  -0.000868  3.913813  0.0
C  C61  1  0.47026495  0.32548898  0.63979115  1  0.131575  0.006071  3.672834  0.006  0.102919  4.9e-05  3.927912  0.001  0.111269  0.001346  3.948251  0.002  0.049321  0.097695  -0.00094  3.914018  0.0
C  C62  1  0.85519218  0.68572584  0.32543672  1  0.131025  -0.00547  3.673497  -0.006  0.102795  0.000175  3.92834  -0.001  0.111167  -0.001087  3.948626  -0.002  0.049428  0.097579  0.001094  3.914439  0.0
C  C63  1  0.16959682  0.63981897  0.31424245  1  0.131781  0.006084  3.67314  0.006  0.102867  5.6e-05  3.927749  0.001  0.111204  0.001341  3.94806  0.002  0.049245  0.097643  -0.000868  3.913851  0.0
C  C64  1  0.52973015  0.67450616  0.36020408  1  0.131557  0.006091  3.672775  0.006  0.102937  5e-05  3.927834  0.001  0.111278  0.001345  3.948176  0.002  0.0493  0.09771  -0.000939  3.913952  0.0
N  N65  1  0.12556596  0.19169259  0.67242310  1  -0.299027  0.088356  3.394297  0.104  -0.253998  0.060357  3.680215  0.076  -0.284806  0.051527  3.704896  0.068  -0.342851  -0.234648  0.065044  3.664846  0.08
N  N66  1  0.93380421  0.48063728  0.80832746  1  -0.298871  -0.083361  3.394188  -0.104  -0.253426  -0.05766  3.679846  -0.076  -0.284177  -0.048671  3.70453  -0.068  -0.343096  -0.234062  -0.062639  3.664486  -0.08
N  N67  1  0.45312364  0.32756898  0.51931167  1  -0.298765  -0.083603  3.392254  -0.104  -0.253926  -0.057826  3.678419  -0.076  -0.28483  -0.048831  3.703126  -0.068  -0.342746  -0.234597  -0.062816  3.663025  -0.08
N  N68  1  0.87442931  0.80830889  0.32757623  1  -0.298935  0.088368  3.394281  0.104  -0.253951  0.060358  3.680254  0.076  -0.28476  0.051527  3.704935  0.068  -0.342821  -0.234601  0.065044  3.664887  0.08
N  N69  1  0.06619566  0.51936738  0.19167254  1  -0.29879  -0.083363  3.394013  -0.104  -0.253415  -0.057658  3.679707  -0.076  -0.284165  -0.048668  3.704397  -0.068  -0.343067  -0.23405  -0.062638  3.664353  -0.08
N  N70  1  0.54687093  0.67242509  0.48068217  1  -0.298894  -0.083594  3.392407  -0.104  -0.254145  -0.057825  3.678605  -0.076  -0.285047  -0.04883  3.703309  -0.068  -0.342841  -0.234818  -0.062816  3.663221  -0.08
O  O71  1  0.11181261  0.93066936  0.60106330  1  -0.805782  0.08731  1.99648  0.106  -0.757772  0.057042  2.300491  0.075  -0.797001  0.046482  2.279841  0.064  -0.392553  -0.731359  0.063437  2.315324  0.081
O  O72  1  0.18114533  0.67047765  0.06941392  1  -0.805876  -0.082379  1.997169  -0.106  -0.757744  -0.054648  2.301097  -0.075  -0.79692  -0.044013  2.280478  -0.064  -0.392681  -0.731342  -0.061281  2.315956  -0.081
O  O73  1  0.51070241  0.39887918  0.32960807  1  -0.805609  -0.0822  1.997889  -0.106  -0.757416  -0.054436  2.301984  -0.075  -0.796733  -0.043829  2.281323  -0.063  -0.392645  -0.731011  -0.061064  2.316791  -0.081
O  O74  1  0.88818513  0.06933106  0.39893284  1  -0.805783  0.087311  1.996395  0.106  -0.75779  0.057042  2.30041  0.075  -0.797018  0.046485  2.27976  0.064  -0.392565  -0.731377  0.063438  2.31524  0.081
O  O75  1  0.81885797  0.32952384  0.93058501  1  -0.805789  -0.082379  1.997134  -0.106  -0.757653  -0.054644  2.30105  -0.075  -0.796826  -0.044009  2.280437  -0.064  -0.392627  -0.731251  -0.061279  2.31591  -0.081
O  O76  1  0.48929316  0.60111490  0.67038605  1  -0.80565  -0.082196  1.997983  -0.106  -0.757498  -0.054435  2.302114  -0.075  -0.796812  -0.043829  2.281453  -0.063  -0.392679  -0.731093  -0.061064  2.316923  -0.081
O  O77  1  0.05876629  0.95901484  0.80995122  1  -0.972969  0.002114  1.967986  0.003  -0.902071  0.000939  2.246411  0.002  -0.93228  0.000322  2.222705  0.001  -0.477547  -0.882702  0.001821  2.26203  0.003
O  O78  1  0.09978459  0.85094018  0.04084617  1  -0.973246  -0.002023  1.968956  -0.003  -0.902413  -0.000927  2.247458  -0.002  -0.932555  -0.000321  2.223596  -0.001  -0.477822  -0.883107  -0.001794  2.263227  -0.003
O  O79  1  0.24886348  0.18987784  0.14903184  1  -0.9726  -0.002185  1.969668  -0.003  -0.901695  -0.001018  2.248131  -0.002  -0.9319  -0.000362  2.224441  -0.001  -0.477497  -0.882319  -0.001881  2.263715  -0.003
O  O80  1  0.94123294  0.04098452  0.19004669  1  -0.972969  0.002122  1.967943  0.003  -0.902081  0.000938  2.246375  0.002  -0.932288  0.000322  2.222672  0.001  -0.47754  -0.882718  0.001821  2.261995  0.003
O  O81  1  0.90021718  0.14906025  0.95915457  1  -0.973241  -0.002013  1.968992  -0.003  -0.902408  -0.000925  2.2475  -0.002  -0.932549  -0.000323  2.22364  -0.001  -0.477865  -0.883106  -0.001794  2.26327  -0.003
O  O82  1  0.75113210  0.81011623  0.85096664  1  -0.97261  -0.002189  1.96956  -0.003  -0.901697  -0.00102  2.247992  -0.002  -0.931898  -0.000362  2.2243  -0.001  -0.477525  -0.882327  -0.001881  2.263585  -0.003
O  O83  1  0.33168468  0.03800569  0.84428898  1  -0.952151  0.009985  1.956161  0.012  -0.888431  0.005413  2.231347  0.007  -0.912271  0.003376  2.20655  0.004  -0.474344  -0.867067  0.007818  2.246573  0.01
O  O84  1  0.29372993  0.80622987  0.96198097  1  -0.952165  -0.009583  1.956116  -0.012  -0.888462  -0.005278  2.231428  -0.007  -0.912303  -0.003229  2.206582  -0.004  -0.474279  -0.867085  -0.007649  2.246693  -0.01
O  O85  1  0.48749063  0.15570562  0.19378968  1  -0.951652  -0.009461  1.955327  -0.012  -0.887922  -0.005238  2.230477  -0.007  -0.911751  -0.003226  2.205661  -0.004  -0.474637  -0.866556  -0.007708  2.245702  -0.01
O  O86  1  0.66831407  0.96199473  0.15570656  1  -0.952149  0.009987  1.956121  0.012  -0.888427  0.005416  2.231296  0.007  -0.912263  0.003375  2.206498  0.004  -0.474324  -0.86706  0.007817  2.246517  0.01
O  O87  1  0.70626935  0.19377161  0.03801684  1  -0.95215  -0.00958  1.956167  -0.012  -0.888442  -0.005276  2.231475  -0.007  -0.912282  -0.003228  2.206634  -0.004  -0.474271  -0.867065  -0.007649  2.246736  -0.01
O  O88  1  0.51250337  0.84428528  0.80620459  1  -0.951614  -0.009461  1.95528  -0.012  -0.887897  -0.005236  2.230431  -0.007  -0.911714  -0.003228  2.2056  -0.004  -0.474599  -0.86653  -0.007709  2.245653  -0.01
