# generated using pymatgen
data_ZnP2H10(C2O3)2
_symmetry_space_group_name_H-M   'P 1'
_cell_length_a   5.28638796
_cell_length_b   9.26157941
_cell_length_c   10.55316606
_cell_angle_alpha   119.26371821
_cell_angle_beta   104.51843949
_cell_angle_gamma   89.99764022
_symmetry_Int_Tables_number   1
_chemical_formula_structural   ZnP2H10(C2O3)2
_chemical_formula_sum   'Zn2 P4 H20 C8 O12'
_cell_volume   431.73728977
_cell_formula_units_Z   2
loop_
 _symmetry_equiv_pos_site_id
 _symmetry_equiv_pos_as_xyz
  1  'x, y, z'
loop_
 _atom_site_type_symbol
 _atom_site_label
 _atom_site_symmetry_multiplicity
 _atom_site_fract_x
 _atom_site_fract_y
 _atom_site_fract_z
 _atom_site_occupancy
 _atom_site_pbe_bader_spin_density
 _atom_site_pbe_cm5_charge
 _atom_site_pbe_ddec_charge
 _atom_site_pbe_ddec_spin_density
 _atom_site_pbe_ddec_sum_bond_order
 _atom_site_pbe_magmom
Zn  Zn0  1  0.01288352  0.24998928  0.99993464  1  0  0.735227  1.104786  0  2.230436  0
Zn  Zn1  1  0.98712811  0.75000799  0.00006501  1  0  0.735373  1.104781  0  2.229795  0
P  P2  1  0.19348841  0.90402251  0.80892454  1  0  0.37731  1.357766  0  5.196846  0
P  P3  1  0.38451257  0.59599881  0.19108428  1  0  0.377139  1.358344  0  5.195238  0
P  P4  1  0.80651306  0.09595652  0.19107847  1  0  0.377321  1.357765  0  5.197002  0
P  P5  1  0.61549962  0.40402277  0.80891042  1  0  0.377197  1.358294  0  5.195437  0
H  H6  1  0.61722755  0.98504390  0.89373434  1  0  0.310904  0.382955  0  0.963432  0
H  H7  1  0.72365485  0.51519567  0.10663210  1  0  0.310939  0.383385  0  0.962932  0
H  H8  1  0.38276741  0.01495183  0.10625834  1  0  0.310903  0.382991  0  0.963368  0
H  H9  1  0.27635152  0.48479661  0.89336549  1  0  0.310928  0.383332  0  0.962962  0
H  H10  1  0.28920045  0.57929495  0.55293251  1  0  0.088707  0.079648  0  0.997363  0
H  H11  1  0.73613630  0.92062329  0.44699189  1  0  0.088704  0.078973  0  0.99749  0
H  H12  1  0.71077674  0.42070247  0.44707057  1  0  0.088696  0.079659  0  0.997339  0
H  H13  1  0.26387967  0.07937781  0.55301111  1  0  0.088666  0.078918  0  0.997412  0
H  H14  1  0.13448375  0.53137414  0.65984835  1  0  0.090712  0.091391  0  1.020404  0
H  H15  1  0.47450101  0.96870230  0.34017919  1  0  0.090962  0.09144  0  1.020418  0
H  H16  1  0.86548733  0.46863070  0.34015631  1  0  0.09073  0.091383  0  1.020316  0
H  H17  1  0.52551388  0.03129380  0.65982166  1  0  0.09098  0.091473  0  1.020294  0
H  H18  1  0.79905798  0.72590085  0.64782295  1  0  0.111588  0.152064  0  0.996985  0
H  H19  1  0.15094597  0.77414565  0.35205388  1  0  0.111749  0.152053  0  0.996922  0
H  H20  1  0.20093144  0.27411148  0.35218459  1  0  0.1116  0.152102  0  0.996956  0
H  H21  1  0.84906512  0.22584913  0.64794470  1  0  0.11174  0.152094  0  0.996827  0
H  H22  1  0.96972571  0.77920659  0.54864032  1  0  0.110037  0.145509  0  0.996228  0
H  H23  1  0.42073590  0.72080995  0.45129711  1  0  0.109998  0.145808  0  0.996275  0
H  H24  1  0.03025401  0.22079179  0.45135693  1  0  0.109985  0.145421  0  0.996401  0
H  H25  1  0.57927980  0.27918990  0.54870534  1  0  0.109948  0.145641  0  0.996313  0
C  C26  1  0.09748129  0.56801849  0.57318308  1  0  -0.163393  -0.096204  0  3.929301  0
C  C27  1  0.52421225  0.93197762  0.42680309  1  0  -0.16365  -0.095235  0  3.926979  0
C  C28  1  0.90249585  0.43198022  0.42682145  1  0  -0.16339  -0.096062  0  3.929287  0
C  C29  1  0.47580044  0.06801722  0.57319681  1  0  -0.163657  -0.095123  0  3.926854  0
C  C30  1  0.99429414  0.73602231  0.63078484  1  0  -0.161601  -0.456143  0  3.912657  0
C  C31  1  0.36325538  0.76399372  0.36916110  1  0  -0.162023  -0.457449  0  3.912186  0
C  C32  1  0.00568966  0.26398609  0.36921712  1  0  -0.161609  -0.456191  0  3.912898  0
C  C33  1  0.63675039  0.23598991  0.63083496  1  0  -0.162022  -0.457373  0  3.912057  0
O  O34  1  0.09953960  0.06848978  0.82988047  1  0  -0.378897  -0.765061  0  2.295474  0
O  O35  1  0.26953732  0.43156342  0.17011970  1  0  -0.379039  -0.765707  0  2.295713  0
O  O36  1  0.90044190  0.93153456  0.17012137  1  0  -0.378852  -0.765037  0  2.296273  0
O  O37  1  0.73046163  0.56842182  0.82988518  1  0  -0.37891  -0.765549  0  2.296592  0
O  O38  1  0.19328873  0.87471755  0.94105823  1  0  -0.372499  -0.792203  0  2.381915  0
O  O39  1  0.25245698  0.62519817  0.05883791  1  0  -0.372648  -0.792956  0  2.3818  0
O  O40  1  0.80671611  0.12529518  0.05893056  1  0  -0.372536  -0.792218  0  2.381212  0
O  O41  1  0.74756273  0.37479837  0.94117277  1  0  -0.372772  -0.793097  0  2.381198  0
O  O42  1  0.48581916  0.89990775  0.79443417  1  0  -0.380575  -0.651894  0  2.254958  0
O  O43  1  0.69149334  0.60023350  0.20588264  1  0  -0.379748  -0.651338  0  2.254483  0
O  O44  1  0.51418100  0.10010172  0.20556393  1  0  -0.380506  -0.651857  0  2.255081  0
O  O45  1  0.30852187  0.39975512  0.79411540  1  0  -0.379713  -0.651278  0  2.254549  0
