# generated using pymatgen
data_Na2H16C12S2Br2N2O7
_symmetry_space_group_name_H-M   'P 1'
_cell_length_a   6.12609058
_cell_length_b   6.12619850
_cell_length_c   14.86757079
_cell_angle_alpha   78.10987847
_cell_angle_beta   78.11147380
_cell_angle_gamma   65.66944473
_symmetry_Int_Tables_number   1
_chemical_formula_structural   Na2H16C12S2Br2N2O7
_chemical_formula_sum   'Na2 H16 C12 S2 Br2 N2 O7'
_cell_volume   492.89742052
_cell_formula_units_Z   1
loop_
 _symmetry_equiv_pos_site_id
 _symmetry_equiv_pos_as_xyz
  1  'x, y, z'
loop_
 _atom_site_type_symbol
 _atom_site_label
 _atom_site_symmetry_multiplicity
 _atom_site_fract_x
 _atom_site_fract_y
 _atom_site_fract_z
 _atom_site_occupancy
 _atom_site_hle17_bader_spin_density
 _atom_site_hle17_ddec_charge
 _atom_site_hle17_ddec_spin_density
 _atom_site_hle17_ddec_sum_bond_order
 _atom_site_hle17_magmom
 _atom_site_hse06_10hf_bader_spin_density
 _atom_site_hse06_10hf_ddec_charge
 _atom_site_hse06_10hf_ddec_spin_density
 _atom_site_hse06_10hf_ddec_sum_bond_order
 _atom_site_hse06_10hf_magmom
 _atom_site_hse06_bader_spin_density
 _atom_site_hse06_ddec_charge
 _atom_site_hse06_ddec_spin_density
 _atom_site_hse06_ddec_sum_bond_order
 _atom_site_hse06_magmom
 _atom_site_pbe_bader_spin_density
 _atom_site_pbe_cm5_charge
 _atom_site_pbe_ddec_charge
 _atom_site_pbe_ddec_spin_density
 _atom_site_pbe_ddec_sum_bond_order
 _atom_site_pbe_magmom
Na  Na0  1  0.15844889  0.11856162  0.53618103  1  0  0.911474  0  0.365282  0  0  0.87768  0  0.506775  0  0  0.886742  0  0.485898  0  0  0.660274  0.870902  0  0.521909  0
Na  Na1  1  0.88144260  0.84156538  0.46382170  1  0  0.91148  0  0.365283  0  0  0.877639  0  0.506851  0  0  0.886695  0  0.485959  0  0  0.660235  0.870851  0  0.521988  0
H  H2  1  0.25750614  0.81598113  0.76940118  1  0  0.100843  0  0.95419  0  0  0.105891  0  1.026085  0  0  0.109662  0  1.023185  0  0  0.104925  0.103093  0  1.028313  0
H  H3  1  0.18399413  0.74249794  0.23060512  1  0  0.100874  0  0.954237  0  0  0.105903  0  1.026159  0  0  0.109671  0  1.023271  0  0  0.10488  0.103139  0  1.028352  0
H  H4  1  0.07966093  0.95511268  0.92256761  1  0  0.08761  0  0.964943  0  0  0.099607  0  1.025028  0  0  0.10195  0  1.024801  0  0  0.099223  0.097881  0  1.025358  0
H  H5  1  0.04487620  0.92033084  0.07743791  1  0  0.087626  0  0.965212  0  0  0.099663  0  1.02523  0  0  0.102007  0  1.024998  0  0  0.099243  0.097933  0  1.025565  0
H  H6  1  0.74955530  0.83453477  0.01941735  1  0  0.0863  0  0.972481  0  0  0.094612  0  1.038984  0  0  0.096884  0  1.038671  0  0  0.096031  0.092975  0  1.03927  0
H  H7  1  0.16543403  0.25043282  0.98058041  1  0  0.086192  0  0.972531  0  0  0.094556  0  1.039006  0  0  0.096831  0  1.038697  0  0  0.096015  0.092926  0  1.039272  0
H  H8  1  0.60089875  0.57885840  0.96008792  1  0  0.08227  0  0.975118  0  0  0.095413  0  1.031641  0  0  0.097901  0  1.031141  0  0  0.096927  0.093625  0  1.032144  0
H  H9  1  0.42109701  0.39911006  0.03991125  1  0  0.082157  0  0.975  0  0  0.095263  0  1.031614  0  0  0.097757  0  1.031104  0  0  0.096853  0.093474  0  1.032116  0
H  H10  1  0.78605217  0.43145170  0.80636291  1  0  0.102928  0  0.978418  0  0  0.106148  0  1.052358  0  0  0.109819  0  1.050191  0  0  0.095523  0.10348  0  1.053983  0
H  H11  1  0.56850479  0.21397277  0.19363690  1  0  0.103093  0  0.97835  0  0  0.106228  0  1.052359  0  0  0.109897  0  1.050195  0  0  0.095557  0.103569  0  1.053974  0
H  H12  1  0.68335415  0.36737101  0.44610394  1  0  0.397549  0  0.915973  0  0  0.365703  0  0.982815  0  0  0.37516  0  0.969004  0  0  0.282052  0.359085  0  0.992472  0
H  H13  1  0.63264445  0.31666138  0.55389410  1  0  0.397565  0  0.915954  0  0  0.365747  0  0.98274  0  0  0.375205  0  0.968929  0  0  0.282057  0.359129  0  0.992398  0
H  H14  1  0.59117232  0.90840068  0.63064461  1  0  0.388391  0  0.911114  0  0  0.357542  0  0.986729  0  0  0.366765  0  0.972849  0  0  0.281763  0.350994  0  0.996593  0
H  H15  1  0.09161737  0.40883850  0.36935631  1  0  0.388424  0  0.911143  0  0  0.357585  0  0.986676  0  0  0.366805  0  0.972801  0  0  0.28182  0.351038  0  0.996538  0
H  H16  1  0.52932295  0.69498925  0.61522088  1  0  0.410662  0  0.8985  0  0  0.376625  0  0.969026  0  0  0.386507  0  0.954529  0  0  0.284956  0.369691  0  0.979187  0
H  H17  1  0.30502978  0.47068374  0.38478195  1  0  0.410687  0  0.898448  0  0  0.376626  0  0.968994  0  0  0.386506  0  0.9545  0  0  0.284978  0.36969  0  0.979158  0
C  C18  1  0.03200042  0.61446790  0.78014904  1  0  -0.129953  0  3.780105  0  0  -0.103136  0  4.02468  0  0  -0.109741  0  4.047203  0  0  -0.02937  -0.099008  0  4.009724  0
C  C19  1  0.38551489  0.96801607  0.21985137  1  0  -0.130233  0  3.780338  0  0  -0.103281  0  4.024746  0  0  -0.109882  0  4.047262  0  0  -0.029435  -0.099152  0  4.009798  0
C  C20  1  0.11671511  0.76060124  0.81209589  1  0  -0.05847  0  3.743532  0  0  -0.085048  0  3.996024  0  0  -0.084068  0  4.01521  0  0  -0.084602  -0.085412  0  3.982952  0
C  C21  1  0.23937445  0.88328397  0.18791295  1  0  -0.058366  0  3.743333  0  0  -0.085002  0  3.9958  0  0  -0.084017  0  4.014962  0  0  -0.08452  -0.085402  0  3.982726  0
C  C22  1  0.01528523  0.83901393  0.89836357  1  0  -0.07639  0  3.759325  0  0  -0.086087  0  4.005154  0  0  -0.089863  0  4.026634  0  0  -0.092925  -0.083548  0  3.990503  0
C  C23  1  0.16094898  0.98470997  0.10164219  1  0  -0.076548  0  3.759747  0  0  -0.08627  0  4.005552  0  0  -0.09004  0  4.02703  0  0  -0.092966  -0.08373  0  3.990912  0
C  C24  1  0.83037406  0.77296753  0.95207487  1  0  -0.064465  0  3.763749  0  0  -0.081546  0  4.014464  0  0  -0.081137  0  4.034876  0  0  -0.09137  -0.081575  0  4.00038  0
C  C25  1  0.22699334  0.16961736  0.04793293  1  0  -0.064316  0  3.763952  0  0  -0.081454  0  4.014636  0  0  -0.081054  0  4.035054  0  0  -0.091315  -0.081483  0  4.000557  0
C  C26  1  0.74668196  0.62824748  0.91889684  1  0  -0.072609  0  3.766626  0  0  -0.082148  0  4.011085  0  0  -0.086056  0  4.032666  0  0  -0.09363  -0.079551  0  3.996356  0
C  C27  1  0.37172284  0.25331343  0.08110214  1  0  -0.07227  0  3.766409  0  0  -0.081779  0  4.010785  0  0  -0.085688  0  4.032369  0  0  -0.093492  -0.079183  0  3.996054  0
C  C28  1  0.84799295  0.54616183  0.83294475  1  0  -0.074655  0  3.747661  0  0  -0.097504  0  3.994124  0  0  -0.097047  0  4.013577  0  0  -0.091092  -0.097569  0  3.980977  0
C  C29  1  0.45381173  0.15202025  0.16705226  1  0  -0.074882  0  3.748007  0  0  -0.097713  0  3.994435  0  0  -0.097256  0  4.013886  0  0  -0.091188  -0.097784  0  3.981276  0
S  S30  1  0.15346976  0.52789681  0.66722839  1  0  1.192474  0  5.538467  0  0  1.109391  0  6.042505  0  0  1.152351  0  6.028044  0  0  0.522554  1.079864  0  6.051498  0
S  S31  1  0.47208294  0.84654086  0.33277142  1  0  1.192756  0  5.538095  0  0  1.109613  0  6.042061  0  0  1.15258  0  6.02759  0  0  0.522649  1.080087  0  6.051054  0
Br  Br32  1  0.56551047  0.16742029  0.74860995  1  0  0.033518  0  1.417009  0  0  0.054041  0  1.695144  0  0  0.050573  0  1.68707  0  0  0.147649  0.056233  0  1.700923  0
Br  Br33  1  0.83258130  0.43455663  0.25136926  1  0  0.033507  0  1.416948  0  0  0.054066  0  1.695059  0  0  0.050585  0  1.686974  0  0  0.14763  0.056257  0  1.700842  0
N  N34  1  0.44081110  0.44092297  0.65756660  1  0  -0.63292  0  2.679153  0  0  -0.570655  0  2.959103  0  0  -0.587128  0  2.954154  0  0  -0.388691  -0.559233  0  2.962291  0
N  N35  1  0.55909524  0.55920554  0.34242776  1  0  -0.632988  0  2.679383  0  0  -0.570733  0  2.959417  0  0  -0.587179  0  2.954383  0  0  -0.388737  -0.559313  0  2.962618  0
O  O36  1  0.08104067  0.74920462  0.60038937  1  0  -0.686706  0  1.988916  0  0  -0.641655  0  2.254181  0  0  -0.663385  0  2.241649  0  0  -0.398412  -0.626043  0  2.262141  0
O  O37  1  0.25081418  0.91896359  0.39961319  1  0  -0.686632  0  1.98896  0  0  -0.641624  0  2.254329  0  0  -0.663354  0  2.241793  0  0  -0.398345  -0.625999  0  2.262258  0
O  O38  1  0.06324440  0.34689099  0.65951903  1  0  -0.666645  0  1.974325  0  0  -0.624954  0  2.233521  0  0  -0.643942  0  2.219705  0  0  -0.377963  -0.611547  0  2.242565  0
O  O39  1  0.65311286  0.93678436  0.34047842  1  0  -0.666843  0  1.973524  0  0  -0.625087  0  2.232683  0  0  -0.644081  0  2.218863  0  0  -0.378065  -0.611682  0  2.241729  0
O  O40  1  0.75093014  0.24908110  0.50000064  1  0  -0.889681  0  1.800927  0  0  -0.843267  0  1.977995  0  0  -0.859139  0  1.947603  0  0  -0.686292  -0.832027  0  1.999158  0
O  O41  1  0.54680154  0.84863539  0.58381975  1  0  -0.886376  0  1.829068  0  0  -0.848285  0  2.010335  0  0  -0.862381  0  1.978239  0  0  -0.680671  -0.838322  0  2.032847  0
O  O42  1  0.15137587  0.45321373  0.41618012  1  0  -0.886434  0  1.829033  0  0  -0.848314  0  2.010299  0  0  -0.862414  0  1.978208  0  0  -0.680714  -0.838352  0  2.032819  0
