# generated using pymatgen
data_ZnH8C10(NCl)2
_symmetry_space_group_name_H-M   'P 1'
_cell_length_a   4.51688449
_cell_length_b   12.50206712
_cell_length_c   18.59655027
_cell_angle_alpha   89.99936448
_cell_angle_beta   90.00094550
_cell_angle_gamma   90.00031520
_symmetry_Int_Tables_number   1
_chemical_formula_structural   ZnH8C10(NCl)2
_chemical_formula_sum   'Zn4 H32 C40 N8 Cl8'
_cell_volume   1050.15450200
_cell_formula_units_Z   4
loop_
 _symmetry_equiv_pos_site_id
 _symmetry_equiv_pos_as_xyz
  1  'x, y, z'
loop_
 _atom_site_type_symbol
 _atom_site_label
 _atom_site_symmetry_multiplicity
 _atom_site_fract_x
 _atom_site_fract_y
 _atom_site_fract_z
 _atom_site_occupancy
 _atom_site_hle17_bader_spin_density
 _atom_site_hle17_ddec_charge
 _atom_site_hle17_ddec_spin_density
 _atom_site_hle17_ddec_sum_bond_order
 _atom_site_hle17_magmom
 _atom_site_hse06_10hf_bader_spin_density
 _atom_site_hse06_10hf_ddec_charge
 _atom_site_hse06_10hf_ddec_spin_density
 _atom_site_hse06_10hf_ddec_sum_bond_order
 _atom_site_hse06_10hf_magmom
 _atom_site_hse06_bader_spin_density
 _atom_site_hse06_ddec_charge
 _atom_site_hse06_ddec_spin_density
 _atom_site_hse06_ddec_sum_bond_order
 _atom_site_hse06_magmom
 _atom_site_pbe_bader_spin_density
 _atom_site_pbe_cm5_charge
 _atom_site_pbe_ddec_charge
 _atom_site_pbe_ddec_spin_density
 _atom_site_pbe_ddec_sum_bond_order
 _atom_site_pbe_magmom
Zn  Zn0  1  0.94425009  0.24999545  0.39145908  1  0  0.862732  0  2.043491  0  0  0.678438  0  2.533966  0  0  0.719854  0  2.488152  0  0  0.565185  0.649925  0  2.565189  0
Zn  Zn1  1  0.44426976  0.75000666  0.10854406  1  0  0.862693  0  2.04354  0  0  0.678457  0  2.533961  0  0  0.71985  0  2.488135  0  0  0.5652  0.649944  0  2.565187  0
Zn  Zn2  1  0.55575562  0.24999817  0.89145748  1  0  0.862759  0  2.043582  0  0  0.67852  0  2.534043  0  0  0.719917  0  2.488218  0  0  0.56522  0.650007  0  2.565256  0
Zn  Zn3  1  0.05575536  0.75001099  0.60854191  1  0  0.862685  0  2.043442  0  0  0.678507  0  2.533843  0  0  0.7199  0  2.488017  0  0  0.565162  0.649989  0  2.565062  0
H  H4  1  0.70727948  0.41507038  0.29047098  1  0  0.073726  0  0.964261  0  0  0.0809  0  1.031613  0  0  0.083511  0  1.028861  0  0  0.105247  0.07882  0  1.033869  0
H  H5  1  0.20727430  0.58492892  0.20952528  1  0  0.073781  0  0.964146  0  0  0.08096  0  1.031507  0  0  0.083529  0  1.028802  0  0  0.105268  0.078888  0  1.033753  0
H  H6  1  0.79271949  0.08492571  0.79047103  1  0  0.073793  0  0.964172  0  0  0.080939  0  1.031562  0  0  0.083511  0  1.028852  0  0  0.105251  0.078876  0  1.033798  0
H  H7  1  0.29271550  0.91506866  0.70953578  1  0  0.073866  0  0.964165  0  0  0.081017  0  1.031531  0  0  0.083582  0  1.028838  0  0  0.105332  0.078949  0  1.033768  0
H  H8  1  0.29271933  0.58492646  0.70952787  1  0  0.073923  0  0.964334  0  0  0.081109  0  1.031637  0  0  0.083679  0  1.028928  0  0  0.105341  0.079047  0  1.033877  0
H  H9  1  0.79272230  0.41507751  0.79047464  1  0  0.073843  0  0.963993  0  0  0.08099  0  1.03139  0  0  0.083563  0  1.028683  0  0  0.105282  0.078913  0  1.033642  0
H  H10  1  0.20729482  0.91507752  0.20953158  1  0  0.073816  0  0.964062  0  0  0.080961  0  1.031458  0  0  0.083529  0  1.02876  0  0  0.105261  0.078935  0  1.033657  0
H  H11  1  0.70727889  0.08492497  0.29046898  1  0  0.073854  0  0.964049  0  0  0.080994  0  1.031451  0  0  0.083564  0  1.028748  0  0  0.105288  0.078916  0  1.033708  0
H  H12  1  0.40384328  0.42346164  0.18013212  1  0  0.105733  0  0.988318  0  0  0.114966  0  1.052306  0  0  0.11841  0  1.050538  0  0  0.097906  0.112495  0  1.053707  0
H  H13  1  0.90384653  0.57653800  0.31986602  1  0  0.10555  0  0.988123  0  0  0.114781  0  1.052167  0  0  0.11821  0  1.050412  0  0  0.09784  0.112309  0  1.053571  0
H  H14  1  0.09614269  0.07655140  0.68013251  1  0  0.105642  0  0.988015  0  0  0.114843  0  1.052079  0  0  0.118247  0  1.050344  0  0  0.09785  0.11236  0  1.053512  0
H  H15  1  0.59615849  0.92344983  0.81987511  1  0  0.105686  0  0.987872  0  0  0.114862  0  1.051978  0  0  0.118231  0  1.050288  0  0  0.097838  0.112389  0  1.053391  0
H  H16  1  0.59616439  0.57654080  0.81986619  1  0  0.105764  0  0.988356  0  0  0.115021  0  1.052311  0  0  0.11846  0  1.050561  0  0  0.097955  0.112552  0  1.053709  0
H  H17  1  0.09614121  0.42345403  0.68012907  1  0  0.105617  0  0.988075  0  0  0.114809  0  1.052175  0  0  0.118189  0  1.050471  0  0  0.097843  0.112335  0  1.053586  0
H  H18  1  0.90386498  0.92344144  0.31986849  1  0  0.105584  0  0.988093  0  0  0.114903  0  1.052036  0  0  0.118293  0  1.050318  0  0  0.097904  0.112423  0  1.053462  0
H  H19  1  0.40384475  0.07655020  0.18013018  1  0  0.105694  0  0.987938  0  0  0.114883  0  1.052024  0  0  0.118289  0  1.050291  0  0  0.097864  0.112405  0  1.05345  0
H  H20  1  0.12009998  0.07626588  0.09814451  1  0  0.109091  0  0.969534  0  0  0.117674  0  1.034299  0  0  0.120827  0  1.0331  0  0  0.101412  0.115364  0  1.035417  0
H  H21  1  0.62012790  0.92373726  0.40185839  1  0  0.109168  0  0.969471  0  0  0.117734  0  1.034267  0  0  0.120903  0  1.033033  0  0  0.101454  0.115424  0  1.035383  0
H  H22  1  0.37987388  0.42374451  0.59814186  1  0  0.109199  0  0.969391  0  0  0.117721  0  1.034218  0  0  0.120896  0  1.032965  0  0  0.101465  0.115409  0  1.035338  0
H  H23  1  0.87990695  0.57625721  0.90185617  1  0  0.109101  0  0.969455  0  0  0.117588  0  1.034311  0  0  0.120757  0  1.033072  0  0  0.10141  0.115264  0  1.035459  0
H  H24  1  0.87986784  0.92373415  0.90186294  1  0  0.109162  0  0.969513  0  0  0.117691  0  1.034339  0  0  0.120868  0  1.033085  0  0  0.101436  0.115376  0  1.035467  0
H  H25  1  0.37985099  0.07626037  0.59813455  1  0  0.109202  0  0.969413  0  0  0.117708  0  1.034263  0  0  0.120875  0  1.033033  0  0  0.101459  0.115399  0  1.035375  0
H  H26  1  0.62010280  0.57625792  0.40185591  1  0  0.109101  0  0.969421  0  0  0.117644  0  1.034244  0  0  0.120817  0  1.032997  0  0  0.101393  0.115329  0  1.035368  0
H  H27  1  0.12012729  0.42374842  0.09813838  1  0  0.109223  0  0.969418  0  0  0.117665  0  1.034353  0  0  0.120835  0  1.03311  0  0  0.101453  0.115346  0  1.035483  0
H  H28  1  0.79143329  0.08442012  0.99246978  1  0  0.08  0  0.959749  0  0  0.085571  0  1.029437  0  0  0.088065  0  1.027112  0  0  0.104637  0.083668  0  1.031285  0
H  H29  1  0.29146233  0.91558065  0.50752573  1  0  0.079993  0  0.959819  0  0  0.085604  0  1.029439  0  0  0.088097  0  1.027115  0  0  0.104635  0.0837  0  1.031286  0
H  H30  1  0.70853930  0.41557902  0.49247296  1  0  0.080007  0  0.959924  0  0  0.085613  0  1.029546  0  0  0.088106  0  1.027223  0  0  0.104623  0.083707  0  1.031395  0
H  H31  1  0.20857155  0.58441548  0.00753352  1  0  0.080025  0  0.959817  0  0  0.085609  0  1.029479  0  0  0.088104  0  1.02715  0  0  0.104664  0.083705  0  1.031324  0
H  H32  1  0.20852124  0.91558151  0.00753229  1  0  0.080064  0  0.959933  0  0  0.085575  0  1.029659  0  0  0.08807  0  1.027334  0  0  0.104672  0.083676  0  1.0315  0
H  H33  1  0.70853427  0.08441859  0.49246881  1  0  0.079985  0  0.95979  0  0  0.08554  0  1.029483  0  0  0.088034  0  1.027158  0  0  0.104594  0.083637  0  1.03133  0
H  H34  1  0.29143073  0.58441541  0.50752965  1  0  0.079957  0  0.959742  0  0  0.085578  0  1.029367  0  0  0.088073  0  1.027039  0  0  0.104646  0.083676  0  1.031212  0
H  H35  1  0.79146268  0.41558696  0.99246317  1  0  0.080011  0  0.959894  0  0  0.085555  0  1.029603  0  0  0.088049  0  1.02728  0  0  0.104658  0.083654  0  1.031442  0
C  C36  1  0.62884341  0.34238094  0.26452757  1  0  0.140617  0  3.717707  0  0  0.108882  0  3.96668  0  0  0.116566  0  3.984489  0  0  0.043603  0.103962  0  3.954694  0
C  C37  1  0.12887440  0.65762141  0.23547106  1  0  0.140548  0  3.717751  0  0  0.108832  0  3.966761  0  0  0.116547  0  3.984577  0  0  0.04364  0.103906  0  3.95477  0
C  C38  1  0.87111398  0.15762197  0.76452740  1  0  0.140439  0  3.717664  0  0  0.108769  0  3.966686  0  0  0.116483  0  3.984488  0  0  0.043641  0.103838  0  3.954689  0
C  C39  1  0.37113706  0.84237094  0.73547812  1  0  0.140404  0  3.718051  0  0  0.108723  0  3.967054  0  0  0.116436  0  3.98486  0  0  0.043567  0.103797  0  3.955059  0
C  C40  1  0.37114434  0.65761109  0.73546859  1  0  0.1404  0  3.717815  0  0  0.108719  0  3.966807  0  0  0.116434  0  3.984629  0  0  0.043545  0.103783  0  3.95482  0
C  C41  1  0.87113327  0.34238022  0.76452778  1  0  0.140433  0  3.717733  0  0  0.108777  0  3.966768  0  0  0.116489  0  3.984563  0  0  0.043592  0.103855  0  3.954776  0
C  C42  1  0.12888483  0.84237726  0.23547091  1  0  0.140485  0  3.717925  0  0  0.108781  0  3.966976  0  0  0.116494  0  3.984781  0  0  0.043617  0.103823  0  3.954976  0
C  C43  1  0.62886397  0.15762270  0.26452556  1  0  0.140406  0  3.717843  0  0  0.108678  0  3.96681  0  0  0.11639  0  3.984612  0  0  0.043565  0.103756  0  3.954826  0
C  C44  1  0.45535676  0.34564316  0.20306096  1  0  -0.148074  0  3.684749  0  0  -0.167215  0  3.930554  0  0  -0.175276  0  3.951589  0  0  -0.082435  -0.162028  0  3.916485  0
C  C45  1  0.95537309  0.65436057  0.29693631  1  0  -0.147602  0  3.684606  0  0  -0.166801  0  3.930329  0  0  -0.174847  0  3.951372  0  0  -0.08227  -0.161612  0  3.916263  0
C  C46  1  0.04461966  0.15437109  0.70306056  1  0  -0.14775  0  3.684341  0  0  -0.166883  0  3.930081  0  0  -0.174904  0  3.951132  0  0  -0.08229  -0.161699  0  3.916016  0
C  C47  1  0.54462376  0.84562524  0.79693825  1  0  -0.147915  0  3.684267  0  0  -0.166984  0  3.930086  0  0  -0.174977  0  3.951152  0  0  -0.082344  -0.1618  0  3.916013  0
C  C48  1  0.54465091  0.65435447  0.79693735  1  0  -0.148082  0  3.68455  0  0  -0.167282  0  3.930411  0  0  -0.17534  0  3.951422  0  0  -0.082484  -0.162094  0  3.916351  0
C  C49  1  0.04462350  0.34563466  0.70306469  1  0  -0.147775  0  3.684642  0  0  -0.166937  0  3.930415  0  0  -0.174942  0  3.951484  0  0  -0.082328  -0.16175  0  3.91635  0
C  C50  1  0.95539465  0.84562174  0.29693506  1  0  -0.147737  0  3.684518  0  0  -0.167009  0  3.930245  0  0  -0.175025  0  3.951313  0  0  -0.082375  -0.161823  0  3.916194  0
C  C51  1  0.45537506  0.15437399  0.20306114  1  0  -0.147899  0  3.684476  0  0  -0.166985  0  3.930282  0  0  -0.175  0  3.951322  0  0  -0.082353  -0.161799  0  3.916217  0
C  C52  1  0.35750869  0.25000235  0.17140525  1  0  0.104965  0  3.722547  0  0  0.117258  0  3.951087  0  0  0.121994  0  3.971997  0  0  0.016471  0.114274  0  3.936814  0
C  C53  1  0.85751548  0.74999241  0.32858947  1  0  0.104642  0  3.722799  0  0  0.117109  0  3.951013  0  0  0.121846  0  3.971921  0  0  0.01636  0.114124  0  3.936744  0
C  C54  1  0.14249662  0.25000203  0.67141260  1  0  0.104822  0  3.722481  0  0  0.117262  0  3.950832  0  0  0.122005  0  3.97172  0  0  0.016444  0.114273  0  3.936569  0
C  C55  1  0.64252112  0.74999688  0.82859199  1  0  0.104969  0  3.721944  0  0  0.117289  0  3.95054  0  0  0.122027  0  3.97145  0  0  0.016449  0.114304  0  3.93627  0
C  C56  1  0.16034412  0.25000591  0.10779896  1  0  0.100797  0  3.723135  0  0  0.11189  0  3.953081  0  0  0.116167  0  3.974309  0  0  0.013903  0.109246  0  3.938546  0
C  C57  1  0.66037729  0.74999331  0.39219711  1  0  0.10089  0  3.723156  0  0  0.112097  0  3.95277  0  0  0.116372  0  3.974  0  0  0.013966  0.109453  0  3.938243  0
C  C58  1  0.33963923  0.25000193  0.60780819  1  0  0.100982  0  3.722943  0  0  0.11204  0  3.95282  0  0  0.116316  0  3.97405  0  0  0.013908  0.109396  0  3.938295  0
C  C59  1  0.83967019  0.74999413  0.89220419  1  0  0.100924  0  3.722955  0  0  0.111912  0  3.953005  0  0  0.116183  0  3.974241  0  0  0.013871  0.109272  0  3.938464  0
C  C60  1  0.05925047  0.15425711  0.07687079  1  0  -0.144779  0  3.676713  0  0  -0.164288  0  3.925245  0  0  -0.172213  0  3.946569  0  0  -0.081095  -0.159229  0  3.911061  0
C  C61  1  0.55927626  0.84574513  0.42312755  1  0  -0.144926  0  3.676546  0  0  -0.164518  0  3.925031  0  0  -0.172441  0  3.946357  0  0  -0.081188  -0.15946  0  3.910847  0
C  C62  1  0.44072197  0.34574804  0.57687274  1  0  -0.144996  0  3.676712  0  0  -0.164489  0  3.925286  0  0  -0.172409  0  3.946616  0  0  -0.081157  -0.159431  0  3.911102  0
C  C63  1  0.94079985  0.65424499  0.92313199  1  0  -0.144771  0  3.67657  0  0  -0.164163  0  3.925145  0  0  -0.172081  0  3.94648  0  0  -0.080994  -0.159106  0  3.910952  0
C  C64  1  0.94073949  0.84574533  0.92313289  1  0  -0.145089  0  3.676627  0  0  -0.164531  0  3.925185  0  0  -0.172452  0  3.946516  0  0  -0.081175  -0.159471  0  3.910998  0
C  C65  1  0.44072698  0.15425570  0.57687183  1  0  -0.144969  0  3.676634  0  0  -0.164441  0  3.925162  0  0  -0.172364  0  3.94649  0  0  -0.081108  -0.159382  0  3.910978  0
C  C66  1  0.55924807  0.65425280  0.42312987  1  0  -0.144853  0  3.676891  0  0  -0.164414  0  3.925384  0  0  -0.172335  0  3.946717  0  0  -0.081084  -0.159354  0  3.911198  0
C  C67  1  0.05925210  0.34575824  0.07686954  1  0  -0.144925  0  3.676437  0  0  -0.164359  0  3.925053  0  0  -0.172277  0  3.946386  0  0  -0.081083  -0.159299  0  3.910864  0
C  C68  1  0.87591096  0.15737140  0.01705275  1  0  0.142376  0  3.705325  0  0  0.109453  0  3.955045  0  0  0.117306  0  3.972844  0  0  0.043765  0.104336  0  3.94305  0
C  C69  1  0.37591069  0.84263059  0.48294366  1  0  0.142373  0  3.705229  0  0  0.109522  0  3.954958  0  0  0.117373  0  3.972759  0  0  0.043807  0.104407  0  3.942963  0
C  C70  1  0.62406756  0.34263321  0.51705504  1  0  0.14235  0  3.705401  0  0  0.109439  0  3.955114  0  0  0.117289  0  3.972916  0  0  0.043762  0.104329  0  3.943116  0
C  C71  1  0.12411506  0.65736967  0.98294786  1  0  0.142289  0  3.705398  0  0  0.109344  0  3.955142  0  0  0.117192  0  3.972943  0  0  0.043699  0.104237  0  3.94313  0
C  C72  1  0.12408785  0.84263423  0.98295255  1  0  0.14239  0  3.705288  0  0  0.109523  0  3.95499  0  0  0.117373  0  3.972792  0  0  0.043782  0.104404  0  3.943  0
C  C73  1  0.62408812  0.15736864  0.51705465  1  0  0.142419  0  3.705252  0  0  0.109549  0  3.954958  0  0  0.117402  0  3.972761  0  0  0.043839  0.104435  0  3.942965  0
C  C74  1  0.37590911  0.65736922  0.48294542  1  0  0.142451  0  3.705437  0  0  0.109567  0  3.955191  0  0  0.117417  0  3.972993  0  0  0.043813  0.104455  0  3.943184  0
C  C75  1  0.87591254  0.34263436  0.01705045  1  0  0.142444  0  3.705356  0  0  0.10954  0  3.9551  0  0  0.11739  0  3.972901  0  0  0.043775  0.104427  0  3.943093  0
N  N76  1  0.71157325  0.24999923  0.29580323  1  0  -0.327739  0  3.338913  0  0  -0.240121  0  3.609961  0  0  -0.259863  0  3.62636  0  0  -0.332844  -0.226878  0  3.598659  0
N  N77  1  0.21161480  0.75000087  0.20419412  1  0  -0.327802  0  3.339325  0  0  -0.240316  0  3.61054  0  0  -0.260036  0  3.626884  0  0  -0.332944  -0.227078  0  3.599262  0
N  N78  1  0.78837073  0.24999996  0.79580742  1  0  -0.327754  0  3.338979  0  0  -0.240314  0  3.610195  0  0  -0.260058  0  3.62661  0  0  -0.332966  -0.227072  0  3.598899  0
N  N79  1  0.28842335  0.74999760  0.70419884  1  0  -0.327708  0  3.33894  0  0  -0.240224  0  3.61011  0  0  -0.259949  0  3.626465  0  0  -0.332887  -0.226979  0  3.598815  0
N  N80  1  0.78869368  0.25000318  0.98667615  1  0  -0.33219  0  3.332286  0  0  -0.242261  0  3.602456  0  0  -0.262247  0  3.618529  0  0  -0.334127  -0.228845  0  3.591451  0
N  N81  1  0.28868708  0.74999838  0.51331881  1  0  -0.33212  0  3.332376  0  0  -0.242461  0  3.602809  0  0  -0.262447  0  3.618882  0  0  -0.334197  -0.229039  0  3.59179  0
N  N82  1  0.71129181  0.24999925  0.48667466  1  0  -0.332127  0  3.332229  0  0  -0.242288  0  3.602479  0  0  -0.262281  0  3.61856  0  0  -0.334134  -0.228858  0  3.591432  0
N  N83  1  0.21130734  0.75000245  0.01332538  1  0  -0.332035  0  3.332227  0  0  -0.242114  0  3.602388  0  0  -0.262101  0  3.618461  0  0  -0.334066  -0.2287  0  3.591379  0
Cl  Cl84  1  0.15529836  0.41344773  0.39047550  1  0  -0.563032  0  0.953028  0  0  -0.498556  0  1.239834  0  0  -0.515173  0  1.218837  0  0  -0.2974  -0.486263  0  1.254173  0
Cl  Cl85  1  0.65532539  0.58655867  0.10952807  1  0  -0.563013  0  0.953053  0  0  -0.498545  0  1.239835  0  0  -0.515154  0  1.218825  0  0  -0.297379  -0.486248  0  1.254178  0
Cl  Cl86  1  0.34466843  0.08655062  0.89047145  1  0  -0.563039  0  0.952943  0  0  -0.498568  0  1.239722  0  0  -0.515167  0  1.218696  0  0  -0.297395  -0.486273  0  1.254069  0
Cl  Cl87  1  0.84467668  0.91345344  0.60952751  1  0  -0.563036  0  0.953025  0  0  -0.498575  0  1.23982  0  0  -0.515174  0  1.218801  0  0  -0.2974  -0.486282  0  1.254168  0
Cl  Cl88  1  0.84468496  0.58656190  0.60952657  1  0  -0.563012  0  0.953025  0  0  -0.498545  0  1.239815  0  0  -0.515148  0  1.218792  0  0  -0.297366  -0.48625  0  1.254159  0
Cl  Cl89  1  0.34467785  0.41344696  0.89046808  1  0  -0.563079  0  0.953023  0  0  -0.498606  0  1.239786  0  0  -0.51521  0  1.218779  0  0  -0.297404  -0.486305  0  1.254121  0
Cl  Cl90  1  0.65532596  0.91345581  0.10953170  1  0  -0.562999  0  0.95298  0  0  -0.498537  0  1.239777  0  0  -0.515134  0  1.218762  0  0  -0.297372  -0.486241  0  1.25413  0
Cl  Cl91  1  0.15532214  0.08654899  0.39047134  1  0  -0.563016  0  0.952989  0  0  -0.498555  0  1.239807  0  0  -0.51516  0  1.218795  0  0  -0.297389  -0.486257  0  1.254145  0
