# generated using pymatgen
data_ErH10C16N5O8
_symmetry_space_group_name_H-M   'P 1'
_cell_length_a   9.43790309
_cell_length_b   10.10880226
_cell_length_c   11.61197429
_cell_angle_alpha   67.20602653
_cell_angle_beta   66.02037978
_cell_angle_gamma   62.17041140
_symmetry_Int_Tables_number   1
_chemical_formula_structural   ErH10C16N5O8
_chemical_formula_sum   'Er2 H20 C32 N10 O16'
_cell_volume   867.95282185
_cell_formula_units_Z   2
loop_
 _symmetry_equiv_pos_site_id
 _symmetry_equiv_pos_as_xyz
  1  'x, y, z'
loop_
 _atom_site_type_symbol
 _atom_site_label
 _atom_site_symmetry_multiplicity
 _atom_site_fract_x
 _atom_site_fract_y
 _atom_site_fract_z
 _atom_site_occupancy
 _atom_site_hle17_bader_spin_density
 _atom_site_hle17_ddec_charge
 _atom_site_hle17_ddec_spin_density
 _atom_site_hle17_ddec_sum_bond_order
 _atom_site_hle17_magmom
 _atom_site_hse06_10hf_bader_spin_density
 _atom_site_hse06_10hf_ddec_charge
 _atom_site_hse06_10hf_ddec_spin_density
 _atom_site_hse06_10hf_ddec_sum_bond_order
 _atom_site_hse06_10hf_magmom
 _atom_site_hse06_bader_spin_density
 _atom_site_hse06_ddec_charge
 _atom_site_hse06_ddec_spin_density
 _atom_site_hse06_ddec_sum_bond_order
 _atom_site_hse06_magmom
 _atom_site_pbe_bader_spin_density
 _atom_site_pbe_cm5_charge
 _atom_site_pbe_ddec_charge
 _atom_site_pbe_ddec_spin_density
 _atom_site_pbe_ddec_sum_bond_order
 _atom_site_pbe_magmom
Er  Er0  1  0.65991505  0.24999077  0.74998771  1  0  1.863666  0  1.978307  0  0  1.764426  0  2.325927  0  0  1.823811  0  2.280483  0  0  1.573686  1.719803  0  2.361408  0
Er  Er1  1  0.34008601  0.75000952  0.25001076  1  0  1.863606  0  1.978345  0  0  1.764357  0  2.325984  0  0  1.823864  0  2.280429  0  0  1.573688  1.719779  0  2.361416  0
H  H2  1  0.15619596  0.58711945  0.95175117  1  0  0.099091  0  0.971915  0  0  0.106581  0  1.036472  0  0  0.110609  0  1.03235  0  0  0.105274  0.103409  0  1.039693  0
H  H3  1  0.69492562  0.91288708  0.54827527  1  0  0.100456  0  0.97003  0  0  0.107254  0  1.035324  0  0  0.111186  0  1.031339  0  0  0.105344  0.104067  0  1.038797  0
H  H4  1  0.84380736  0.41288083  0.04824970  1  0  0.099091  0  0.971965  0  0  0.106597  0  1.036507  0  0  0.110614  0  1.032396  0  0  0.105253  0.103415  0  1.039742  0
H  H5  1  0.30507013  0.08711206  0.45172574  1  0  0.100411  0  0.970079  0  0  0.107243  0  1.03534  0  0  0.111189  0  1.03133  0  0  0.105335  0.104057  0  1.038812  0
H  H6  1  0.87595595  0.62630702  0.93793529  1  0  0.100511  0  0.969545  0  0  0.107881  0  1.034606  0  0  0.110659  0  1.034479  0  0  0.106941  0.107032  0  1.032239  0
H  H7  1  0.43998014  0.87372508  0.56219590  1  0  0.100807  0  0.967431  0  0  0.108656  0  1.031489  0  0  0.111459  0  1.03126  0  0  0.10604  0.106571  0  1.031984  0
H  H8  1  0.12404718  0.37368980  0.06206552  1  0  0.100539  0  0.969509  0  0  0.10788  0  1.034601  0  0  0.110662  0  1.034471  0  0  0.106958  0.107034  0  1.03223  0
H  H9  1  0.56001561  0.12627405  0.43780511  1  0  0.100817  0  0.967441  0  0  0.108677  0  1.031485  0  0  0.111476  0  1.031267  0  0  0.106055  0.106591  0  1.03198  0
H  H10  1  0.22799270  0.81360276  0.89250227  1  0  0.118572  0  0.969756  0  0  0.125762  0  1.033118  0  0  0.129781  0  1.030919  0  0  0.109531  0.122672  0  1.035  0
H  H11  1  0.93400903  0.68635708  0.60739010  1  0  0.117324  0  0.971642  0  0  0.124576  0  1.034875  0  0  0.128553  0  1.032747  0  0  0.109076  0.121529  0  1.03676  0
H  H12  1  0.77200696  0.18639868  0.10749807  1  0  0.11857  0  0.96977  0  0  0.125759  0  1.033137  0  0  0.12978  0  1.030932  0  0  0.10952  0.122673  0  1.035013  0
H  H13  1  0.06598994  0.31364436  0.39260862  1  0  0.117316  0  0.971638  0  0  0.124565  0  1.034877  0  0  0.12854  0  1.032753  0  0  0.109074  0.121522  0  1.036754  0
H  H14  1  0.68899062  0.89477318  0.85918846  1  0  0.093266  0  0.922878  0  0  0.101449  0  0.984017  0  0  0.104239  0  0.981278  0  0  0.128126  0.099022  0  0.986949  0
H  H15  1  0.44276457  0.60523399  0.64086737  1  0  0.09342  0  0.923406  0  0  0.102166  0  0.984004  0  0  0.105006  0  0.981215  0  0  0.129196  0.099921  0  0.986168  0
H  H16  1  0.31101127  0.10522481  0.14081173  1  0  0.093251  0  0.92288  0  0  0.101434  0  0.984015  0  0  0.104221  0  0.981276  0  0  0.128104  0.098976  0  0.986981  0
H  H17  1  0.55723382  0.39476284  0.35913238  1  0  0.093451  0  0.923383  0  0  0.102173  0  0.984004  0  0  0.105018  0  0.981208  0  0  0.129204  0.099927  0  0.986172  0
H  H18  1  0.27615161  0.00803137  0.84091664  1  0  0.133657  0  0.942736  0  0  0.141236  0  1.004881  0  0  0.145901  0  1.001514  0  0  0.117752  0.137815  0  1.007385  0
H  H19  1  0.12487390  0.49222958  0.65895952  1  0  0.133978  0  0.942892  0  0  0.140525  0  1.006694  0  0  0.145179  0  1.003365  0  0  0.118225  0.138199  0  1.006394  0
H  H20  1  0.72384843  0.99196891  0.15908518  1  0  0.133694  0  0.942701  0  0  0.141256  0  1.004866  0  0  0.145927  0  1.00149  0  0  0.11776  0.13783  0  1.007382  0
H  H21  1  0.87512614  0.50777070  0.34104230  1  0  0.133981  0  0.94289  0  0  0.140514  0  1.006701  0  0  0.145166  0  1.003382  0  0  0.118225  0.13819  0  1.006403  0
C  C22  1  0.06720694  0.70130428  0.92065693  1  0  0.009077  0  3.693944  0  0  -0.009064  0  3.942577  0  0  -0.005782  0  3.960366  0  0  -0.063405  -0.010603  0  3.929736  0
C  C23  1  0.68899148  0.79871748  0.57934441  1  0  0.008052  0  3.690491  0  0  -0.009387  0  3.938312  0  0  -0.005974  0  3.956111  0  0  -0.063316  -0.01103  0  3.92688  0
C  C24  1  0.93279576  0.29869602  0.07934106  1  0  0.009058  0  3.693891  0  0  -0.009094  0  3.942499  0  0  -0.005804  0  3.960296  0  0  -0.063364  -0.010626  0  3.929663  0
C  C25  1  0.31100779  0.20128167  0.42065191  1  0  0.008098  0  3.690522  0  0  -0.009362  0  3.938346  0  0  -0.005953  0  3.956136  0  0  -0.063303  -0.011009  0  3.926914  0
C  C26  1  0.21573114  0.25015850  0.74994463  1  0  0.021341  0  3.726239  0  0  0.041424  0  3.957669  0  0  0.039377  0  3.977245  0  0  0.01059  0.042056  0  3.944965  0
C  C27  1  0.78426936  0.74984063  0.25005743  1  0  0.021412  0  3.726216  0  0  0.041453  0  3.957655  0  0  0.039415  0  3.97724  0  0  0.010595  0.042089  0  3.944951  0
C  C28  1  0.91480417  0.72237532  0.91199057  1  0  -0.106959  0  3.697468  0  0  -0.120685  0  3.950763  0  0  -0.128066  0  3.972608  0  0  -0.077797  -0.116035  0  3.934539  0
C  C29  1  0.54896488  0.77763871  0.58808531  1  0  -0.106887  0  3.695908  0  0  -0.120434  0  3.948677  0  0  -0.127896  0  3.970464  0  0  -0.076756  -0.116172  0  3.934437  0
C  C30  1  0.08520031  0.27762267  0.08800703  1  0  -0.106925  0  3.697384  0  0  -0.120621  0  3.950683  0  0  -0.128016  0  3.972536  0  0  -0.077791  -0.115978  0  3.93445  0
C  C31  1  0.45103554  0.22235928  0.41191286  1  0  -0.106844  0  3.695878  0  0  -0.120424  0  3.94866  0  0  -0.127882  0  3.970449  0  0  -0.076749  -0.116159  0  3.934418  0
C  C32  1  0.10953020  0.82933385  0.88510422  1  0  -0.125123  0  3.657511  0  0  -0.145862  0  3.904676  0  0  -0.152911  0  3.925341  0  0  -0.074984  -0.140643  0  3.890402  0
C  C33  1  0.82384250  0.67065449  0.61481285  1  0  -0.123332  0  3.658412  0  0  -0.143421  0  3.9042  0  0  -0.150543  0  3.924927  0  0  -0.074527  -0.1393  0  3.891608  0
C  C34  1  0.89047008  0.17066644  0.11489387  1  0  -0.125121  0  3.657469  0  0  -0.145875  0  3.904672  0  0  -0.152921  0  3.925342  0  0  -0.07502  -0.140651  0  3.890392  0
C  C35  1  0.17615957  0.32934350  0.38518485  1  0  -0.12338  0  3.658477  0  0  -0.143474  0  3.904273  0  0  -0.150594  0  3.925005  0  0  -0.07457  -0.139352  0  3.891676  0
C  C36  1  0.80985950  0.87166534  0.86765969  1  0  0.175096  0  3.66409  0  0  0.141265  0  3.929915  0  0  0.150142  0  3.944714  0  0  0.065728  0.134308  0  3.922196  0
C  C37  1  0.54899468  0.62835487  0.63237125  1  0  0.172125  0  3.667058  0  0  0.137316  0  3.933954  0  0  0.146084  0  3.948913  0  0  0.063012  0.131867  0  3.923846  0
C  C38  1  0.19014372  0.12833149  0.13233987  1  0  0.175041  0  3.664089  0  0  0.141217  0  3.929873  0  0  0.150105  0  3.94467  0  0  0.065709  0.134287  0  3.922155  0
C  C39  1  0.45100584  0.37164312  0.36762569  1  0  0.172034  0  3.667134  0  0  0.137268  0  3.934023  0  0  0.146025  0  3.948982  0  0  0.062972  0.131814  0  3.923911  0
C  C40  1  0.18490510  0.11361398  0.80017568  1  0  -0.132842  0  3.622095  0  0  -0.1638  0  3.866768  0  0  -0.168249  0  3.885391  0  0  -0.064926  -0.160269  0  3.854416  0
C  C41  1  0.09853326  0.38661514  0.69971287  1  0  -0.133929  0  3.623396  0  0  -0.164922  0  3.869751  0  0  -0.169574  0  3.88853  0  0  -0.064826  -0.159782  0  3.853113  0
C  C42  1  0.81509407  0.88638630  0.19982701  1  0  -0.13292  0  3.622119  0  0  -0.163853  0  3.866796  0  0  -0.168304  0  3.885413  0  0  -0.064934  -0.160327  0  3.854438  0
C  C43  1  0.90146646  0.61338399  0.30028881  1  0  -0.133963  0  3.623408  0  0  -0.164944  0  3.869761  0  0  -0.169603  0  3.888546  0  0  -0.064862  -0.15981  0  3.853129  0
C  C44  1  0.03723980  0.11674277  0.79587639  1  0  0.205301  0  3.744868  0  0  0.201527  0  3.996655  0  0  0.208496  0  4.015112  0  0  0.131861  0.196638  0  3.984297  0
C  C45  1  0.94974763  0.38332309  0.70405389  1  0  0.207886  0  3.74281  0  0  0.203866  0  3.99489  0  0  0.211156  0  4.012906  0  0  0.132853  0.198294  0  3.982798  0
C  C46  1  0.96276078  0.88325637  0.20412442  1  0  0.205399  0  3.744861  0  0  0.201622  0  3.996644  0  0  0.208599  0  4.015109  0  0  0.1319  0.196742  0  3.984282  0
C  C47  1  0.05024991  0.61667719  0.29594927  1  0  0.207845  0  3.742862  0  0  0.203849  0  3.994892  0  0  0.211147  0  4.012906  0  0  0.132843  0.198281  0  3.982795  0
C  C48  1  0.99869237  0.97571200  0.84035406  1  0  0.193272  0  3.742386  0  0  0.19221  0  3.985445  0  0  0.198627  0  4.005585  0  0  0.126855  0.187695  0  3.971789  0
C  C49  1  0.81460587  0.52429054  0.65958940  1  0  0.19374  0  3.742756  0  0  0.192555  0  3.985498  0  0  0.198978  0  4.005407  0  0  0.126868  0.188099  0  3.972687  0
C  C50  1  0.00130867  0.02428598  0.15964699  1  0  0.193239  0  3.742418  0  0  0.192161  0  3.98551  0  0  0.198559  0  4.005673  0  0  0.126863  0.187638  0  3.971854  0
C  C51  1  0.18539393  0.47570860  0.34041103  1  0  0.193771  0  3.7427  0  0  0.192592  0  3.985423  0  0  0.199011  0  4.005335  0  0  0.126887  0.188134  0  3.972606  0
C  C52  1  0.37437679  0.25019548  0.74995110  1  0  0.634371  0  3.906045  0  0  0.591471  0  4.196254  0  0  0.62578  0  4.187467  0  0  0.187844  0.568137  0  4.201944  0
C  C53  1  0.62562379  0.74980365  0.25004971  1  0  0.634374  0  3.906049  0  0  0.591509  0  4.196215  0  0  0.625805  0  4.187454  0  0  0.187872  0.568176  0  4.201908  0
N  N54  1  0.92196638  0.25000677  0.74996739  1  0  -0.445516  0  3.220815  0  0  -0.408597  0  3.480334  0  0  -0.424187  0  3.498167  0  0  -0.381885  -0.39875  0  3.469178  0
N  N55  1  0.07803334  0.74999236  0.25003428  1  0  -0.445538  0  3.22081  0  0  -0.408613  0  3.480304  0  0  -0.424224  0  3.498142  0  0  -0.381883  -0.398781  0  3.469149  0
N  N56  1  0.85062804  0.99528883  0.83210264  1  0  -0.430291  0  3.251539  0  0  -0.384171  0  3.514618  0  0  -0.401832  0  3.533412  0  0  -0.403171  -0.372514  0  3.502439  0
N  N57  1  0.67786424  0.50471875  0.66787519  1  0  -0.430442  0  3.253237  0  0  -0.38428  0  3.516489  0  0  -0.401984  0  3.535419  0  0  -0.402998  -0.372168  0  3.503668  0
N  N58  1  0.14937004  0.00471030  0.16789951  1  0  -0.430238  0  3.251544  0  0  -0.384104  0  3.514623  0  0  -0.401772  0  3.533424  0  0  -0.403149  -0.372454  0  3.502438  0
N  N59  1  0.32213642  0.49528039  0.33212438  1  0  -0.430403  0  3.25322  0  0  -0.384256  0  3.516472  0  0  -0.401962  0  3.535392  0  0  -0.402973  -0.372145  0  3.503639  0
N  N60  1  0.48036359  0.33944999  0.99026880  1  0  0.696669  0  4.140913  0  0  0.725538  0  4.445469  0  0  0.754795  0  4.449502  0  0  0.083439  0.70572  0  4.442123  0
N  N61  1  0.81011940  0.16049392  0.50970490  1  0  0.691516  0  4.14022  0  0  0.720908  0  4.444905  0  0  0.749744  0  4.449071  0  0  0.082202  0.700953  0  4.441406  0
N  N62  1  0.51963156  0.66055260  0.00973188  1  0  0.696306  0  4.141374  0  0  0.725495  0  4.445618  0  0  0.754749  0  4.449657  0  0  0.083431  0.705679  0  4.442271  0
N  N63  1  0.18988302  0.83951099  0.49029291  1  0  0.691546  0  4.140443  0  0  0.720942  0  4.4451  0  0  0.750132  0  4.449101  0  0  0.082288  0.700994  0  4.441605  0
O  O64  1  0.42474703  0.41018122  0.88985310  1  0  -0.519009  0  1.850686  0  0  -0.511526  0  2.082685  0  0  -0.531266  0  2.079391  0  0  -0.228937  -0.497667  0  2.084824  0
O  O65  1  0.72476906  0.08977739  0.61009696  1  0  -0.516641  0  1.847531  0  0  -0.510731  0  2.08042  0  0  -0.530189  0  2.077066  0  0  -0.22878  -0.496048  0  2.082233  0
O  O66  1  0.57525325  0.58981907  0.11014499  1  0  -0.518887  0  1.850891  0  0  -0.511532  0  2.082817  0  0  -0.531279  0  2.079527  0  0  -0.228946  -0.497676  0  2.084961  0
O  O67  1  0.27523454  0.91022867  0.38990014  1  0  -0.516609  0  1.847579  0  0  -0.510709  0  2.080472  0  0  -0.530333  0  2.0771  0  0  -0.228779  -0.496029  0  2.082264  0
O  O68  1  0.40202767  0.37476802  0.09520333  1  0  -0.375098  0  1.770539  0  0  -0.370429  0  1.975965  0  0  -0.381979  0  1.972551  0  0  -0.140134  -0.362371  0  1.978278  0
O  O69  1  0.87201970  0.12521970  0.40475553  1  0  -0.375895  0  1.772306  0  0  -0.370753  0  1.977062  0  0  -0.382058  0  1.973662  0  0  -0.140918  -0.362259  0  1.979305  0
O  O70  1  0.59796377  0.62523804  0.90479550  1  0  -0.374978  0  1.77061  0  0  -0.37042  0  1.975933  0  0  -0.381961  0  1.972524  0  0  -0.140118  -0.362361  0  1.978258  0
O  O71  1  0.12798155  0.87478405  0.59524300  1  0  -0.375937  0  1.772351  0  0  -0.370764  0  1.977082  0  0  -0.38222  0  1.973642  0  0  -0.140939  -0.362275  0  1.979331  0
O  O72  1  0.62334722  0.22774999  0.97413240  1  0  -0.520303  0  1.811738  0  0  -0.516654  0  2.044902  0  0  -0.534772  0  2.038635  0  0  -0.239499  -0.503309  0  2.048682  0
O  O73  1  0.82533264  0.27213167  0.52587158  1  0  -0.517387  0  1.811689  0  0  -0.513531  0  2.044332  0  0  -0.531327  0  2.038055  0  0  -0.237595  -0.500093  0  2.048138  0
O  O74  1  0.37664900  0.77225144  0.02587139  1  0  -0.52013  0  1.811884  0  0  -0.516613  0  2.044978  0  0  -0.534741  0  2.038715  0  0  -0.239509  -0.503269  0  2.04875  0
O  O75  1  0.17466822  0.72787323  0.47412547  1  0  -0.517375  0  1.811758  0  0  -0.51355  0  2.044422  0  0  -0.531495  0  2.038118  0  0  -0.237649  -0.500117  0  2.048224  0
O  O76  1  0.45197765  0.14367210  0.83160507  1  0  -0.652149  0  1.953262  0  0  -0.615616  0  2.184951  0  0  -0.640906  0  2.177108  0  0  -0.378375  -0.597515  0  2.189718  0
O  O77  1  0.42716143  0.35667895  0.66831239  1  0  -0.651409  0  1.955165  0  0  -0.614723  0  2.186753  0  0  -0.640036  0  2.179003  0  0  -0.377605  -0.597272  0  2.191974  0
O  O78  1  0.54802347  0.85632588  0.16839473  1  0  -0.652186  0  1.953308  0  0  -0.61566  0  2.18498  0  0  -0.640954  0  2.177135  0  0  -0.378411  -0.597557  0  2.189737  0
O  O79  1  0.57283993  0.64332018  0.33168881  1  0  -0.651403  0  1.955157  0  0  -0.614699  0  2.186698  0  0  -0.640014  0  2.178949  0  0  -0.377598  -0.597258  0  2.191926  0
