# generated using pymatgen
data_Zn2CoH42C54(NO6)2
_symmetry_space_group_name_H-M   'P 1'
_cell_length_a   10.35080596
_cell_length_b   10.92127242
_cell_length_c   12.89368773
_cell_angle_alpha   75.11844085
_cell_angle_beta   66.92821114
_cell_angle_gamma   63.36810202
_symmetry_Int_Tables_number   1
_chemical_formula_structural   Zn2CoH42C54(NO6)2
_chemical_formula_sum   'Zn2 Co1 H42 C54 N2 O12'
_cell_volume   1192.84919936
_cell_formula_units_Z   1
loop_
 _symmetry_equiv_pos_site_id
 _symmetry_equiv_pos_as_xyz
  1  'x, y, z'
loop_
 _atom_site_type_symbol
 _atom_site_label
 _atom_site_symmetry_multiplicity
 _atom_site_fract_x
 _atom_site_fract_y
 _atom_site_fract_z
 _atom_site_occupancy
 _atom_site_pbe_cm5_charge
 _atom_site_pbe_ddec_charge
 _atom_site_pbe_ddec_spin_density
 _atom_site_pbe_ddec_sum_bond_order
 _atom_site_pbe_magmom
Zn  Zn0  1  0.70119002  0.96462992  0.71598295  1  0.691662  0.831845  -0.000787  2.349848  0.0
Zn  Zn1  1  0.29881244  0.03536911  0.28401748  1  0.691656  0.83177  -0.000787  2.349949  0.0
Co  Co2  1  0.00000268  0.99999898  0.49999823  1  0.659501  1.083817  2.825568  2.286603  2.619
H  H3  1  0.95057353  0.80214453  0.27803482  1  0.097007  0.09561  5.7e-05  1.050319  0.0
H  H4  1  0.04942683  0.19785451  0.72196627  1  0.097002  0.095578  5.7e-05  1.050343  0.0
H  H5  1  0.89630718  0.68055731  0.16980282  1  0.092835  0.087592  -3e-06  1.020019  0.0
H  H6  1  0.10369589  0.31943040  0.83020292  1  0.092863  0.0876  -3e-06  1.020123  0.0
H  H7  1  0.65240476  0.64651042  0.24678387  1  0.091102  0.087403  -2.4e-05  1.05027  0.0
H  H8  1  0.34759397  0.35348241  0.75322678  1  0.09108  0.087417  -2.4e-05  1.050256  0.0
H  H9  1  0.46284380  0.73453406  0.42960302  1  0.099034  0.102944  4.6e-05  1.014958  0.0
H  H10  1  0.53715504  0.26546597  0.57040298  1  0.09904  0.102966  4.6e-05  1.014982  0.0
H  H11  1  0.52148916  0.85082641  0.53849029  1  0.101725  0.102031  -1.1e-05  1.016817  0.0
H  H12  1  0.47850829  0.14918188  0.46150974  1  0.101704  0.102022  -1.1e-05  1.01668  0.0
H  H13  1  0.30474065  0.70853096  0.61810450  1  0.108364  0.114308  3.2e-05  1.006423  0.0
H  H14  1  0.69526120  0.29146706  0.38189479  1  0.108378  0.114326  3.2e-05  1.006407  0.0
H  H15  1  0.50880364  0.55258324  0.70496867  1  0.097489  0.09546  1.5e-05  1.049638  0.0
H  H16  1  0.49120271  0.44741170  0.29502677  1  0.097478  0.095404  1.5e-05  1.049735  0.0
H  H17  1  0.43765588  0.45016698  0.90432044  1  0.101662  0.100512  -4e-05  1.011308  0.0
H  H18  1  0.56235283  0.54982485  0.09567648  1  0.101625  0.100455  -4e-05  1.011237  0.0
H  H19  1  0.16328729  0.50373541  0.01733901  1  0.098232  0.092645  4.4e-05  1.029502  0.0
H  H20  1  0.83671948  0.49625847  0.98265962  1  0.098199  0.092579  4.4e-05  1.029566  0.0
H  H21  1  0.96164778  0.65980275  0.92924524  1  0.101325  0.098727  -2.2e-05  1.032207  0.0
H  H22  1  0.03835773  0.34020137  0.07075628  1  0.10136  0.098772  -2.2e-05  1.032238  0.0
H  H23  1  0.71549753  0.31848460  0.87160076  1  0.100335  0.098299  1.2e-05  1.023142  0.0
H  H24  1  0.28449951  0.68151242  0.12840022  1  0.100314  0.098273  1.2e-05  1.023084  0.0
H  H25  1  0.74993543  0.53983132  0.84134127  1  0.096705  0.093892  -9e-06  1.020891  0.0
H  H26  1  0.25005501  0.46016881  0.15866188  1  0.096682  0.09387  -9e-06  1.020956  0.0
H  H27  1  0.82005523  0.65395393  0.64654257  1  0.100827  0.105794  -1.4e-05  1.02229  0.0
H  H28  1  0.17993284  0.34604929  0.35346144  1  0.100873  0.105787  -1.4e-05  1.022281  0.0
H  H29  1  0.85645370  0.54922936  0.48207839  1  0.098497  0.097992  -6e-06  1.03319  0.0
H  H30  1  0.14354876  0.45076967  0.51792204  1  0.098485  0.097945  -6e-06  1.033215  0.0
H  H31  1  0.82831769  0.32625721  0.51237785  1  0.105454  0.117677  -0.00026  1.038097  0.0
H  H32  1  0.17168223  0.67374287  0.48762237  1  0.105425  0.117648  -0.00026  1.038087  0.0
H  H33  1  0.45850310  0.10687532  0.91722897  1  0.118104  0.09685  -4e-06  1.017047  0.0
H  H34  1  0.54149569  0.89312991  0.08276897  1  0.118118  0.096858  -4e-06  1.017035  0.0
H  H35  1  0.20693349  0.10336173  0.04987057  1  0.1062  0.120608  2.6e-05  1.039876  0.0
H  H36  1  0.79306215  0.89664354  0.95012523  1  0.106191  0.120615  2.6e-05  1.039951  0.0
H  H37  1  0.26438133  0.80787372  0.85129421  1  0.101537  0.108086  -1.4e-05  1.05665  0.0
H  H38  1  0.73562493  0.19212635  0.14870017  1  0.101515  0.108073  -1.4e-05  1.056702  0.0
H  H39  1  0.51530775  0.82036240  0.72986693  1  0.117932  0.089173  5e-06  1.024903  0.0
H  H40  1  0.48469978  0.17963452  0.27013626  1  0.117904  0.08915  5e-06  1.02493  0.0
H  H41  1  0.02162525  0.99501680  0.11304480  1  0.101571  0.111563  -1e-06  0.969951  0.0
H  H42  1  0.97837436  0.00499155  0.88694601  1  0.101544  0.111497  -1e-06  0.970007  0.0
H  H43  1  0.06436857  0.84974115  0.04928852  1  0.097007  0.100684  -4e-06  0.987991  0.0
H  H44  1  0.93562708  0.15026413  0.95070650  1  0.097007  0.100679  -4e-06  0.987991  0.0
C  C45  1  0.78021519  0.89376837  0.48337331  1  0.220503  0.604493  -0.000564  4.158923  0.0
C  C46  1  0.21978597  0.10623377  0.51662376  1  0.220506  0.604459  -0.000564  4.158985  0.0
C  C47  1  0.74004466  0.83292399  0.41448862  1  -0.020991  -0.048264  0.00247  3.96869  0.004
C  C48  1  0.25995306  0.16708123  0.58551120  1  -0.020925  -0.048288  0.002471  3.968703  0.004
C  C49  1  0.84431183  0.78679373  0.30978930  1  -0.0892  -0.096676  -2.4e-05  3.977067  0.0
C  C50  1  0.15568686  0.21320428  0.69021329  1  -0.089201  -0.09657  -2.4e-05  3.97715  0.0
C  C51  1  0.81353518  0.71868844  0.25028402  1  -0.09607  -0.091306  -5.9e-05  4.030588  0.0
C  C52  1  0.18646613  0.28130337  0.74972217  1  -0.096079  -0.091383  -5.9e-05  4.030777  0.0
C  C53  1  0.67680235  0.69901716  0.29366213  1  -0.091258  -0.073293  5e-05  4.000888  0.0
C  C54  1  0.32319702  0.30097672  0.70634500  1  -0.091271  -0.073302  4.9e-05  4.000869  0.0
C  C55  1  0.57064523  0.74784962  0.39679592  1  -0.097919  -0.09649  0.000207  4.009548  0.0
C  C56  1  0.42935230  0.25215352  0.60320750  1  -0.097918  -0.096517  0.000207  4.009569  0.0
C  C57  1  0.60243363  0.81377502  0.45741813  1  -0.082808  -0.084396  0.000214  3.969815  0.0
C  C58  1  0.39756320  0.18623225  0.54258308  1  -0.082834  -0.084368  0.000214  3.969726  0.0
C  C59  1  0.00076667  0.78794652  0.71609620  1  0.220561  0.592207  -0.001807  4.158152  0.001
C  C60  1  0.99923596  0.21205455  0.28390452  1  0.22059  0.592181  -0.001805  4.158235  0.001
C  C61  1  0.12158038  0.69288858  0.76843375  1  -0.018774  -0.039835  0.001942  3.973179  0.003
C  C62  1  0.87842436  0.30711248  0.23156632  1  -0.018835  -0.039964  0.001942  3.97345  0.003
C  C63  1  0.27587060  0.66253926  0.70531366  1  -0.078015  -0.086537  -0.0008  3.935377  0.0
C  C64  1  0.72413424  0.33745668  0.29468592  1  -0.07799  -0.086511  -0.000799  3.935319  0.0
C  C65  1  0.38904266  0.57604344  0.75423554  1  -0.086915  -0.08459  2.5e-05  3.995467  0.0
C  C66  1  0.61096070  0.42395356  0.24576116  1  -0.086952  -0.084525  2.5e-05  3.9955  0.0
C  C67  1  0.34876956  0.51887309  0.86667239  1  -0.086177  -0.077302  -0.001349  3.991085  -0.001
C  C68  1  0.65123915  0.48111873  0.13332608  1  -0.086101  -0.077222  -0.001348  3.990996  -0.001
C  C69  1  0.19509845  0.54856680  0.92986782  1  -0.094421  -0.09742  0.000278  4.026407  0.001
C  C70  1  0.80490971  0.45143117  0.07013107  1  -0.094431  -0.097342  0.000278  4.026464  0.001
C  C71  1  0.08181319  0.63545925  0.88107258  1  -0.086801  -0.102139  -0.000773  3.986006  0.0
C  C72  1  0.91819496  0.36453869  0.11892942  1  -0.086792  -0.102182  -0.000772  3.98623  0.0
C  C73  1  0.74224719  0.18249346  0.71385692  1  0.211036  0.582269  0.002243  4.142533  0.004
C  C74  1  0.25774494  0.81750772  0.28614161  1  0.210945  0.582093  0.002242  4.142828  0.004
C  C75  1  0.77006817  0.30989154  0.69371355  1  -0.020192  -0.041427  -0.000651  3.987199  0.0
C  C76  1  0.22992798  0.69010753  0.30628806  1  -0.020248  -0.041543  -0.000651  3.987426  0.0
C  C77  1  0.74804681  0.36970686  0.78675679  1  -0.085177  -0.104114  0.000374  3.992728  0.0
C  C78  1  0.25194618  0.63029223  0.21324501  1  -0.085103  -0.103973  0.000374  3.992541  0.0
C  C79  1  0.76725682  0.49256459  0.76951439  1  -0.096504  -0.102449  -0.000199  4.035007  0.0
C  C80  1  0.23273213  0.50743658  0.23048900  1  -0.096466  -0.102423  -0.000199  4.035143  0.0
C  C81  1  0.80674160  0.55706525  0.65983430  1  -0.085796  -0.070103  0.000478  3.970375  0.001
C  C82  1  0.19324604  0.44293902  0.34016807  1  -0.085882  -0.070169  0.000478  3.970556  0.001
C  C83  1  0.82722411  0.49821197  0.56731753  1  -0.087202  -0.078981  -0.000283  3.992389  0.0
C  C84  1  0.17276949  0.50178813  0.43268542  1  -0.087218  -0.078914  -0.000283  3.992303  0.0
C  C85  1  0.81050804  0.37426178  0.58382719  1  -0.082156  -0.089489  0.000283  3.925225  0.001
C  C86  1  0.18948530  0.62574142  0.41617441  1  -0.082083  -0.089432  0.000283  3.925192  0.001
C  C87  1  0.41009723  0.04211768  0.90706879  1  0.049362  0.095267  4.1e-05  3.946616  0.0
C  C88  1  0.58990164  0.95788241  0.09293098  1  0.049344  0.095259  4.1e-05  3.946655  0.0
C  C89  1  0.26982019  0.04071212  0.97876614  1  -0.080241  -0.168529  5.7e-05  3.92156  0.0
C  C90  1  0.73017526  0.95929108  0.02123248  1  -0.080259  -0.168607  5.7e-05  3.921721  0.0
C  C91  1  0.21327200  0.95627201  0.96041509  1  0.017688  0.177478  6.8e-05  3.938182  0.0
C  C92  1  0.78672707  0.04373016  0.03957953  1  0.017707  0.177575  6.8e-05  3.938049  0.0
C  C93  1  0.30288238  0.87549793  0.86953668  1  -0.087078  -0.187789  -1.9e-05  3.943196  0.0
C  C94  1  0.69712001  0.12450626  0.13045881  1  -0.087066  -0.187857  -1.9e-05  3.943101  0.0
C  C95  1  0.44251999  0.88123757  0.80164297  1  0.048961  0.103835  5e-06  3.93031  0.0
C  C96  1  0.55748291  0.11876044  0.19835599  1  0.049022  0.103901  5e-06  3.930258  0.0
C  C97  1  0.05913489  0.95566498  0.03134374  1  -0.150551  -0.195325  9e-06  3.916618  0.0
C  C98  1  0.94086436  0.04433927  0.96864806  1  -0.150518  -0.195206  9e-06  3.916601  0.0
N  N99  1  0.49578900  0.96356529  0.81993630  1  -0.335723  -0.240528  6.2e-05  3.58304  0.0
N  N100  1  0.50421135  0.03643375  0.18006478  1  -0.335755  -0.240523  6.2e-05  3.583079  0.0
O  O101  1  0.88955902  0.93358644  0.43541713  1  -0.309574  -0.568496  0.02663  2.350489  0.045
O  O102  1  0.11044513  0.06641363  0.56457868  1  -0.309583  -0.568463  0.02663  2.350518  0.045
O  O103  1  0.69954761  0.89702179  0.58839181  1  -0.323498  -0.572932  0.000615  2.434082  0.002
O  O104  1  0.30045925  0.10297928  0.41160450  1  -0.323517  -0.572924  0.000615  2.434148  0.002
O  O105  1  0.04285153  0.83158256  0.61256017  1  -0.304316  -0.569786  0.032971  2.454765  0.052
O  O106  1  0.95715110  0.16841852  0.38743977  1  -0.304319  -0.569746  0.032969  2.45477  0.052
O  O107  1  0.86115745  0.81862452  0.78007998  1  -0.319586  -0.544565  0.001442  2.322161  0.003
O  O108  1  0.13884728  0.18137652  0.21992243  1  -0.319567  -0.54448  0.001443  2.32211  0.003
O  O109  1  0.78624859  0.11296512  0.62867194  1  -0.319865  -0.596466  0.017669  2.440859  0.028
O  O110  1  0.21375196  0.88703601  0.37132399  1  -0.31981  -0.596337  0.017671  2.440893  0.028
O  O111  1  0.67067378  0.14411443  0.81134264  1  -0.305646  -0.53796  0.006575  2.185483  0.011
O  O112  1  0.32931833  0.85588673  0.18865822  1  -0.305596  -0.537856  0.006576  2.185556  0.011
