# generated using pymatgen
data_ZnH4C7N3O4
_symmetry_space_group_name_H-M   'P 1'
_cell_length_a   9.57504601
_cell_length_b   9.71733666
_cell_length_c   13.83368731
_cell_angle_alpha   101.38146184
_cell_angle_beta   89.99982774
_cell_angle_gamma   89.99951268
_symmetry_Int_Tables_number   1
_chemical_formula_structural   ZnH4C7N3O4
_chemical_formula_sum   'Zn4 H16 C28 N12 O16'
_cell_volume   1261.82932184
_cell_formula_units_Z   4
loop_
 _symmetry_equiv_pos_site_id
 _symmetry_equiv_pos_as_xyz
  1  'x, y, z'
loop_
 _atom_site_type_symbol
 _atom_site_label
 _atom_site_symmetry_multiplicity
 _atom_site_fract_x
 _atom_site_fract_y
 _atom_site_fract_z
 _atom_site_occupancy
 _atom_site_hle17_bader_spin_density
 _atom_site_hle17_ddec_charge
 _atom_site_hle17_ddec_spin_density
 _atom_site_hle17_ddec_sum_bond_order
 _atom_site_hle17_magmom
 _atom_site_hse06_10hf_bader_spin_density
 _atom_site_hse06_10hf_ddec_charge
 _atom_site_hse06_10hf_ddec_spin_density
 _atom_site_hse06_10hf_ddec_sum_bond_order
 _atom_site_hse06_10hf_magmom
 _atom_site_hse06_bader_spin_density
 _atom_site_hse06_ddec_charge
 _atom_site_hse06_ddec_spin_density
 _atom_site_hse06_ddec_sum_bond_order
 _atom_site_hse06_magmom
 _atom_site_pbe_bader_spin_density
 _atom_site_pbe_cm5_charge
 _atom_site_pbe_ddec_charge
 _atom_site_pbe_ddec_spin_density
 _atom_site_pbe_ddec_sum_bond_order
 _atom_site_pbe_magmom
Zn  Zn0  1  0.06383049  0.90991914  0.60132706  1  0  0.913681  0  1.974033  0  0  0.710892  0  2.456936  0  0  0.75472  0  2.408718  0  0  0.715405  0.6806  0  2.489914  0
Zn  Zn1  1  0.56383200  0.59008236  0.39867328  1  0  0.913661  0  1.974063  0  0  0.710853  0  2.456991  0  0  0.754682  0  2.408774  0  0  0.715406  0.680572  0  2.489948  0
Zn  Zn2  1  0.93616866  0.09008018  0.39867340  1  0  0.913668  0  1.974039  0  0  0.710884  0  2.456936  0  0  0.754713  0  2.408719  0  0  0.715411  0.680589  0  2.489921  0
Zn  Zn3  1  0.43616715  0.40991800  0.60132660  1  0  0.913629  0  1.974086  0  0  0.710812  0  2.457037  0  0  0.754642  0  2.408821  0  0  0.715404  0.68053  0  2.489999  0
H  H4  1  0.88174892  0.12417837  0.88298814  1  0  0.110633  0  0.929507  0  0  0.120383  0  0.986561  0  0  0.124462  0  0.983933  0  0  0.112548  0.117442  0  0.988572  0
H  H5  1  0.38174564  0.37582347  0.11701103  1  0  0.110642  0  0.929451  0  0  0.120398  0  0.986499  0  0  0.124478  0  0.983869  0  0  0.112535  0.117456  0  0.988511  0
H  H6  1  0.11825336  0.87582095  0.11701232  1  0  0.110665  0  0.929433  0  0  0.120376  0  0.986531  0  0  0.124455  0  0.983902  0  0  0.112546  0.117435  0  0.988542  0
H  H7  1  0.61825769  0.62417689  0.88298812  1  0  0.110701  0  0.929461  0  0  0.120433  0  0.986523  0  0  0.124512  0  0.983894  0  0  0.112555  0.117491  0  0.988535  0
H  H8  1  0.76985222  0.38852032  0.17010697  1  0  0.400901  0  0.880175  0  0  0.371394  0  0.959959  0  0  0.383888  0  0.945799  0  0  0.300282  0.362579  0  0.969877  0
H  H9  1  0.26984915  0.11147941  0.82989793  1  0  0.40093  0  0.880141  0  0  0.371429  0  0.959913  0  0  0.383922  0  0.945756  0  0  0.300274  0.362616  0  0.969828  0
H  H10  1  0.23014693  0.61147689  0.82989392  1  0  0.400915  0  0.880162  0  0  0.371408  0  0.959938  0  0  0.3839  0  0.945783  0  0  0.300288  0.362593  0  0.969858  0
H  H11  1  0.73015208  0.88852200  0.17010210  1  0  0.400928  0  0.880157  0  0  0.371428  0  0.959929  0  0  0.383921  0  0.945772  0  0  0.30027  0.362616  0  0.969841  0
H  H12  1  0.19065595  0.63980362  0.67357168  1  0  0.122447  0  0.933439  0  0  0.131827  0  0.992559  0  0  0.134506  0  0.98906  0  0  0.150513  0.129704  0  0.995261  0
H  H13  1  0.69065440  0.86019669  0.32642751  1  0  0.122453  0  0.933446  0  0  0.131833  0  0.992568  0  0  0.134512  0  0.98907  0  0  0.150504  0.12971  0  0.995271  0
H  H14  1  0.80934528  0.36019674  0.32642965  1  0  0.122506  0  0.933401  0  0  0.13186  0  0.992549  0  0  0.134539  0  0.98905  0  0  0.150524  0.129738  0  0.995251  0
H  H15  1  0.30934579  0.13980157  0.67357064  1  0  0.122468  0  0.933432  0  0  0.131851  0  0.992546  0  0  0.134529  0  0.989048  0  0  0.15051  0.129729  0  0.995248  0
H  H16  1  0.30934031  0.80836188  0.42788491  1  0  0.109431  0  0.898437  0  0  0.124542  0  0.947432  0  0  0.126522  0  0.945221  0  0  0.153149  0.122996  0  0.949112  0
H  H17  1  0.80934018  0.69163732  0.57211461  1  0  0.109465  0  0.8984  0  0  0.124577  0  0.947393  0  0  0.126557  0  0.945182  0  0  0.153162  0.123031  0  0.949073  0
H  H18  1  0.69065570  0.19163848  0.57211570  1  0  0.109471  0  0.898391  0  0  0.124557  0  0.947407  0  0  0.126536  0  0.945196  0  0  0.153195  0.123012  0  0.949085  0
H  H19  1  0.19065583  0.30836304  0.42788527  1  0  0.109476  0  0.898368  0  0  0.124583  0  0.947365  0  0  0.126563  0  0.945153  0  0  0.1532  0.123037  0  0.949045  0
C  C20  1  0.93324123  0.06729509  0.93342562  1  0  -0.056615  0  3.670522  0  0  -0.090565  0  3.925002  0  0  -0.09059  0  3.942399  0  0  -0.06249  -0.09049  0  3.913319  0
C  C21  1  0.43324081  0.43270731  0.06657497  1  0  -0.056648  0  3.670436  0  0  -0.090591  0  3.924927  0  0  -0.090616  0  3.942322  0  0  -0.062483  -0.090516  0  3.913245  0
C  C22  1  0.06676209  0.93270422  0.06657339  1  0  -0.056639  0  3.670431  0  0  -0.09054  0  3.924919  0  0  -0.090565  0  3.942315  0  0  -0.062473  -0.090466  0  3.913236  0
C  C23  1  0.56676355  0.56729305  0.93342419  1  0  -0.056714  0  3.670401  0  0  -0.090666  0  3.924917  0  0  -0.090691  0  3.942313  0  0  -0.06248  -0.09059  0  3.913235  0
C  C24  1  0.06576623  0.93845980  0.79203950  1  0  0.674628  0  3.853323  0  0  0.621312  0  4.156107  0  0  0.655513  0  4.148094  0  0  0.216376  0.597995  0  4.160916  0
C  C25  1  0.56576673  0.56154273  0.20796026  1  0  0.674647  0  3.853399  0  0  0.621337  0  4.156179  0  0  0.655538  0  4.148168  0  0  0.216407  0.598019  0  4.160988  0
C  C26  1  0.93423396  0.06154057  0.20796183  1  0  0.674599  0  3.853445  0  0  0.621284  0  4.156229  0  0  0.655484  0  4.148219  0  0  0.216402  0.597967  0  4.161036  0
C  C27  1  0.43423137  0.43845658  0.79203803  1  0  0.67372  0  3.854973  0  0  0.621213  0  4.156408  0  0  0.655413  0  4.148399  0  0  0.216322  0.597895  0  4.161216  0
C  C28  1  0.90540816  0.10925798  0.03395397  1  0  -0.045643  0  3.696607  0  0  -0.032362  0  3.934831  0  0  -0.037067  0  3.954164  0  0  0.004295  -0.029251  0  3.921852  0
C  C29  1  0.40540731  0.39074049  0.96604758  1  0  -0.045655  0  3.696545  0  0  -0.032411  0  3.934863  0  0  -0.037116  0  3.954197  0  0  0.00429  -0.0293  0  3.921885  0
C  C30  1  0.09459516  0.89074134  0.96604577  1  0  -0.045571  0  3.696512  0  0  -0.032339  0  3.934754  0  0  -0.037045  0  3.954089  0  0  0.004326  -0.029228  0  3.921775  0
C  C31  1  0.59459496  0.60925882  0.03395143  1  0  -0.045638  0  3.696619  0  0  -0.032322  0  3.934822  0  0  -0.037028  0  3.954156  0  0  0.004255  -0.029211  0  3.921843  0
C  C32  1  0.02787679  0.95991734  0.89870355  1  0  -0.021413  0  3.671913  0  0  -0.022314  0  3.931396  0  0  -0.025053  0  3.948922  0  0  0.002816  -0.020625  0  3.919693  0
C  C33  1  0.52787690  0.54008554  0.10129488  1  0  -0.021377  0  3.671868  0  0  -0.022306  0  3.93135  0  0  -0.025044  0  3.948874  0  0  0.002836  -0.020616  0  3.919646  0
C  C34  1  0.97212548  0.04008197  0.10129546  1  0  -0.021343  0  3.671941  0  0  -0.022259  0  3.931405  0  0  -0.024997  0  3.94893  0  0  0.002847  -0.02057  0  3.919701  0
C  C35  1  0.47212538  0.45991377  0.89870341  1  0  -0.021058  0  3.671982  0  0  -0.022185  0  3.931255  0  0  -0.024922  0  3.94878  0  0  0.002888  -0.020496  0  3.919552  0
C  C36  1  0.24409283  0.65794963  0.60809825  1  0  0.237041  0  3.648702  0  0  0.177778  0  3.911984  0  0  0.192278  0  3.924576  0  0  0.161628  0.16831  0  3.903373  0
C  C37  1  0.74409220  0.84205124  0.39190091  1  0  0.236988  0  3.648801  0  0  0.177727  0  3.912081  0  0  0.192225  0  3.924677  0  0  0.161639  0.168259  0  3.903469  0
C  C38  1  0.75590631  0.34205179  0.39190250  1  0  0.236949  0  3.648786  0  0  0.177719  0  3.912074  0  0  0.192218  0  3.924666  0  0  0.161626  0.168251  0  3.903462  0
C  C39  1  0.25590590  0.15794703  0.60809868  1  0  0.237062  0  3.648683  0  0  0.177803  0  3.911952  0  0  0.192303  0  3.924547  0  0  0.161731  0.168335  0  3.903341  0
C  C40  1  0.30486424  0.74495020  0.48419808  1  0  0.224153  0  3.68748  0  0  0.165993  0  3.951359  0  0  0.179957  0  3.964738  0  0  0.157507  0.156923  0  3.94209  0
C  C41  1  0.80486381  0.75504800  0.51579986  1  0  0.224116  0  3.687515  0  0  0.165964  0  3.95139  0  0  0.179928  0  3.964769  0  0  0.15752  0.156895  0  3.942119  0
C  C42  1  0.69513386  0.25505016  0.51580180  1  0  0.224089  0  3.687359  0  0  0.165965  0  3.951235  0  0  0.179931  0  3.96461  0  0  0.157486  0.156894  0  3.941967  0
C  C43  1  0.19513324  0.24495132  0.48419916  1  0  0.224084  0  3.687342  0  0  0.165933  0  3.951214  0  0  0.179896  0  3.964592  0  0  0.157451  0.156862  0  3.941946  0
C  C44  1  0.81090462  0.23270360  0.06264210  1  0  0.64917  0  3.820975  0  0  0.605166  0  4.114668  0  0  0.637183  0  4.10647  0  0  0.230796  0.583286  0  4.119848  0
C  C45  1  0.31090184  0.26730100  0.93736049  1  0  0.649359  0  3.821015  0  0  0.605333  0  4.114736  0  0  0.637351  0  4.106537  0  0  0.230831  0.583453  0  4.119918  0
C  C46  1  0.18909661  0.76729466  0.93735749  1  0  0.649113  0  3.820911  0  0  0.605154  0  4.114556  0  0  0.637171  0  4.106357  0  0  0.230748  0.583275  0  4.119738  0
C  C47  1  0.68909835  0.73269832  0.06263997  1  0  0.649347  0  3.820975  0  0  0.605291  0  4.114719  0  0  0.63731  0  4.106519  0  0  0.230825  0.583412  0  4.119901  0
N  N48  1  0.20912662  0.75864517  0.55745612  1  0  -0.414074  0  3.263162  0  0  -0.330661  0  3.566395  0  0  -0.35347  0  3.576067  0  0  -0.35365  -0.315366  0  3.559446  0
N  N49  1  0.70912663  0.74135497  0.44254301  1  0  -0.414068  0  3.26323  0  0  -0.330654  0  3.566454  0  0  -0.353461  0  3.576127  0  0  -0.353691  -0.315361  0  3.559507  0
N  N50  1  0.79087252  0.24135625  0.44254463  1  0  -0.41403  0  3.263202  0  0  -0.330655  0  3.566444  0  0  -0.353464  0  3.576116  0  0  -0.353665  -0.31536  0  3.559494  0
N  N51  1  0.29087147  0.25864434  0.55745673  1  0  -0.41411  0  3.263125  0  0  -0.330703  0  3.566358  0  0  -0.353512  0  3.576031  0  0  -0.353741  -0.31541  0  3.559412  0
N  N52  1  0.35524988  0.58578287  0.56832861  1  0  -0.275373  0  3.24187  0  0  -0.202584  0  3.541118  0  0  -0.219831  0  3.554267  0  0  -0.254857  -0.191153  0  3.532269  0
N  N53  1  0.85525053  0.91421486  0.43167061  1  0  -0.275356  0  3.241904  0  0  -0.202565  0  3.54116  0  0  -0.219813  0  3.554311  0  0  -0.25485  -0.191131  0  3.532306  0
N  N54  1  0.64474926  0.41421750  0.43167200  1  0  -0.275414  0  3.24193  0  0  -0.202625  0  3.541173  0  0  -0.219872  0  3.554321  0  0  -0.254887  -0.191193  0  3.532324  0
N  N55  1  0.14474965  0.08578340  0.56832826  1  0  -0.275414  0  3.241922  0  0  -0.202624  0  3.541171  0  0  -0.219872  0  3.554321  0  0  -0.254884  -0.19119  0  3.532317  0
N  N56  1  0.39438800  0.64171376  0.48868755  1  0  -0.270645  0  3.223451  0  0  -0.201548  0  3.519256  0  0  -0.217657  0  3.532754  0  0  -0.251102  -0.190831  0  3.510151  0
N  N57  1  0.89438775  0.85828360  0.51131153  1  0  -0.270641  0  3.223462  0  0  -0.201566  0  3.519289  0  0  -0.217674  0  3.532787  0  0  -0.251118  -0.190847  0  3.510179  0
N  N58  1  0.60561010  0.35828765  0.51131320  1  0  -0.270559  0  3.22332  0  0  -0.201456  0  3.519109  0  0  -0.217565  0  3.532606  0  0  -0.251088  -0.19074  0  3.510005  0
N  N59  1  0.10561139  0.14171571  0.48868820  1  0  -0.270599  0  3.223441  0  0  -0.201503  0  3.519243  0  0  -0.217611  0  3.532741  0  0  -0.251085  -0.190783  0  3.510133  0
O  O60  1  0.97203272  0.89215789  0.72660540  1  0  -0.62159  0  1.971538  0  0  -0.551127  0  2.222346  0  0  -0.579108  0  2.208003  0  0  -0.335086  -0.531607  0  2.231591  0
O  O61  1  0.47203315  0.60784504  0.27339357  1  0  -0.621573  0  1.97158  0  0  -0.551118  0  2.222389  0  0  -0.579097  0  2.208047  0  0  -0.335101  -0.531599  0  2.231632  0
O  O62  1  0.02796643  0.10784247  0.27339449  1  0  -0.621585  0  1.971617  0  0  -0.551126  0  2.222427  0  0  -0.579104  0  2.208086  0  0  -0.335104  -0.531605  0  2.231671  0
O  O63  1  0.52796599  0.39215637  0.72660573  1  0  -0.621303  0  1.972022  0  0  -0.55111  0  2.222438  0  0  -0.579089  0  2.208098  0  0  -0.3351  -0.53159  0  2.231682  0
O  O64  1  0.18504701  0.97585418  0.76695512  1  0  -0.636291  0  1.967399  0  0  -0.578797  0  2.192451  0  0  -0.605197  0  2.182165  0  0  -0.3119  -0.560256  0  2.198969  0
O  O65  1  0.68504564  0.52414409  0.23304524  1  0  -0.636323  0  1.967475  0  0  -0.578803  0  2.192496  0  0  -0.605212  0  2.182226  0  0  -0.311909  -0.560262  0  2.199016  0
O  O66  1  0.81495526  0.02414409  0.23304519  1  0  -0.636282  0  1.967502  0  0  -0.578781  0  2.192543  0  0  -0.60519  0  2.182275  0  0  -0.311915  -0.560242  0  2.199061  0
O  O67  1  0.31495246  0.47585522  0.76695666  1  0  -0.635932  0  1.968023  0  0  -0.5787  0  2.192639  0  0  -0.605106  0  2.18237  0  0  -0.311834  -0.560159  0  2.199158  0
O  O68  1  0.83137191  0.30209732  0.15608027  1  0  -0.568621  0  2.081437  0  0  -0.520251  0  2.29281  0  0  -0.541817  0  2.276308  0  0  -0.34673  -0.505049  0  2.303825  0
O  O69  1  0.33137013  0.19789974  0.84392558  1  0  -0.568752  0  2.08141  0  0  -0.52039  0  2.292818  0  0  -0.541956  0  2.276313  0  0  -0.346761  -0.50519  0  2.303836  0
O  O70  1  0.16862724  0.69790095  0.84392077  1  0  -0.568655  0  2.081422  0  0  -0.520293  0  2.292777  0  0  -0.541859  0  2.276275  0  0  -0.346728  -0.505092  0  2.303793  0
O  O71  1  0.66863006  0.80210167  0.15607300  1  0  -0.568744  0  2.081431  0  0  -0.520376  0  2.292829  0  0  -0.541941  0  2.276325  0  0  -0.346736  -0.505176  0  2.303846  0
O  O72  1  0.72741987  0.26986205  0.00582010  1  0  -0.531846  0  1.900124  0  0  -0.499085  0  2.096754  0  0  -0.51924  0  2.091457  0  0  -0.289526  -0.48522  0  2.100187  0
O  O73  1  0.22741089  0.23014752  0.99418191  1  0  -0.531915  0  1.900161  0  0  -0.49914  0  2.096802  0  0  -0.519297  0  2.091505  0  0  -0.289523  -0.485274  0  2.100236  0
O  O74  1  0.27258032  0.73013726  0.99418036  1  0  -0.5318  0  1.900051  0  0  -0.499049  0  2.096655  0  0  -0.519204  0  2.091357  0  0  -0.289492  -0.485184  0  2.10009  0
O  O75  1  0.77258825  0.76985494  0.00581971  1  0  -0.531927  0  1.900096  0  0  -0.499146  0  2.096752  0  0  -0.519302  0  2.091453  0  0  -0.289542  -0.485281  0  2.100187  0
