# generated using pymatgen
data_CuH14C15(NO2)2
_symmetry_space_group_name_H-M   'P 1'
_cell_length_a   8.09550406
_cell_length_b   9.22848515
_cell_length_c   10.50292433
_cell_angle_alpha   111.74142941
_cell_angle_beta   93.34738743
_cell_angle_gamma   103.99911282
_symmetry_Int_Tables_number   1
_chemical_formula_structural   CuH14C15(NO2)2
_chemical_formula_sum   'Cu2 H28 C30 N4 O8'
_cell_volume   697.60142759
_cell_formula_units_Z   2
loop_
 _symmetry_equiv_pos_site_id
 _symmetry_equiv_pos_as_xyz
  1  'x, y, z'
loop_
 _atom_site_type_symbol
 _atom_site_label
 _atom_site_symmetry_multiplicity
 _atom_site_fract_x
 _atom_site_fract_y
 _atom_site_fract_z
 _atom_site_occupancy
 _atom_site_pbe_cm5_charge
 _atom_site_pbe_ddec_charge
 _atom_site_pbe_ddec_spin_density
 _atom_site_pbe_ddec_sum_bond_order
 _atom_site_pbe_magmom
Cu  Cu0  1  0.64755383  0.97787151  0.64815664  1  0.731113  0.77492  -0.748235  2.25407  -0.563
Cu  Cu1  1  0.35244549  0.02212096  0.35184759  1  0.7311  0.77473  0.748235  2.25426  0.563
H  H2  1  0.86343707  0.94009986  0.42705143  1  0.123387  0.101975  -0.000899  1.012764  -0.002
H  H3  1  0.13656430  0.05990362  0.57294795  1  0.123368  0.101963  0.000899  1.012793  0.002
H  H4  1  0.87054827  0.73524598  0.20278667  1  0.109841  0.120872  -0.000405  1.030493  0.0
H  H5  1  0.12945728  0.26474283  0.79721086  1  0.109868  0.120917  0.000405  1.03044  0.0
H  H6  1  0.83926285  0.56345016  0.00194084  1  0.11151  0.119883  -0.000632  1.004008  -0.001
H  H7  1  0.16074640  0.43655443  0.99806968  1  0.111576  0.120016  0.000631  1.003961  0.001
H  H8  1  0.83088938  0.32981239  0.78209070  1  0.121595  0.103978  -0.000982  1.01384  -0.002
H  H9  1  0.16911706  0.67019961  0.21790979  1  0.121618  0.103991  0.000982  1.013833  0.002
H  H10  1  0.45760099  0.01455338  0.88011877  1  0.12185  0.097083  -0.000781  1.030679  -0.002
H  H11  1  0.54240253  0.98544526  0.11987243  1  0.121851  0.097173  0.000781  1.030576  0.002
H  H12  1  0.44605256  0.22905897  0.10364872  1  0.112771  0.138199  -0.000389  1.050464  0.0
H  H13  1  0.55394423  0.77093355  0.89634972  1  0.112757  0.138137  0.000389  1.050669  0.0
H  H14  1  0.43271079  0.40751679  0.27235232  1  0.111093  0.135865  -0.000455  1.051945  -0.001
H  H15  1  0.56728772  0.59247328  0.72764536  1  0.11109  0.135886  0.000455  1.05202  0.001
H  H16  1  0.44996690  0.63042811  0.49744940  1  0.119811  0.089048  -0.000817  1.018709  -0.001
H  H17  1  0.55003675  0.36957044  0.50255605  1  0.119851  0.089104  0.000816  1.018744  0.001
H  H18  1  0.88811670  0.41479298  0.48272961  1  0.100251  0.113716  0.000121  1.00108  0.0
H  H19  1  0.11188910  0.58520429  0.51728122  1  0.100244  0.113631  -0.000121  1.001246  0.0
H  H20  1  0.00753102  0.27549824  0.46776067  1  0.094796  0.113931  0.000501  1.000651  0.0
H  H21  1  0.99247402  0.72449302  0.53223576  1  0.094789  0.113865  -0.000501  1.000671  0.0
H  H22  1  0.00365886  0.36845957  0.26643257  1  0.087013  0.081243  -5.4e-05  0.98422  0.0
H  H23  1  0.99633898  0.63155245  0.73357237  1  0.087039  0.081258  5.4e-05  0.984246  0.0
H  H24  1  0.77735022  0.27963744  0.22584811  1  0.083131  0.075184  0.000654  1.041012  0.001
H  H25  1  0.22263859  0.72037701  0.77416776  1  0.083154  0.075232  -0.000654  1.041026  -0.001
H  H26  1  0.82386437  0.00468707  0.18070460  1  0.091578  0.106067  7.1e-05  1.01421  0.0
H  H27  1  0.17611950  0.99532024  0.81928491  1  0.091545  0.106003  -7.1e-05  1.014377  0.0
H  H28  1  0.91712548  0.09459936  0.06891337  1  0.096756  0.118375  0.000743  0.983921  0.001
H  H29  1  0.08285637  0.90542135  0.93108431  1  0.096742  0.118304  -0.000743  0.983881  -0.001
C  C30  1  0.76877943  0.82132375  0.38859991  1  0.052458  0.107932  4e-06  3.910474  0.001
C  C31  1  0.23121885  0.17867364  0.61139924  1  0.052445  0.10788  -4e-06  3.910701  -0.001
C  C32  1  0.77067111  0.70269530  0.26041388  1  -0.077057  -0.161971  -0.003603  3.903073  -0.004
C  C33  1  0.22932542  0.29729234  0.73958293  1  -0.077089  -0.161984  0.003602  3.90311  0.004
C  C34  1  0.64878735  0.54918415  0.21193455  1  0.013138  0.102895  0.002192  3.959853  0.002
C  C35  1  0.35121692  0.45080470  0.78805819  1  0.013109  0.102841  -0.002193  3.959383  -0.002
C  C36  1  0.64551125  0.41842989  0.07647477  1  0.014045  0.102476  0.002198  3.97024  0.002
C  C37  1  0.35449134  0.58157717  0.92353632  1  0.014111  0.102569  -0.0022  3.97  -0.002
C  C38  1  0.75330302  0.44390980  0.98199589  1  -0.080632  -0.172877  -0.00373  3.932621  -0.004
C  C39  1  0.24669285  0.55608757  0.01800982  1  -0.080789  -0.173195  0.003729  3.932805  0.004
C  C40  1  0.75071554  0.31510312  0.85877288  1  0.048153  0.093031  -0.000537  3.924835  0.0
C  C41  1  0.24928135  0.68489797  0.14122268  1  0.048214  0.093242  0.000536  3.924662  0.0
C  C42  1  0.54074869  0.13815337  0.91327508  1  0.049324  0.09478  0.000194  3.926328  0.001
C  C43  1  0.45925320  0.86184407  0.08671375  1  0.049346  0.094695  -0.000193  3.926258  -0.001
C  C44  1  0.53586595  0.26026387  0.03814491  1  -0.078354  -0.172126  -0.003659  3.901585  -0.004
C  C45  1  0.46414045  0.73973594  0.96185154  1  -0.078435  -0.172191  0.003658  3.901974  0.004
C  C46  1  0.53147985  0.52303781  0.30034388  1  -0.079265  -0.169881  -0.003341  3.894482  -0.004
C  C47  1  0.46852494  0.47696079  0.69965116  1  -0.079279  -0.169842  0.00334  3.89463  0.004
C  C48  1  0.53839593  0.64790593  0.42690747  1  0.046785  0.100332  0.000233  3.93943  0.001
C  C49  1  0.46160594  0.35209510  0.57309208  1  0.046737  0.100198  -0.000233  3.939554  -0.001
C  C50  1  0.73470732  0.18119498  0.44558509  1  0.20399  0.625771  0.000673  4.179197  -0.002
C  C51  1  0.26530462  0.81880228  0.55442216  1  0.203998  0.625859  -0.000673  4.179681  0.002
C  C52  1  0.89173304  0.29024689  0.41982947  1  -0.169465  -0.29652  0.007186  3.913098  0.008
C  C53  1  0.10827113  0.70974919  0.58017900  1  -0.169472  -0.29636  -0.007187  3.91305  -0.008
C  C54  1  0.89822213  0.26927399  0.26945402  1  -0.168923  -0.099046  0.000666  3.945349  0.0
C  C55  1  0.10177872  0.73073554  0.73055497  1  -0.168958  -0.099118  -0.000667  3.945611  0.0
C  C56  1  0.92485999  0.10593342  0.17716761  1  -0.170673  -0.291002  0.008227  3.896289  0.009
C  C57  1  0.07513535  0.89406284  0.82282058  1  -0.170611  -0.290762  -0.008226  3.896325  -0.009
C  C58  1  0.10138815  0.09526889  0.22389054  1  0.191508  0.611465  1.3e-05  4.189089  -0.003
C  C59  1  0.89860205  0.90473469  0.77610274  1  0.191448  0.611423  -1.3e-05  4.189176  0.003
N  N60  1  0.65277260  0.79611996  0.47046824  1  -0.343335  -0.229659  -0.056307  3.614045  -0.071
N  N61  1  0.34722692  0.20387742  0.52953191  1  -0.343272  -0.229499  0.056305  3.613908  0.071
N  N62  1  0.64606648  0.16401727  0.82468034  1  -0.340859  -0.20591  -0.059046  3.583456  -0.074
N  N63  1  0.35392982  0.83598991  0.17531817  1  -0.340849  -0.205905  0.059042  3.583106  0.074
O  O64  1  0.74452573  0.16704064  0.56006736  1  -0.331002  -0.605246  -0.002567  2.353574  -0.004
O  O65  1  0.25550037  0.83295045  0.43993648  1  -0.330933  -0.605268  0.002566  2.353825  0.004
O  O66  1  0.60141066  0.11889236  0.34997346  1  -0.328125  -0.572548  0.059653  2.422084  0.082
O  O67  1  0.39858809  0.88110619  0.65003657  1  -0.328196  -0.572643  -0.059644  2.422391  -0.082
O  O68  1  0.10189042  0.99527176  0.28376939  1  -0.328308  -0.55402  0.074955  2.287842  0.103
O  O69  1  0.89810093  0.00473546  0.71622799  1  -0.32836  -0.554102  -0.074954  2.288065  -0.103
O  O70  1  0.23521410  0.18437180  0.20731521  1  -0.339872  -0.598122  0.000187  2.176304  0.002
O  O71  1  0.76476937  0.81561851  0.79265817  1  -0.339784  -0.598137  -0.000185  2.176421  -0.002
