# generated using pymatgen
data_ZnH13C22N3O4
_symmetry_space_group_name_H-M   'P 1'
_cell_length_a   17.94395106
_cell_length_b   18.51901524
_cell_length_c   18.51883626
_cell_angle_alpha   110.09215358
_cell_angle_beta   108.84413150
_cell_angle_gamma   108.84340233
_symmetry_Int_Tables_number   1
_chemical_formula_structural   ZnH13C22N3O4
_chemical_formula_sum   'Zn6 H78 C132 N18 O24'
_cell_volume   4773.40097445
_cell_formula_units_Z   6
loop_
 _symmetry_equiv_pos_site_id
 _symmetry_equiv_pos_as_xyz
  1  'x, y, z'
loop_
 _atom_site_type_symbol
 _atom_site_label
 _atom_site_symmetry_multiplicity
 _atom_site_fract_x
 _atom_site_fract_y
 _atom_site_fract_z
 _atom_site_occupancy
 _atom_site_pbe_bader_charge
 _atom_site_pbe_bader_spin_density
 _atom_site_pbe_cm5_charge
 _atom_site_pbe_ddec_charge
 _atom_site_pbe_ddec_spin_density
 _atom_site_pbe_ddec_sum_bond_order
 _atom_site_pbe_magmom
Zn  Zn0  1  0.84648767  0.51451473  0.59204292  1  1.27021  0  0.694385  0.791275  0  2.347771  0
Zn  Zn1  1  0.33197046  0.07752706  0.48548063  1  1.26962  0  0.694414  0.79125  0  2.347803  0
Zn  Zn2  1  0.25444582  0.40796024  0.92247197  1  1.269944  0  0.694414  0.791272  0  2.347866  0
Zn  Zn3  1  0.15351223  0.48548478  0.40795732  1  1.270205  0  0.694406  0.79129  0  2.347777  0
Zn  Zn4  1  0.66802976  0.92247312  0.51451885  1  1.26964  0  0.694409  0.791256  0  2.347806  0
Zn  Zn5  1  0.74555473  0.59204059  0.07752838  1  1.269948  0  0.694413  0.791283  0  2.347832  0
H  H6  1  0.86622664  0.37332263  0.63927831  1  0.123855  0  0.122659  0.098242  0  0.999258  0
H  H7  1  0.49289837  0.26595721  0.62668020  1  0.114423  0  0.122686  0.09827  0  0.999324  0
H  H8  1  0.22694661  0.36072356  0.73404238  1  0.122703  0  0.122663  0.098263  0  0.999233  0
H  H9  1  0.13377359  0.62667754  0.36072171  1  0.123841  0  0.122676  0.098276  0  0.999299  0
H  H10  1  0.50710153  0.73404231  0.37331896  1  0.114416  0  0.122674  0.098239  0  0.999306  0
H  H11  1  0.77305362  0.63927661  0.26595765  1  0.122707  0  0.122677  0.098301  0  0.999223  0
H  H12  1  0.98941338  0.33260496  0.68068054  1  0.122036  0  0.107077  0.114643  0  1.054779  0
H  H13  1  0.65680352  0.34808344  0.66740478  1  0.12533  0  0.10707  0.114585  0  1.054868  0
H  H14  1  0.30873042  0.31932106  0.65192118  1  0.110434  0  0.107053  0.114606  0  1.054867  0
H  H15  1  0.01058743  0.66739521  0.31931967  1  0.122029  0  0.107063  0.114622  0  1.054816  0
H  H16  1  0.34319696  0.65191608  0.33259564  1  0.125329  0  0.107074  0.11461  0  1.054822  0
H  H17  1  0.69126922  0.68067911  0.34807920  1  0.110416  0  0.107049  0.114615  0  1.054861  0
H  H18  1  0.12899988  0.41037230  0.67749349  1  0.101313  0  0.114571  0.111743  0  0.985983  0
H  H19  1  0.71863020  0.26713039  0.58963876  1  0.102831  0  0.114541  0.111737  0  0.985941  0
H  H20  1  0.45150587  0.32250654  0.73287682  1  0.092625  0  0.114563  0.111756  0  0.986006  0
H  H21  1  0.87100094  0.58962787  0.32250618  1  0.101331  0  0.1146  0.111769  0  0.985988  0
H  H22  1  0.28136996  0.73286847  0.41036133  1  0.102829  0  0.114537  0.111749  0  0.985894  0
H  H23  1  0.54849344  0.67749297  0.26712269  1  0.092624  0  0.11457  0.111762  0  0.985993  0
H  H24  1  0.14496823  0.52834445  0.63613053  1  0.109597  0  0.109352  0.122888  0  1.036113  0
H  H25  1  0.61662256  0.10778672  0.47166224  1  0.124183  0  0.10934  0.12293  0  1.036069  0
H  H26  1  0.50884218  0.36387806  0.89222011  1  0.114334  0  0.109344  0.122928  0  1.036015  0
H  H27  1  0.85503200  0.47165572  0.36386949  1  0.109603  0  0.109358  0.122924  0  1.036087  0
H  H28  1  0.38337701  0.89221214  0.52833712  1  0.124189  0  0.109354  0.122943  0  1.036104  0
H  H29  1  0.49115772  0.63612146  0.10777958  1  0.11433  0  0.109345  0.1229  0  1.036038  0
H  H30  1  0.24431815  0.77847703  0.66977516  1  0.0831  0  0.105528  0.115433  0  1.00795  0
H  H31  1  0.46584259  0.89131183  0.22153162  1  0.103196  0  0.105561  0.115465  0  1.00777  0
H  H32  1  0.57453397  0.33023128  0.10869295  1  0.100015  0  0.105526  0.115434  0  1.007949  0
H  H33  1  0.75568175  0.22152249  0.33022454  1  0.083101  0  0.105527  0.115426  0  1.007951  0
H  H34  1  0.53415529  0.10868834  0.77846712  1  0.103152  0  0.105584  0.115482  0  1.00777  0
H  H35  1  0.42546658  0.66976956  0.89130686  1  0.100017  0  0.105513  0.115409  0  1.00794  0
H  H36  1  0.35099993  0.90427980  0.67153180  1  0.052483  0  0.104051  0.107015  0  0.998216  0
H  H37  1  0.44672915  0.76726657  0.09572298  1  0.088365  0  0.104129  0.107145  0  0.998185  0
H  H38  1  0.67945361  0.32845340  0.23272812  1  0.095977  0  0.104123  0.10712  0  0.998073  0
H  H39  1  0.64900030  0.09572038  0.32846876  1  0.052463  0  0.104056  0.107019  0  0.998211  0
H  H40  1  0.55327081  0.23273426  0.90427665  1  0.088367  0  0.104127  0.10713  0  0.998198  0
H  H41  1  0.32054662  0.67154677  0.76727191  1  0.095955  0  0.104117  0.107119  0  0.998098  0
H  H42  1  0.13040794  0.92024735  0.51004310  1  0.092817  0  0.110974  0.119268  0  0.987422  0
H  H43  1  0.21016894  0.58980170  0.07974298  1  0.086916  0  0.110986  0.119316  0  0.987503  0
H  H44  1  0.62036539  0.48993540  0.41020767  1  0.082677  0  0.111009  0.119324  0  0.987372  0
H  H45  1  0.86959229  0.07975282  0.48995692  1  0.092815  0  0.110989  0.119316  0  0.98739  0
H  H46  1  0.78983187  0.41019848  0.92025777  1  0.08691  0  0.110985  0.119305  0  0.987515  0
H  H47  1  0.37963451  0.51006412  0.58979202  1  0.082667  0  0.111006  0.119333  0  0.987371  0
H  H48  1  0.02150998  0.79288378  0.50567008  1  0.062125  0  0.103494  0.105584  0  1.011624  0
H  H49  1  0.22862733  0.71279019  0.20710635  1  0.056841  0  0.103611  0.10575  0  1.011592  0
H  H50  1  0.51584242  0.49432490  0.28722555  1  0.060537  0  0.103566  0.105708  0  1.011574  0
H  H51  1  0.97849084  0.20711640  0.49433012  1  0.062114  0  0.103521  0.105605  0  1.011578  0
H  H52  1  0.77137257  0.28720932  0.79289389  1  0.056838  0  0.103622  0.105766  0  1.011589  0
H  H53  1  0.48415813  0.50567593  0.71277480  1  0.060497  0  0.103556  0.105701  0  1.011607  0
H  H54  1  0.79646087  0.59135715  0.47632344  1  0.100626  0  0.097721  0.096908  0  1.056299  0
H  H55  1  0.20510861  0.88494947  0.40864248  1  0.096585  0  0.097705  0.096795  0  1.056378  0
H  H56  1  0.32014403  0.52368454  0.11503989  1  0.084299  0  0.09767  0.096828  0  1.056317  0
H  H57  1  0.20353903  0.40864237  0.52367625  1  0.100628  0  0.097709  0.096886  0  1.056355  0
H  H58  1  0.79489103  0.11505070  0.59135790  1  0.096587  0  0.09771  0.096814  0  1.056355  0
H  H59  1  0.67985528  0.47631498  0.88495962  1  0.084298  0  0.097671  0.096842  0  1.056311  0
H  H60  1  0.69546880  0.65611656  0.45554452  1  0.118019  0  0.103026  0.101908  0  1.016957  0
H  H61  1  0.03935739  0.79941161  0.34388548  1  0.094268  0  0.103036  0.101904  0  1.016932  0
H  H62  1  0.23991564  0.54445101  0.20056438  1  0.094761  0  0.103038  0.101963  0  1.016913  0
H  H63  1  0.30453084  0.34388361  0.54445586  1  0.118028  0  0.103036  0.101914  0  1.016915  0
H  H64  1  0.96064251  0.20058791  0.65611475  1  0.094277  0  0.103044  0.101922  0  1.016919  0
H  H65  1  0.76008425  0.45554851  0.79943585  1  0.094755  0  0.103036  0.101962  0  1.016915  0
H  H66  1  0.92094694  0.91547802  0.64429500  1  0.099673  0  0.110715  0.117447  0  0.985658  0
H  H67  1  0.00545838  0.72879296  0.08451426  1  0.05898  0  0.110699  0.117365  0  0.985565  0
H  H68  1  0.27664691  0.35570828  0.27118142  1  0.098836  0  0.110746  0.117529  0  0.985552  0
H  H69  1  0.07905211  0.08452216  0.35570519  1  0.099699  0  0.110729  0.117468  0  0.985637  0
H  H70  1  0.99454244  0.27120721  0.91548595  1  0.058967  0  0.110706  0.117392  0  0.985571  0
H  H71  1  0.72335299  0.64429124  0.72881828  1  0.098843  0  0.110761  0.117549  0  0.985524  0
H  H72  1  0.02385650  0.85180666  0.66502017  1  0.067689  0  0.104767  0.10706  0  0.996318  0
H  H73  1  0.17204023  0.81319960  0.14818998  1  0.070213  0  0.104767  0.106997  0  0.996472  0
H  H74  1  0.35883767  0.33499255  0.18679037  1  0.071631  0  0.104774  0.107074  0  0.996335  0
H  H75  1  0.97614281  0.14819286  0.33497988  1  0.067695  0  0.104752  0.107026  0  0.996314  0
H  H76  1  0.82796059  0.18680058  0.85181077  1  0.070265  0  0.104765  0.106987  0  0.99647  0
H  H77  1  0.64116256  0.66500763  0.81321019  1  0.071631  0  0.104794  0.107069  0  0.996345  0
H  H78  1  0.14280221  0.63806011  0.60143900  1  0.574393  0  0.311287  0.302929  0  1.00789  0
H  H79  1  0.50474178  0.96338692  0.36193910  1  0.574137  0  0.311294  0.302951  0  1.00784  0
H  H80  1  0.54136404  0.39856648  0.03662381  1  0.579039  0  0.311286  0.302979  0  1.007906  0
H  H81  1  0.85719835  0.36194072  0.39856189  1  0.574393  0  0.311264  0.302917  0  1.0079  0
H  H82  1  0.49525753  0.03661260  0.63806041  1  0.57414  0  0.311265  0.302907  0  1.007906  0
H  H83  1  0.45863618  0.60143369  0.96337567  1  0.579043  0  0.311287  0.302961  0  1.007901  0
C  C84  1  0.92844874  0.40409884  0.63803417  1  0.498013  0  0.060535  0.112701  0  3.925499  0
C  C85  1  0.52434639  0.23393756  0.59590515  1  0.557645  0  0.060546  0.112613  0  3.925717  0
C  C86  1  0.29041603  0.36197100  0.76606446  1  0.510588  0  0.060573  0.112738  0  3.925566  0
C  C87  1  0.07155208  0.59590133  0.36196603  1  0.498  0  0.060511  0.112605  0  3.925639  0
C  C88  1  0.47565384  0.76606261  0.40409487  1  0.557668  0  0.060586  0.112712  0  3.925667  0
C  C89  1  0.70958361  0.63802917  0.23393538  1  0.510599  0  0.060557  0.112671  0  3.925691  0
C  C90  1  0.99624980  0.38189825  0.66046664  1  -0.050589  0  -0.078261  -0.120733  0  3.945249  0
C  C91  1  0.61434862  0.27857587  0.61810756  1  -0.087456  0  -0.078127  -0.120574  0  3.945285  0
C  C92  1  0.33578285  0.33953600  0.72142894  1  -0.042808  0  -0.078148  -0.120681  0  3.945326  0
C  C93  1  0.00375102  0.61810193  0.33953303  1  -0.050591  0  -0.078255  -0.120721  0  3.945316  0
C  C94  1  0.38565160  0.72142431  0.38189246  1  -0.08747  0  -0.078161  -0.120669  0  3.945293  0
C  C95  1  0.66421679  0.66046417  0.27857090  1  -0.04283  0  -0.078159  -0.120688  0  3.945359  0
C  C96  1  0.07477435  0.42614665  0.65919248  1  0.017201  0  -0.055125  -0.004553  0  3.940156  0
C  C97  1  0.64862396  0.23305196  0.57385848  1  -0.053949  0  -0.055142  -0.00454  0  3.939978  0
C  C98  1  0.41558203  0.34080925  0.76695366  1  0.044042  0  -0.055143  -0.004557  0  3.94004  0
C  C99  1  0.92522646  0.57385352  0.34080773  1  0.017216  0  -0.05508  -0.00445  0  3.939956  0
C  C100  1  0.35137593  0.76694755  0.42614176  1  -0.053953  0  -0.05514  -0.004549  0  3.939921  0
C  C101  1  0.58441819  0.65919093  0.23304636  1  0.044065  0  -0.055165  -0.004606  0  3.940061  0
C  C102  1  0.08400604  0.49149838  0.63644706  1  -0.00468  0  -0.080682  -0.15286  0  3.920847  0
C  C103  1  0.59250519  0.14495192  0.50850475  1  0.036291  0  -0.080693  -0.152929  0  3.920656  0
C  C104  1  0.44756210  0.36355690  0.85505395  1  -0.045661  0  -0.080759  -0.152999  0  3.920629  0
C  C105  1  0.91599418  0.50850179  0.36355297  1  -0.004641  0  -0.08074  -0.153011  0  3.920841  0
C  C106  1  0.40749530  0.85504760  0.49149567  1  0.036292  0  -0.080712  -0.152923  0  3.920717  0
C  C107  1  0.55243754  0.63644328  0.14494643  1  -0.045669  0  -0.080729  -0.152929  0  3.920617  0
C  C108  1  0.01358723  0.51127184  0.61614911  1  0.459182  0  0.118446  0.149694  0  4.025585  0
C  C109  1  0.50231168  0.10487871  0.48873305  1  0.470552  0  0.118297  0.149422  0  4.025462  0
C  C110  1  0.39743888  0.38385526  0.89512387  1  0.490926  0  0.118431  0.149733  0  4.025401  0
C  C111  1  0.98641333  0.48872899  0.38385178  1  0.459151  0  0.118427  0.149654  0  4.025669  0
C  C112  1  0.49768822  0.89512081  0.51126772  1  0.470538  0  0.118309  0.149412  0  4.025485  0
C  C113  1  0.60256043  0.61614426  0.10487564  1  0.490935  0  0.118393  0.149756  0  4.025358  0
C  C114  1  0.01658384  0.58239303  0.59840412  1  0.980106  0  0.211996  0.239477  0  4.058857  0
C  C115  1  0.43418749  0.01601173  0.41760608  1  0.980005  0  0.212089  0.239722  0  4.058731  0
C  C116  1  0.41818231  0.40160169  0.98399205  1  0.977306  0  0.211917  0.239383  0  4.058892  0
C  C117  1  0.98341639  0.41760714  0.40159590  1  0.980099  0  0.212011  0.239531  0  4.058903  0
C  C118  1  0.56581241  0.98398778  0.58239416  1  0.98001  0  0.212034  0.239661  0  4.058912  0
C  C119  1  0.58181791  0.59839849  0.01600797  1  0.977307  0  0.211942  0.239364  0  4.05888  0
C  C120  1  0.97608128  0.67734991  0.58057127  1  0.445312  0  0.101504  0.104174  0  3.971243  0
C  C121  1  0.29873009  0.90321573  0.32264772  1  0.438889  0  0.101373  0.103886  0  3.971518  0
C  C122  1  0.39551259  0.41943683  0.09678314  1  0.444546  0  0.101428  0.103932  0  3.971526  0
C  C123  1  0.02391836  0.32265026  0.41942857  1  0.445319  0  0.101432  0.103997  0  3.971359  0
C  C124  1  0.70126955  0.09678444  0.67735212  1  0.439083  0  0.101395  0.103919  0  3.97152  0
C  C125  1  0.60448855  0.58056400  0.90321740  1  0.444601  0  0.101455  0.104032  0  3.971378  0
C  C126  1  0.06250319  0.70333217  0.58841515  1  0.390457  0  0.099917  0.081594  0  3.937118  0
C  C127  1  0.35916994  0.88508637  0.29666428  1  0.395436  0  0.100056  0.081774  0  3.93733  0
C  C128  1  0.47408815  0.41158961  0.11492158  1  0.387933  0  0.099915  0.081717  0  3.937251  0
C  C129  1  0.93749645  0.29666801  0.41158469  1  0.390457  0  0.099987  0.081758  0  3.937241  0
C  C130  1  0.64083002  0.11491446  0.70333534  1  0.395243  0  0.100059  0.081786  0  3.93731  0
C  C131  1  0.52591241  0.58841123  0.88507877  1  0.387904  0  0.099913  0.081594  0  3.937235  0
C  C132  1  0.12473666  0.77724500  0.58859871  1  -0.032656  0  -0.005918  0.052189  0  4.044789  0
C  C133  1  0.34749298  0.81135944  0.22274931  1  -0.032952  0  -0.00607  0.052034  0  4.044765  0
C  C134  1  0.53613653  0.41140176  0.18864871  1  -0.007119  0  -0.005933  0.052107  0  4.044715  0
C  C135  1  0.87526356  0.22275517  0.41140131  1  -0.032664  0  -0.005927  0.052152  0  4.044807  0
C  C136  1  0.65250607  0.18864074  0.77725034  1  -0.032933  0  -0.006057  0.052066  0  4.044771  0
C  C137  1  0.46386494  0.58859973  0.81135269  1  -0.007145  0  -0.005887  0.052222  0  4.044624  0
C  C138  1  0.21837690  0.80911789  0.63475520  1  -0.016176  0  -0.090034  -0.124842  0  3.95214  0
C  C139  1  0.40926394  0.82564607  0.19088326  1  -0.054629  0  -0.090032  -0.124737  0  3.951945  0
C  C140  1  0.58361664  0.36524429  0.17435775  1  -0.03505  0  -0.090016  -0.124785  0  3.952268  0
C  C141  1  0.78162332  0.19088229  0.36524482  1  -0.01618  0  -0.09005  -0.124848  0  3.952113  0
C  C142  1  0.59073511  0.17435410  0.80911585  1  -0.054694  0  -0.090053  -0.124783  0  3.951986  0
C  C143  1  0.41638392  0.63475654  0.82564206  1  -0.035224  0  -0.090029  -0.124789  0  3.952229  0
C  C144  1  0.27863086  0.87974709  0.63602416  1  -0.034301  0  -0.085082  -0.087534  0  3.992286  0
C  C145  1  0.39889475  0.75628791  0.12025575  1  -0.06838  0  -0.085179  -0.087846  0  3.992532  0
C  C146  1  0.64259901  0.36396473  0.24371179  1  -0.071417  0  -0.085136  -0.087663  0  3.992248  0
C  C147  1  0.72136937  0.12025308  0.36397586  1  -0.034281  0  -0.085086  -0.087523  0  3.992281  0
C  C148  1  0.60110489  0.24371227  0.87974409  1  -0.068306  0  -0.085181  -0.087812  0  3.992525  0
C  C149  1  0.35740214  0.63603611  0.75628820  1  -0.071198  0  -0.085144  -0.08769  0  3.992274  0
C  C150  1  0.24761929  0.92074873  0.59177204  1  0.038687  0  -0.023202  -0.048288  0  3.980597  0
C  C151  1  0.32688163  0.67103355  0.07925164  1  0.021297  0  -0.023189  -0.048105  0  3.980558  0
C  C152  1  0.65584030  0.40821148  0.32896741  1  0.013159  0  -0.023239  -0.048276  0  3.98061  0
C  C153  1  0.75238094  0.07925144  0.40822744  1  0.038708  0  -0.023212  -0.048335  0  3.980603  0
C  C154  1  0.67311834  0.32896728  0.92074853  1  0.021303  0  -0.023185  -0.048107  0  3.98051  0
C  C155  1  0.34415934  0.59178870  0.67103188  1  0.01315  0  -0.023187  -0.048185  0  3.980565  0
C  C156  1  0.15436026  0.88888507  0.54524700  1  -0.07575  0  -0.081194  -0.086172  0  3.972016  0
C  C157  1  0.26548294  0.65636677  0.11110876  1  -0.054822  0  -0.081204  -0.08633  0  3.972115  0
C  C158  1  0.60910926  0.45473526  0.34363838  1  -0.04089  0  -0.081287  -0.086366  0  3.971894  0
C  C159  1  0.84563964  0.11111445  0.45475269  1  -0.075752  0  -0.081162  -0.086183  0  3.971936  0
C  C160  1  0.73451669  0.34363340  0.88889054  1  -0.054791  0  -0.081213  -0.086318  0  3.972094  0
C  C161  1  0.39089097  0.54526491  0.65636165  1  -0.041298  0  -0.081315  -0.086442  0  3.971902  0
C  C162  1  0.09369869  0.81785924  0.54323157  1  -0.014063  0  -0.088448  -0.12968  0  3.990778  0
C  C163  1  0.27584100  0.72537708  0.18213215  1  0.003716  0  -0.088492  -0.129763  0  3.990672  0
C  C164  1  0.55046446  0.45676064  0.27463270  1  -0.050472  0  -0.088442  -0.129676  0  3.990278  0
C  C165  1  0.90630154  0.18214094  0.45676846  1  -0.014047  0  -0.088494  -0.129703  0  3.99069  0
C  C166  1  0.72415831  0.27462244  0.81786736  1  0.003714  0  -0.088533  -0.129835  0  3.990736  0
C  C167  1  0.44953669  0.54324020  0.72536783  1  -0.049985  0  -0.088458  -0.129715  0  3.990343  0
C  C168  1  0.31365389  0.99364497  0.58985868  1  1.565733  0  0.209148  0.578252  0  4.221047  0
C  C169  1  0.32001498  0.59622087  0.00635012  1  1.581319  0  0.209215  0.578452  0  4.2211  0
C  C170  1  0.72378954  0.41012731  0.40378063  1  1.57055  0  0.209217  0.57846  0  4.220868  0
C  C171  1  0.68634601  0.00635455  0.41014101  1  1.565726  0  0.209173  0.578337  0  4.220991  0
C  C172  1  0.67998525  0.40377930  0.99364990  1  1.58133  0  0.209223  0.578468  0  4.221108  0
C  C173  1  0.27621068  0.58987287  0.59621939  1  1.570536  0  0.209226  0.578486  0  4.220887  0
C  C174  1  0.91781689  0.71731677  0.57004786  1  0.009103  0  -0.006089  0.056915  0  4.023249  0
C  C175  1  0.20049820  0.85271629  0.28268173  1  0.007626  0  -0.006067  0.057048  0  4.022985  0
C  C176  1  0.34777283  0.42996145  0.14727465  1  -0.023023  0  -0.006065  0.057057  0  4.023214  0
C  C177  1  0.08218275  0.28268341  0.42995251  1  0.009075  0  -0.006079  0.056955  0  4.023337  0
C  C178  1  0.79950144  0.14728389  0.71731865  1  0.007624  0  -0.006041  0.057084  0  4.022995  0
C  C179  1  0.65222739  0.57003873  0.85272538  1  -0.023028  0  -0.006023  0.057163  0  4.023138  0
C  C180  1  0.82455400  0.66248996  0.51233943  1  -0.032399  0  -0.090716  -0.120127  0  3.965769  0
C  C181  1  0.16206584  0.84983363  0.33751084  1  -0.027794  0  -0.090682  -0.119954  0  3.96561  0
C  C182  1  0.31221700  0.48766757  0.15015288  1  -0.009609  0  -0.090642  -0.120008  0  3.965522  0
C  C183  1  0.17544564  0.33751022  0.48766041  1  -0.032407  0  -0.090701  -0.120101  0  3.96576  0
C  C184  1  0.83793439  0.15016655  0.66248972  1  -0.027788  0  -0.090727  -0.120038  0  3.965652  0
C  C185  1  0.68778322  0.51233261  0.84984715  1  -0.00961  0  -0.090677  -0.12011  0  3.965565  0
C  C186  1  0.76773331  0.69850445  0.50065802  1  -0.110342  0  -0.084251  -0.096012  0  3.99548  0
C  C187  1  0.06922977  0.80213954  0.30149311  1  -0.088979  0  -0.084389  -0.096307  0  3.995726  0
C  C188  1  0.26706972  0.49934183  0.19784143  1  -0.08735  0  -0.084304  -0.09617  0  3.995431  0
C  C189  1  0.23226599  0.30149507  0.49934203  1  -0.110335  0  -0.084287  -0.096061  0  3.995446  0
C  C190  1  0.93077013  0.19785998  0.69850713  1  -0.088973  0  -0.084403  -0.096339  0  3.995756  0
C  C191  1  0.73293051  0.50065835  0.80215859  1  -0.087361  0  -0.084302  -0.096157  0  3.995447  0
C  C192  1  0.80220331  0.78981023  0.54661499  1  0.016984  0  -0.015011  -0.021878  0  3.969738  0
C  C193  1  0.01239151  0.75679247  0.21019051  1  0.007168  0  -0.014921  -0.021551  0  3.969744  0
C  C194  1  0.25557783  0.45338376  0.24318802  1  0.010786  0  -0.014943  -0.021675  0  3.969571  0
C  C195  1  0.19779633  0.21018994  0.45338593  1  0.016988  0  -0.014963  -0.021769  0  3.96972  0
C  C196  1  0.98760872  0.24320771  0.78980951  1  0.00714  0  -0.01492  -0.021528  0  3.96964  0
C  C197  1  0.74442207  0.54661576  0.75681222  1  0.010789  0  -0.014949  -0.021706  0  3.969529  0
C  C198  1  0.89474287  0.84465485  0.60688174  1  -0.044592  0  -0.078705  -0.086587  0  3.962631  0
C  C199  1  0.05008047  0.76220967  0.15534262  1  0.031074  0  -0.078704  -0.086565  0  3.962524  0
C  C200  1  0.28785723  0.39312265  0.23777144  1  -0.06434  0  -0.078815  -0.086848  0  3.962657  0
C  C201  1  0.10525618  0.15534532  0.39311899  1  -0.044811  0  -0.078727  -0.086658  0  3.962664  0
C  C202  1  0.94992009  0.23779116  0.84465827  1  0.03107  0  -0.07872  -0.086635  0  3.962473  0
C  C203  1  0.71214299  0.60687752  0.76222912  1  -0.064333  0  -0.078805  -0.086833  0  3.96258  0
C  C204  1  0.95202993  0.80879650  0.61811297  1  -0.066507  0  -0.085847  -0.125522  0  3.98189  0
C  C205  1  0.14322533  0.80929895  0.19119982  1  -0.073532  0  -0.085884  -0.125562  0  3.981841  0
C  C206  1  0.33391798  0.38189838  0.19068720  1  -0.010442  0  -0.085868  -0.125559  0  3.98199  0
C  C207  1  0.04797096  0.19120499  0.38188825  1  -0.066304  0  -0.08585  -0.125486  0  3.982014  0
C  C208  1  0.85677490  0.19070123  0.80880021  1  -0.073586  0  -0.08584  -0.125479  0  3.981826  0
C  C209  1  0.66608225  0.61810179  0.80931282  1  -0.010453  0  -0.085882  -0.125577  0  3.981981  0
C  C210  1  0.74048518  0.82689395  0.52731445  1  1.537149  0  0.194058  0.560762  0  4.214598  0
C  C211  1  0.91358639  0.70041789  0.17310923  1  1.527196  0  0.194171  0.560722  0  4.214727  0
C  C212  1  0.21315541  0.47268082  0.29956806  1  1.528682  0  0.194067  0.560699  0  4.215124  0
C  C213  1  0.25951412  0.17310556  0.47268560  1  1.537147  0  0.194053  0.560728  0  4.214612  0
C  C214  1  0.08641443  0.29958228  0.82689152  1  1.527234  0  0.194164  0.560776  0  4.214632  0
C  C215  1  0.78684448  0.52731870  0.70043163  1  1.528693  0  0.194112  0.560826  0  4.215029  0
N  N216  1  0.93677556  0.46724875  0.61641714  1  -1.230633  0  -0.321774  -0.267117  0  3.549654  0
N  N217  1  0.46952591  0.14917059  0.53275685  1  -1.24093  0  -0.321753  -0.266961  0  3.549529  0
N  N218  1  0.32035997  0.38358609  0.85083117  1  -1.250079  0  -0.321778  -0.267123  0  3.549655  0
N  N219  1  0.06322526  0.53275142  0.38358306  1  -1.230647  0  -0.321762  -0.26703  0  3.549659  0
N  N220  1  0.53047399  0.85082893  0.46724338  1  -1.240941  0  -0.32175  -0.266972  0  3.549549  0
N  N221  1  0.67963992  0.61641343  0.14916906  1  -1.250071  0  -0.32174  -0.267102  0  3.549709  0
N  N222  1  0.94940595  0.60196464  0.58628765  1  -1.19841  0  -0.340358  -0.366661  0  3.492719  0
N  N223  1  0.34743859  0.98431967  0.39803374  1  -1.213398  0  -0.340299  -0.366525  0  3.4928  0
N  N224  1  0.36312027  0.41371817  0.01567945  1  -1.197962  0  -0.340333  -0.366565  0  3.492732  0
N  N225  1  0.05059369  0.39803554  0.41371219  1  -1.19842  0  -0.340394  -0.366701  0  3.492834  0
N  N226  1  0.65256131  0.01567984  0.60196595  1  -1.213394  0  -0.340315  -0.366554  0  3.492773  0
N  N227  1  0.63687937  0.58628201  0.98432039  1  -1.197976  0  -0.3404  -0.366654  0  3.49275  0
N  N228  1  0.08533265  0.64202298  0.59951507  1  -1.297687  0  -0.362424  -0.275329  0  3.604755  0
N  N229  1  0.44330897  0.95749753  0.35797585  1  -1.303135  0  -0.362504  -0.275503  0  3.604729  0
N  N230  1  0.48581871  0.40049031  0.04251064  1  -1.301006  0  -0.36236  -0.275336  0  3.604812  0
N  N231  1  0.91466757  0.35797720  0.40048495  1  -1.297692  0  -0.362396  -0.275348  0  3.604847  0
N  N232  1  0.55669092  0.04250198  0.64202330  1  -1.303129  0  -0.362407  -0.275395  0  3.604894  0
N  N233  1  0.51418185  0.59951052  0.95748971  1  -1.301008  0  -0.362344  -0.275244  0  3.604805  0
O  O234  1  0.27906081  0.02479098  0.54437697  1  -1.171652  0  -0.326577  -0.539998  0  2.360313  0
O  O235  1  0.25426862  0.51959510  0.97519835  1  -1.176357  0  -0.326647  -0.540176  0  2.360395  0
O  O236  1  0.73467223  0.45560601  0.48040731  1  -1.171666  0  -0.326632  -0.540143  0  2.360261  0
O  O237  1  0.72093909  0.97520854  0.45562218  1  -1.17166  0  -0.326601  -0.540056  0  2.360371  0
O  O238  1  0.74573279  0.48040507  0.02480258  1  -1.176389  0  -0.326651  -0.540174  0  2.360328  0
O  O239  1  0.26532800  0.54439416  0.51959271  1  -1.17167  0  -0.326628  -0.540141  0  2.360253  0
O  O240  1  0.39644394  0.01718936  0.62912183  1  -1.217457  0  -0.328974  -0.587426  0  2.252326  0
O  O241  1  0.37925369  0.61193697  0.98280266  1  -1.218829  0  -0.32896  -0.58747  0  2.252338  0
O  O242  1  0.76731409  0.37086388  0.38806485  1  -1.216694  0  -0.328957  -0.587428  0  2.252236  0
O  O243  1  0.60355537  0.98281016  0.37087768  1  -1.217457  0  -0.328974  -0.587443  0  2.2523  0
O  O244  1  0.62074653  0.38806320  0.01719737  1  -1.218822  0  -0.328951  -0.587479  0  2.25236  0
O  O245  1  0.23268614  0.62913629  0.61193517  1  -1.216693  0  -0.328989  -0.58749  0  2.252221  0
O  O246  1  0.66648967  0.78122486  0.45567951  1  -1.185771  0  -0.330278  -0.572424  0  2.140746  0
O  O247  1  0.88525645  0.67447394  0.21878614  1  -1.181043  0  -0.330407  -0.572496  0  2.140754  0
O  O248  1  0.21076567  0.54429779  0.32551062  1  -1.17949  0  -0.330313  -0.57249  0  2.141119  0
O  O249  1  0.33350964  0.21877466  0.54431999  1  -1.185753  0  -0.330261  -0.572397  0  2.140753  0
O  O250  1  0.11474345  0.32552558  0.78121409  1  -1.181029  0  -0.330411  -0.572548  0  2.140694  0
O  O251  1  0.78923423  0.45570173  0.67448908  1  -1.179509  0  -0.330332  -0.572531  0  2.141065  0
O  O252  1  0.76633403  0.90642708  0.58412045  1  -1.150156  0  -0.33626  -0.534324  0  2.208963  0
O  O253  1  0.85990609  0.67768018  0.09357280  1  -1.150197  0  -0.336258  -0.534288  0  2.209291  0
O  O254  1  0.18222598  0.41588736  0.32231807  1  -1.151018  0  -0.336214  -0.534238  0  2.209077  0
O  O255  1  0.23366620  0.09357310  0.41587958  1  -1.150161  0  -0.336277  -0.534344  0  2.20896  0
O  O256  1  0.14009414  0.32231999  0.90642722  1  -1.150214  0  -0.336249  -0.534287  0  2.209285  0
O  O257  1  0.81777392  0.58411216  0.67768162  1  -1.151006  0  -0.33624  -0.534311  0  2.209125  0
