# generated using pymatgen
data_TbH12C11O9
_symmetry_space_group_name_H-M   'P 1'
_cell_length_a   8.88171985
_cell_length_b   8.85782264
_cell_length_c   19.34670000
_cell_angle_alpha   83.16350180
_cell_angle_beta   83.18198356
_cell_angle_gamma   60.70299752
_symmetry_Int_Tables_number   1
_chemical_formula_structural   TbH12C11O9
_chemical_formula_sum   'Tb4 H48 C44 O36'
_cell_volume   1314.72297036
_cell_formula_units_Z   4
loop_
 _symmetry_equiv_pos_site_id
 _symmetry_equiv_pos_as_xyz
  1  'x, y, z'
loop_
 _atom_site_type_symbol
 _atom_site_label
 _atom_site_symmetry_multiplicity
 _atom_site_fract_x
 _atom_site_fract_y
 _atom_site_fract_z
 _atom_site_occupancy
 _atom_site_hle17_bader_spin_density
 _atom_site_hle17_ddec_charge
 _atom_site_hle17_ddec_spin_density
 _atom_site_hle17_ddec_sum_bond_order
 _atom_site_hle17_magmom
 _atom_site_hse06_10hf_bader_spin_density
 _atom_site_hse06_10hf_ddec_charge
 _atom_site_hse06_10hf_ddec_spin_density
 _atom_site_hse06_10hf_ddec_sum_bond_order
 _atom_site_hse06_10hf_magmom
 _atom_site_hse06_bader_spin_density
 _atom_site_hse06_ddec_charge
 _atom_site_hse06_ddec_spin_density
 _atom_site_hse06_ddec_sum_bond_order
 _atom_site_hse06_magmom
 _atom_site_pbe_bader_charge
 _atom_site_pbe_bader_spin_density
 _atom_site_pbe_cm5_charge
 _atom_site_pbe_ddec_charge
 _atom_site_pbe_ddec_spin_density
 _atom_site_pbe_ddec_sum_bond_order
 _atom_site_pbe_magmom
Tb  Tb0  1  0.73617237  0.37056956  0.53876511  1  0  2.288973  0  1.590361  0  0  2.141216  0  2.053013  0  0  2.259689  0  1.87707  0  2.196789  0  1.493514  2.105892  0  2.083933  0
Tb  Tb1  1  0.62937312  0.26345023  0.96128092  1  0  2.28883  0  1.59148  0  0  2.141082  0  2.054121  0  0  2.259582  0  1.878168  0  2.197104  0  1.494043  2.105723  0  2.085095  0
Tb  Tb2  1  0.26382760  0.62942969  0.46123504  1  0  2.288983  0  1.590333  0  0  2.141207  0  2.053006  0  0  2.259692  0  1.877039  0  2.196797  0  1.493539  2.105885  0  2.083923  0
Tb  Tb3  1  0.37062572  0.73654901  0.03871929  1  0  2.28881  0  1.591501  0  0  2.141048  0  2.05417  0  0  2.25956  0  1.878191  0  2.197084  0  1.494042  2.105688  0  2.085145  0
H  H4  1  0.86177205  0.06627556  0.64439945  1  0  0.438762  0  0.851743  0  0  0.408793  0  0.913749  0  0  0.419169  0  0.898503  0  0.637825  0  0.306514  0.401525  0  0.924549  0
H  H5  1  0.93341176  0.13853241  0.85563935  1  0  0.439372  0  0.850888  0  0  0.409448  0  0.912842  0  0  0.419785  0  0.897641  0  0.63758  0  0.306874  0.402205  0  0.923621  0
H  H6  1  0.13822843  0.93372498  0.35560060  1  0  0.438751  0  0.851758  0  0  0.40878  0  0.913768  0  0  0.419156  0  0.898522  0  0.637823  0  0.306512  0.401509  0  0.924572  0
H  H7  1  0.06658810  0.86146943  0.14436066  1  0  0.439346  0  0.850935  0  0  0.409425  0  0.912881  0  0  0.41976  0  0.897684  0  0.637577  0  0.306857  0.402182  0  0.92366  0
H  H8  1  0.01521680  0.98491042  0.58368517  1  0  0.439207  0  0.863315  0  0  0.408873  0  0.925389  0  0  0.420664  0  0.908353  0  0.661383  0  0.296658  0.400936  0  0.936858  0
H  H9  1  0.01472845  0.98464309  0.91636706  1  0  0.438584  0  0.864244  0  0  0.408224  0  0.926416  0  0  0.42003  0  0.909362  0  0.662846  0  0.296408  0.400261  0  0.937927  0
H  H10  1  0.98478482  0.01509012  0.41631482  1  0  0.439207  0  0.863323  0  0  0.408843  0  0.925438  0  0  0.420634  0  0.908404  0  0.661422  0  0.296647  0.400909  0  0.9369  0
H  H11  1  0.98527090  0.01535745  0.08363356  1  0  0.438563  0  0.864277  0  0  0.408201  0  0.926451  0  0  0.420007  0  0.909396  0  0.662849  0  0.296397  0.400238  0  0.937962  0
H  H12  1  0.74476505  0.09490889  0.77732763  1  0  0.397098  0  0.868223  0  0  0.371128  0  0.939362  0  0  0.381684  0  0.927707  0  0.664433  0  0.312066  0.363873  0  0.94718  0
H  H13  1  0.90598771  0.25519661  0.72273063  1  0  0.397088  0  0.868264  0  0  0.370868  0  0.939752  0  0  0.381422  0  0.928112  0  0.636732  0  0.311961  0.363578  0  0.947615  0
H  H14  1  0.25523617  0.90508776  0.22267259  1  0  0.397096  0  0.868246  0  0  0.371128  0  0.939375  0  0  0.381683  0  0.927722  0  0.664425  0  0.312059  0.363868  0  0.947198  0
H  H15  1  0.09401163  0.74480393  0.27726897  1  0  0.397115  0  0.868222  0  0  0.370889  0  0.93972  0  0  0.38144  0  0.928082  0  0.636745  0  0.311965  0.363598  0  0.947585  0
H  H16  1  0.09543777  0.31678214  0.47082519  1  0  0.465401  0  0.817962  0  0  0.435923  0  0.876814  0  0  0.447483  0  0.859961  0  0.660422  0  0.311691  0.428038  0  0.888367  0
H  H17  1  0.68358570  0.90363558  0.02927050  1  0  0.465324  0  0.818433  0  0  0.435706  0  0.877503  0  0  0.447302  0  0.860605  0  0.6592  0  0.311485  0.427792  0  0.889096  0
H  H18  1  0.90456385  0.68321840  0.52917428  1  0  0.465342  0  0.818032  0  0  0.435864  0  0.87689  0  0  0.447425  0  0.860035  0  0.660433  0  0.311666  0.427979  0  0.888442  0
H  H19  1  0.31641365  0.09636496  0.97073013  1  0  0.465343  0  0.818402  0  0  0.435724  0  0.877475  0  0  0.447321  0  0.860576  0  0.659196  0  0.311483  0.42781  0  0.889068  0
H  H20  1  0.11897111  0.13420834  0.50313007  1  0  0.447009  0  0.808529  0  0  0.427388  0  0.862762  0  0  0.43629  0  0.849917  0  0.611105  0  0.330087  0.42129  0  0.871706  0
H  H21  1  0.86573103  0.88020619  0.99698588  1  0  0.445962  0  0.80952  0  0  0.426515  0  0.863627  0  0  0.435403  0  0.850812  0  0.61033  0  0.330098  0.420455  0  0.872498  0
H  H22  1  0.88102938  0.86579220  0.49686946  1  0  0.447028  0  0.808494  0  0  0.427404  0  0.862744  0  0  0.436306  0  0.849899  0  0.61111  0  0.330094  0.421305  0  0.87169  0
H  H23  1  0.13426832  0.11979435  0.00301474  1  0  0.445973  0  0.809499  0  0  0.426526  0  0.86361  0  0  0.435414  0  0.850795  0  0.610324  0  0.330095  0.420465  0  0.872481  0
H  H24  1  0.82571870  0.82391933  0.64252017  1  0  0.122898  0  0.945629  0  0  0.13213  0  1.008506  0  0  0.137027  0  1.00379  0  0.099362  0  0.113581  0.128687  0  1.0117  0
H  H25  1  0.17634337  0.17437079  0.85754344  1  0  0.122639  0  0.945102  0  0  0.132242  0  1.00762  0  0  0.137078  0  1.002979  0  0.116721  0  0.113593  0.128786  0  1.010808  0
H  H26  1  0.17428592  0.17607732  0.35747986  1  0  0.122884  0  0.945648  0  0  0.132132  0  1.008512  0  0  0.137031  0  1.003793  0  0.100305  0  0.113581  0.128688  0  1.011707  0
H  H27  1  0.82365485  0.82562975  0.14245622  1  0  0.122647  0  0.945088  0  0  0.13225  0  1.00761  0  0  0.137086  0  1.002968  0  0.11672  0  0.113587  0.128795  0  1.010798  0
H  H28  1  0.71903574  0.89589587  0.86367699  1  0  0.124687  0  0.961916  0  0  0.128905  0  1.033466  0  0  0.133302  0  1.02972  0  0.11986  0  0.113384  0.125636  0  1.036382  0
H  H29  1  0.10442330  0.28157966  0.63637400  1  0  0.124744  0  0.960369  0  0  0.128925  0  1.031929  0  0  0.13337  0  1.028139  0  0.12264  0  0.113411  0.125648  0  1.03486  0
H  H30  1  0.28096310  0.10410338  0.13632322  1  0  0.12465  0  0.961891  0  0  0.128865  0  1.033439  0  0  0.133261  0  1.029694  0  0.119856  0  0.113372  0.125595  0  1.036354  0
H  H31  1  0.89557945  0.71842088  0.36362540  1  0  0.124708  0  0.960364  0  0  0.128871  0  1.031948  0  0  0.133317  0  1.02816  0  0.12268  0  0.11339  0.125594  0  1.034881  0
H  H32  1  0.71462148  0.46829065  0.78279307  1  0  0.115156  0  0.962006  0  0  0.118881  0  1.034383  0  0  0.123737  0  1.029723  0  0.095249  0  0.111917  0.115489  0  1.037496  0
H  H33  1  0.53180607  0.28441262  0.71721098  1  0  0.114912  0  0.963786  0  0  0.118852  0  1.035701  0  0  0.123694  0  1.031129  0  0.096966  0  0.112102  0.115433  0  1.038833  0
H  H34  1  0.28537674  0.53170989  0.21720658  1  0  0.11517  0  0.962028  0  0  0.118907  0  1.034391  0  0  0.123762  0  1.029733  0  0.095252  0  0.111926  0.115515  0  1.037501  0
H  H35  1  0.46819390  0.71558662  0.28279020  1  0  0.114966  0  0.963859  0  0  0.118897  0  1.035778  0  0  0.123737  0  1.031216  0  0.096947  0  0.112131  0.115477  0  1.038912  0
H  H36  1  0.53472442  0.23230059  0.33206727  1  0  0.105431  0  0.953792  0  0  0.120647  0  1.011071  0  0  0.121974  0  1.011732  0  0.050904  0  0.100568  0.119765  0  1.010396  0
H  H37  1  0.76757443  0.46574838  0.16778259  1  0  0.105084  0  0.954557  0  0  0.120132  0  1.012075  0  0  0.12145  0  1.01275  0  0.050108  0  0.10036  0.119265  0  1.011396  0
H  H38  1  0.46527391  0.76769736  0.66793252  1  0  0.105423  0  0.953817  0  0  0.12062  0  1.011113  0  0  0.121948  0  1.011774  0  0.050899  0  0.100569  0.119738  0  1.010438  0
H  H39  1  0.23242140  0.53425476  0.83221757  1  0  0.105027  0  0.954543  0  0  0.120094  0  1.01204  0  0  0.121411  0  1.012717  0  0.050145  0  0.100338  0.119235  0  1.011364  0
H  H40  1  0.74276485  0.05189661  0.34377831  1  0  0.100931  0  0.950878  0  0  0.115395  0  1.010968  0  0  0.117327  0  1.010463  0  0.079976  0  0.097941  0.114054  0  1.011179  0
H  H41  1  0.94741640  0.25707055  0.15617465  1  0  0.101259  0  0.950323  0  0  0.115778  0  1.010353  0  0  0.117743  0  1.009814  0  0.050649  0  0.098074  0.114416  0  1.010606  0
H  H42  1  0.25723626  0.94810263  0.65622126  1  0  0.100937  0  0.950861  0  0  0.115399  0  1.010942  0  0  0.11733  0  1.010437  0  0.079983  0  0.097943  0.114057  0  1.011156  0
H  H43  1  0.05258221  0.74293389  0.84382632  1  0  0.101264  0  0.950308  0  0  0.115787  0  1.010328  0  0  0.117751  0  1.009789  0  0.050581  0  0.098079  0.114431  0  1.010587  0
H  H44  1  0.68628080  0.41709871  0.29362952  1  0  0.063675  0  0.968033  0  0  0.08264  0  1.02839  0  0  0.082576  0  1.030315  0  0.045194  0  0.089759  0.082654  0  1.027016  0
H  H45  1  0.58315467  0.31399589  0.20635513  1  0  0.063107  0  0.967693  0  0  0.082544  0  1.027739  0  0  0.082486  0  1.029637  0  0.046842  0  0.089785  0.082557  0  1.026368  0
H  H46  1  0.31371680  0.58290312  0.70637061  1  0  0.063692  0  0.968001  0  0  0.082647  0  1.028364  0  0  0.082583  0  1.030289  0  0.044907  0  0.08975  0.082661  0  1.026991  0
H  H47  1  0.41684354  0.68600465  0.79364504  1  0  0.063077  0  0.96766  0  0  0.082504  0  1.027718  0  0  0.082445  0  1.029618  0  0.046876  0  0.089768  0.082517  0  1.026348  0
H  H48  1  0.88528414  0.22313984  0.29427000  1  0  0.067007  0  0.957206  0  0  0.084083  0  1.020105  0  0  0.08479  0  1.021025  0  0.018526  0  0.088486  0.083562  0  1.019406  0
H  H49  1  0.77649489  0.11437628  0.20571994  1  0  0.066267  0  0.957662  0  0  0.083422  0  1.020781  0  0  0.084119  0  1.021726  0  0.016435  0  0.08828  0.08291  0  1.020067  0
H  H50  1  0.11471521  0.77686070  0.70572960  1  0  0.067027  0  0.957233  0  0  0.084094  0  1.020132  0  0  0.0848  0  1.021051  0  0.018502  0  0.088489  0.083573  0  1.019431  0
H  H51  1  0.22350270  0.88562555  0.79427968  1  0  0.066233  0  0.957691  0  0  0.083392  0  1.020802  0  0  0.08409  0  1.021746  0  0.016445  0  0.088251  0.082881  0  1.020087  0
C  C52  1  0.78591483  0.53478813  0.64670334  1  0  0.642159  0  3.917459  0  0  0.592078  0  4.21335  0  0  0.624568  0  4.212859  0  1.496459  0  0.204003  0.569286  0  4.21819  0
C  C53  1  0.46515846  0.21398040  0.85331934  1  0  0.642795  0  3.916274  0  0  0.592367  0  4.212563  0  0  0.624894  0  4.212029  0  1.496109  0  0.203812  0.56956  0  4.217433  0
C  C54  1  0.21408628  0.46521111  0.35329726  1  0  0.642184  0  3.91747  0  0  0.592071  0  4.213396  0  0  0.624561  0  4.212905  0  1.496471  0  0.203977  0.56928  0  4.218236  0
C  C55  1  0.53484037  0.78601884  0.14668087  1  0  0.642738  0  3.916302  0  0  0.592307  0  4.212594  0  0  0.624835  0  4.212062  0  1.494881  0  0.203779  0.569502  0  4.217461  0
C  C56  1  0.66028086  0.61895952  0.90023900  1  0  0.726339  0  3.840715  0  0  0.682289  0  4.126392  0  0  0.718413  0  4.1179  0  1.582297  0  0.235642  0.658083  0  4.13426  0
C  C57  1  0.38147716  0.33923044  0.59977893  1  0  0.726328  0  3.839631  0  0  0.681817  0  4.125761  0  0  0.717872  0  4.11736  0  1.583743  0  0.235298  0.657621  0  4.13361  0
C  C58  1  0.33971973  0.38103842  0.09976118  1  0  0.726253  0  3.840764  0  0  0.682177  0  4.126478  0  0  0.7183  0  4.117989  0  1.582298  0  0.235605  0.657971  0  4.134346  0
C  C59  1  0.61851640  0.66077269  0.40022032  1  0  0.726359  0  3.839707  0  0  0.681858  0  4.125822  0  0  0.717922  0  4.117406  0  1.583886  0  0.235341  0.657658  0  4.133672  0
C  C60  1  0.79729294  0.78012970  0.69497895  1  0  -0.16634  0  3.656937  0  0  -0.201219  0  3.907246  0  0  -0.202249  0  3.923104  0  0.013455  0  -0.087978  -0.200132  0  3.896136  0
C  C61  1  0.22014726  0.20276663  0.80509172  1  0  -0.166263  0  3.656876  0  0  -0.201433  0  3.907292  0  0  -0.202398  0  3.923192  0  -0.007239  0  -0.088128  -0.200329  0  3.896178  0
C  C62  1  0.20270704  0.21986954  0.30502120  1  0  -0.166349  0  3.656911  0  0  -0.20124  0  3.907217  0  0  -0.202271  0  3.923078  0  0.0125  0  -0.087982  -0.200154  0  3.896112  0
C  C63  1  0.77985272  0.79723261  0.19490791  1  0  -0.166338  0  3.656883  0  0  -0.20151  0  3.907306  0  0  -0.202476  0  3.923207  0  -0.007238  0  -0.088162  -0.200406  0  3.896191  0
C  C64  1  0.73448985  0.82351573  0.81917757  1  0  -0.190828  0  3.693916  0  0  -0.224221  0  3.945407  0  0  -0.22616  0  3.962536  0  -0.063772  0  -0.091124  -0.222453  0  3.933366  0
C  C65  1  0.17678936  0.26576800  0.68087197  1  0  -0.190778  0  3.692218  0  0  -0.224175  0  3.943444  0  0  -0.226142  0  3.9606  0  -0.074364  0  -0.091582  -0.222385  0  3.931385  0
C  C66  1  0.26551012  0.17648351  0.18082258  1  0  -0.190784  0  3.693842  0  0  -0.224165  0  3.945326  0  0  -0.226105  0  3.962457  0  -0.063769  0  -0.091126  -0.222396  0  3.933286  0
C  C67  1  0.82320999  0.73423254  0.31912711  1  0  -0.19071  0  3.692274  0  0  -0.224089  0  3.94351  0  0  -0.226049  0  3.960651  0  -0.074082  0  -0.091583  -0.222303  0  3.931448  0
C  C68  1  0.73463189  0.58069697  0.77358164  1  0  -0.094165  0  3.714708  0  0  -0.137691  0  3.971729  0  0  -0.135875  0  3.988239  0  0.019459  0  -0.086234  -0.138493  0  3.959904  0
C  C69  1  0.41947186  0.26474538  0.72645147  1  0  -0.094259  0  3.717168  0  0  -0.137954  0  3.973509  0  0  -0.136209  0  3.990091  0  0.020914  0  -0.086816  -0.13871  0  3.961645  0
C  C70  1  0.26536746  0.41930357  0.22641898  1  0  -0.094191  0  3.714738  0  0  -0.137752  0  3.971772  0  0  -0.135937  0  3.988281  0  0.019458  0  -0.086252  -0.138553  0  3.959946  0
C  C71  1  0.58052698  0.73525387  0.27354874  1  0  -0.094362  0  3.717239  0  0  -0.138044  0  3.973576  0  0  -0.136304  0  3.990159  0  0.020927  0  -0.086863  -0.138804  0  3.961711  0
C  C72  1  0.71316772  0.67634816  0.82976884  1  0  -0.032673  0  3.75034  0  0  -0.006518  0  3.981794  0  0  -0.012215  0  4.001004  0  0.00644  0  -0.010764  -0.002653  0  3.967865  0
C  C73  1  0.32398308  0.28646305  0.67025814  1  0  -0.032824  0  3.750285  0  0  -0.005863  0  3.980602  0  0  -0.011527  0  3.999831  0  0.003044  0  -0.010399  -0.002033  0  3.966721  0
C  C74  1  0.28683288  0.32364978  0.17023186  1  0  -0.032663  0  3.750356  0  0  -0.006475  0  3.981778  0  0  -0.012172  0  4.000989  0  0.006443  0  -0.010732  -0.002611  0  3.967847  0
C  C75  1  0.67601751  0.71353489  0.32974256  1  0  -0.032851  0  3.750316  0  0  -0.005914  0  3.980645  0  0  -0.011578  0  3.999872  0  0.002697  0  -0.010402  -0.002069  0  3.966741  0
C  C76  1  0.77527759  0.63293228  0.70608878  1  0  -0.057337  0  3.802784  0  0  -0.031974  0  4.041535  0  0  -0.039174  0  4.064036  0  -0.07216  0  -0.020835  -0.027067  0  4.025785  0
C  C77  1  0.36719299  0.22443239  0.79397716  1  0  -0.057524  0  3.802824  0  0  -0.032111  0  4.041709  0  0  -0.03929  0  4.064179  0  -0.075398  0  -0.020441  -0.02721  0  4.025963  0
C  C78  1  0.22472239  0.36706696  0.29391136  1  0  -0.057316  0  3.802746  0  0  -0.031939  0  4.041505  0  0  -0.039139  0  4.064007  0  -0.072147  0  -0.020809  -0.027031  0  4.025753  0
C  C79  1  0.63280636  0.77556815  0.20602244  1  0  -0.057436  0  3.802732  0  0  -0.032033  0  4.04162  0  0  -0.039211  0  4.06409  0  -0.07539  0  -0.020411  -0.027134  0  4.025876  0
C  C80  1  0.77803878  0.87407308  0.75162569  1  0  0.322235  0  3.824522  0  0  0.314321  0  4.092816  0  0  0.322692  0  4.110688  0  0.473154  0  0.081926  0.308317  0  4.080642  0
C  C81  1  0.12627393  0.22226776  0.74844683  1  0  0.322142  0  3.825239  0  0  0.314016  0  4.09386  0  0  0.322325  0  4.111761  0  0.483225  0  0.082114  0.308024  0  4.081661  0
C  C82  1  0.22196182  0.12592487  0.24837450  1  0  0.322274  0  3.824346  0  0  0.314337  0  4.092673  0  0  0.322707  0  4.110545  0  0.473157  0  0.081912  0.308324  0  4.080505  0
C  C83  1  0.87372604  0.77773148  0.25155280  1  0  0.322211  0  3.825307  0  0  0.314074  0  4.093917  0  0  0.32238  0  4.111823  0  0.483223  0  0.082168  0.308083  0  4.081718  0
C  C84  1  0.66468261  0.24951121  0.41451671  1  0  0.765391  0  3.771574  0  0  0.722724  0  4.061825  0  0  0.757626  0  4.05672  0  1.530705  0  0.23296  0.698929  0  4.06897  0
C  C85  1  0.75020906  0.33521004  0.08544970  1  0  0.763199  0  3.774657  0  0  0.720959  0  4.064241  0  0  0.755929  0  4.059095  0  1.530708  0  0.232085  0.697135  0  4.071416  0
C  C86  1  0.33531674  0.75048933  0.58548185  1  0  0.765375  0  3.77156  0  0  0.722731  0  4.061768  0  0  0.757631  0  4.056664  0  1.530601  0  0.232965  0.698939  0  4.068907  0
C  C87  1  0.24978904  0.66479309  0.91454982  1  0  0.763352  0  3.774528  0  0  0.721166  0  4.064019  0  0  0.756135  0  4.058872  0  1.530689  0  0.232241  0.697352  0  4.071196  0
C  C88  1  0.66720815  0.19389009  0.34351153  1  0  -0.262549  0  3.625382  0  0  -0.296989  0  3.865995  0  0  -0.302224  0  3.872024  0  -0.04877  0  -0.16132  -0.292951  0  3.860743  0
C  C89  1  0.80581038  0.33288579  0.15641707  1  0  -0.261979  0  3.626007  0  0  -0.296425  0  3.866454  0  0  -0.301697  0  3.872496  0  -0.016164  0  -0.160883  -0.292407  0  3.861245  0
C  C90  1  0.33279295  0.80610915  0.65648752  1  0  -0.262471  0  3.625414  0  0  -0.296891  0  3.865978  0  0  -0.30212  0  3.872  0  -0.048732  0  -0.161295  -0.292852  0  3.860724  0
C  C91  1  0.19418998  0.66711734  0.84358284  1  0  -0.261974  0  3.625979  0  0  -0.296443  0  3.866381  0  0  -0.301713  0  3.872418  0  -0.016091  0  -0.160888  -0.292462  0  3.861217  0
C  C92  1  0.74702656  0.27754109  0.28698443  1  0  -0.073452  0  3.630971  0  0  -0.111442  0  3.886506  0  0  -0.111536  0  3.899562  0  -0.017106  0  -0.160767  -0.111101  0  3.877112  0
C  C93  1  0.72235947  0.25298656  0.21298988  1  0  -0.072247  0  3.63064  0  0  -0.110935  0  3.886442  0  0  -0.111014  0  3.899503  0  0.011704  0  -0.160742  -0.11059  0  3.877059  0
C  C94  1  0.25297103  0.72246075  0.71301415  1  0  -0.073527  0  3.631023  0  0  -0.111517  0  3.88655  0  0  -0.111611  0  3.899606  0  -0.016548  0  -0.160759  -0.111174  0  3.877153  0
C  C95  1  0.27763863  0.74701658  0.78700809  1  0  -0.072158  0  3.630576  0  0  -0.110832  0  3.886323  0  0  -0.110912  0  3.899385  0  0.011389  0  -0.160692  -0.110477  0  3.876945  0
O  O96  1  0.77070841  0.39616358  0.65996607  1  0  -0.718216  0  2.019505  0  0  -0.662225  0  2.263057  0  0  -0.694628  0  2.252989  0  -1.19061  0  -0.373773  -0.645026  0  2.26966  0
O  O97  1  0.60313127  0.22967656  0.84003236  1  0  -0.71807  0  2.019624  0  0  -0.662114  0  2.263489  0  0  -0.69451  0  2.253341  0  -1.189251  0  -0.373353  -0.644905  0  2.270077  0
O  O98  1  0.22929270  0.60383566  0.34003402  1  0  -0.718249  0  2.019502  0  0  -0.662225  0  2.263039  0  0  -0.694629  0  2.252971  0  -1.190607  0  -0.373765  -0.645027  0  2.269643  0
O  O99  1  0.39686632  0.77032528  0.15996726  1  0  -0.718067  0  2.019682  0  0  -0.662112  0  2.263568  0  0  -0.694503  0  2.253405  0  -1.188051  0  -0.373337  -0.644902  0  2.270156  0
O  O100  1  0.72083046  0.45586479  0.91223195  1  0  -0.738492  0  2.063667  0  0  -0.688969  0  2.316147  0  0  -0.724461  0  2.302068  0  -1.177525  0  -0.412631  -0.671009  0  2.323366  0
O  O101  1  0.54413144  0.27880639  0.58790859  1  0  -0.737622  0  2.061055  0  0  -0.687996  0  2.313578  0  0  -0.723441  0  2.299559  0  -1.176526  0  -0.411506  -0.670036  0  2.320785  0
O  O102  1  0.27917014  0.54413315  0.08776875  1  0  -0.738451  0  2.063668  0  0  -0.688921  0  2.316169  0  0  -0.724414  0  2.302088  0  -1.177461  0  -0.412606  -0.670961  0  2.323387  0
O  O103  1  0.45587443  0.72118767  0.41209100  1  0  -0.737579  0  2.061272  0  0  -0.687954  0  2.313796  0  0  -0.723401  0  2.299771  0  -1.176655  0  -0.411502  -0.669996  0  2.321006  0
O  O104  1  0.53469037  0.38228425  0.43905050  1  0  -0.806949  0  2.160289  0  0  -0.750348  0  2.417513  0  0  -0.792528  0  2.407348  0  -1.224398  0  -0.399747  -0.731676  0  2.422834  0
O  O105  1  0.61738174  0.46520722  0.06095840  1  0  -0.806901  0  2.162331  0  0  -0.750263  0  2.419159  0  0  -0.792547  0  2.409063  0  -1.226041  0  -0.400027  -0.731553  0  2.424442  0
O  O106  1  0.46531073  0.61771499  0.56094803  1  0  -0.806987  0  2.160259  0  0  -0.750389  0  2.417469  0  0  -0.79257  0  2.407307  0  -1.224387  0  -0.399758  -0.731719  0  2.422789  0
O  O107  1  0.38261523  0.53479591  0.93904118  1  0  -0.807039  0  2.162175  0  0  -0.750416  0  2.418976  0  0  -0.792697  0  2.408877  0  -1.225899  0  -0.400168  -0.731705  0  2.424252  0
O  O108  1  0.55658100  0.73435453  0.94117614  1  0  -0.716388  0  1.990734  0  0  -0.66963  0  2.238419  0  0  -0.703996  0  2.224022  0  -1.19094  0  -0.389951  -0.652092  0  2.245045  0
O  O109  1  0.26643358  0.44283549  0.55872804  1  0  -0.717106  0  1.992188  0  0  -0.670213  0  2.239983  0  0  -0.704614  0  2.225675  0  -1.191898  0  -0.390352  -0.652708  0  2.246706  0
O  O110  1  0.44341784  0.26564471  0.05882355  1  0  -0.716376  0  1.990779  0  0  -0.669611  0  2.238474  0  0  -0.703979  0  2.224087  0  -1.190963  0  -0.389958  -0.652075  0  2.245104  0
O  O111  1  0.73356753  0.55716376  0.44127307  1  0  -0.717166  0  1.992026  0  0  -0.670267  0  2.239803  0  0  -0.704673  0  2.225492  0  -1.191878  0  -0.390399  -0.652761  0  2.246528  0
O  O112  1  0.80012763  0.16684649  0.44954068  1  0  -0.731174  0  2.004604  0  0  -0.669227  0  2.235711  0  0  -0.703043  0  2.222136  0  -1.188646  0  -0.363716  -0.650851  0  2.243219  0
O  O113  1  0.83291300  0.19950281  0.05041773  1  0  -0.729271  0  2.005688  0  0  -0.667582  0  2.23657  0  0  -0.701391  0  2.222961  0  -1.189695  0  -0.362937  -0.649222  0  2.244134  0
O  O114  1  0.19987184  0.83315145  0.55045853  1  0  -0.731146  0  2.004663  0  0  -0.669236  0  2.235778  0  0  -0.703052  0  2.222202  0  -1.188668  0  -0.363736  -0.650861  0  2.243285  0
O  O115  1  0.16708521  0.80049773  0.94958296  1  0  -0.729277  0  2.005732  0  0  -0.667613  0  2.236586  0  0  -0.701424  0  2.222977  0  -1.18974  0  -0.362943  -0.649253  0  2.244145  0
O  O116  1  0.89820754  0.08419346  0.59550530  1  0  -0.923827  0  1.866924  0  0  -0.878947  0  2.072094  0  0  -0.905775  0  2.032891  0  -1.290953  0  -0.649705  -0.865843  0  2.095636  0
O  O117  1  0.91478934  0.10120033  0.90432820  1  0  -0.924497  0  1.866592  0  0  -0.879742  0  2.071856  0  0  -0.906555  0  2.032747  0  -1.292437  0  -0.65019  -0.866639  0  2.095312  0
O  O118  1  0.10179294  0.91580708  0.40449474  1  0  -0.923797  0  1.866908  0  0  -0.878895  0  2.07212  0  0  -0.905725  0  2.032919  0  -1.29098  0  -0.649689  -0.865791  0  2.095667  0
O  O119  1  0.08520939  0.89880150  0.09567239  1  0  -0.924444  0  1.866654  0  0  -0.879691  0  2.071929  0  0  -0.906506  0  2.032821  0  -1.292445  0  -0.650165  -0.866592  0  2.095395  0
O  O120  1  0.80543076  0.01411292  0.73900768  1  0  -0.542758  0  2.162806  0  0  -0.482384  0  2.376076  0  0  -0.501774  0  2.36638  0  -1.195949  0  -0.347394  -0.468481  0  2.382043  0
O  O121  1  0.98651152  0.19500874  0.76112827  1  0  -0.542489  0  2.164677  0  0  -0.481556  0  2.377745  0  0  -0.500967  0  2.368125  0  -1.16549  0  -0.346722  -0.467641  0  2.383787  0
O  O122  1  0.19457035  0.98588632  0.26099240  1  0  -0.542754  0  2.162761  0  0  -0.482378  0  2.376046  0  0  -0.50177  0  2.366357  0  -1.195961  0  -0.347374  -0.468453  0  2.382003  0
O  O123  1  0.01348845  0.80499050  0.23887032  1  0  -0.542547  0  2.164682  0  0  -0.481588  0  2.377708  0  0  -0.500988  0  2.368082  0  -1.165491  0  -0.346733  -0.467675  0  2.383753  0
O  O124  1  0.80360613  0.58589182  0.58335157  1  0  -0.678353  0  2.009883  0  0  -0.622887  0  2.241006  0  0  -0.654009  0  2.230801  0  -1.175784  0  -0.34175  -0.605855  0  2.247236  0
O  O125  1  0.41442954  0.19605602  0.91668975  1  0  -0.67798  0  2.010878  0  0  -0.622384  0  2.242407  0  0  -0.653507  0  2.232136  0  -1.176816  0  -0.341218  -0.605367  0  2.24868  0
O  O126  1  0.19639435  0.41410872  0.41664848  1  0  -0.678371  0  2.009941  0  0  -0.622895  0  2.241071  0  0  -0.654016  0  2.230866  0  -1.175793  0  -0.341735  -0.605863  0  2.247301  0
O  O127  1  0.58556868  0.80394452  0.08331042  1  0  -0.677953  0  2.010858  0  0  -0.62235  0  2.242379  0  0  -0.653473  0  2.232108  0  -1.176797  0  -0.3412  -0.605332  0  2.24865  0
O  O128  1  0.04280419  0.25886662  0.50475208  1  0  -0.898911  0  1.807081  0  0  -0.853061  0  2.001348  0  0  -0.879604  0  1.962525  0  -1.240749  0  -0.623706  -0.840616  0  2.023655  0
O  O129  1  0.74139611  0.95628748  0.99527442  1  0  -0.897767  0  1.809179  0  0  -0.85181  0  2.00404  0  0  -0.878426  0  1.965185  0  -1.237946  0  -0.623801  -0.83933  0  2.026319  0
O  O130  1  0.95719743  0.74113392  0.49524842  1  0  -0.898879  0  1.807118  0  0  -0.853017  0  2.001348  0  0  -0.879563  0  1.962524  0  -1.24076  0  -0.623683  -0.840572  0  2.023655  0
O  O131  1  0.25860387  0.04371176  0.00472624  1  0  -0.897795  0  1.809138  0  0  -0.851841  0  2.004008  0  0  -0.878452  0  1.965133  0  -1.237942  0  -0.623801  -0.839359  0  2.026283  0
