# generated using pymatgen
data_AgPH20(C7O)3
_symmetry_space_group_name_H-M   'P 1'
_cell_length_a   7.82288744
_cell_length_b   10.99575195
_cell_length_c   10.99560453
_cell_angle_alpha   84.83484396
_cell_angle_beta   87.59978106
_cell_angle_gamma   87.59952878
_symmetry_Int_Tables_number   1
_chemical_formula_structural   AgPH20(C7O)3
_chemical_formula_sum   'Ag2 P2 H40 C42 O6'
_cell_volume   940.46798491
_cell_formula_units_Z   2
loop_
 _symmetry_equiv_pos_site_id
 _symmetry_equiv_pos_as_xyz
  1  'x, y, z'
loop_
 _atom_site_type_symbol
 _atom_site_label
 _atom_site_symmetry_multiplicity
 _atom_site_fract_x
 _atom_site_fract_y
 _atom_site_fract_z
 _atom_site_occupancy
 _atom_site_hle17_bader_spin_density
 _atom_site_hle17_ddec_charge
 _atom_site_hle17_ddec_spin_density
 _atom_site_hle17_ddec_sum_bond_order
 _atom_site_hle17_magmom
 _atom_site_hse06_10hf_bader_spin_density
 _atom_site_hse06_10hf_ddec_charge
 _atom_site_hse06_10hf_ddec_spin_density
 _atom_site_hse06_10hf_ddec_sum_bond_order
 _atom_site_hse06_10hf_magmom
 _atom_site_hse06_bader_spin_density
 _atom_site_hse06_ddec_charge
 _atom_site_hse06_ddec_spin_density
 _atom_site_hse06_ddec_sum_bond_order
 _atom_site_hse06_magmom
 _atom_site_pbe_bader_spin_density
 _atom_site_pbe_cm5_charge
 _atom_site_pbe_ddec_charge
 _atom_site_pbe_ddec_spin_density
 _atom_site_pbe_ddec_sum_bond_order
 _atom_site_pbe_magmom
Ag  Ag0  1  0.42242601  0.84488703  0.62697967  1  0  0.433876  0  1.650787  0  0  0.323112  0  2.109344  0  0  0.347214  0  2.06435  0  0  0.453184  0.306249  0  2.140024  0
Ag  Ag1  1  0.92242179  0.62698602  0.84488781  1  0  0.433935  0  1.650771  0  0  0.323163  0  2.109339  0  0  0.347261  0  2.06435  0  0  0.453213  0.306299  0  2.140012  0
P  P2  1  0.53317759  0.03720956  0.61379413  1  0  0.260019  0  3.859532  0  0  0.208656  0  4.333052  0  0  0.218832  0  4.32743  0  0  -0.026649  0.201753  0  4.336606  0
P  P3  1  0.03318313  0.61379148  0.03720756  1  0  0.260059  0  3.859461  0  0  0.208735  0  4.333017  0  0  0.218916  0  4.327393  0  0  -0.026674  0.201835  0  4.336557  0
H  H4  1  0.51579347  0.42007633  0.72643826  1  0  0.072327  0  0.954443  0  0  0.084265  0  1.020228  0  0  0.085148  0  1.020343  0  0  0.09901  0.083675  0  1.020185  0
H  H5  1  0.01578956  0.72644696  0.42007387  1  0  0.072362  0  0.954402  0  0  0.084354  0  1.020139  0  0  0.085242  0  1.020257  0  0  0.099049  0.083763  0  1.02009  0
H  H6  1  0.71734649  0.45224294  0.65135313  1  0  0.089876  0  0.924667  0  0  0.104913  0  0.984747  0  0  0.106119  0  0.983238  0  0  0.111314  0.104028  0  0.985964  0
H  H7  1  0.21734445  0.65136149  0.45223599  1  0  0.089846  0  0.924574  0  0  0.104879  0  0.984676  0  0  0.106088  0  0.983166  0  0  0.111271  0.103992  0  0.985891  0
H  H8  1  0.56308054  0.53440256  0.95613229  1  0  0.080845  0  0.964159  0  0  0.094711  0  1.036232  0  0  0.095565  0  1.03658  0  0  0.089794  0.094029  0  1.036065  0
H  H9  1  0.06307745  0.95613817  0.53440209  1  0  0.080877  0  0.964222  0  0  0.094754  0  1.036255  0  0  0.095608  0  1.036601  0  0  0.089809  0.094069  0  1.036095  0
H  H10  1  0.69245920  0.41016119  0.02235270  1  0  0.080217  0  0.943963  0  0  0.099165  0  1.00912  0  0  0.099119  0  1.009681  0  0  0.094237  0.099145  0  1.008789  0
H  H11  1  0.19245597  0.02235585  0.41015787  1  0  0.080238  0  0.944048  0  0  0.099195  0  1.009188  0  0  0.09915  0  1.00975  0  0  0.094259  0.099174  0  1.008852  0
H  H12  1  0.50677813  0.38001702  0.94065722  1  0  0.067082  0  0.969745  0  0  0.08485  0  1.037069  0  0  0.084715  0  1.03883  0  0  0.08587  0.084887  0  1.035919  0
H  H13  1  0.00677441  0.94066065  0.38001498  1  0  0.067135  0  0.969847  0  0  0.084904  0  1.037168  0  0  0.084771  0  1.038929  0  0  0.085884  0.08494  0  1.03602  0
H  H14  1  0.53404777  0.95516304  0.37212918  1  0  0.093966  0  0.964548  0  0  0.101216  0  1.034514  0  0  0.10452  0  1.03229  0  0  0.099977  0.098768  0  1.036195  0
H  H15  1  0.03404934  0.37213084  0.95515673  1  0  0.093991  0  0.964402  0  0  0.10124  0  1.034376  0  0  0.104533  0  1.032192  0  0  0.099968  0.09881  0  1.036037  0
H  H16  1  0.69386120  0.01645633  0.17722979  1  0  0.083205  0  0.969129  0  0  0.093147  0  1.034436  0  0  0.095145  0  1.034865  0  0  0.097507  0.09171  0  1.034244  0
H  H17  1  0.19385811  0.17723112  0.01645541  1  0  0.083202  0  0.969153  0  0  0.093129  0  1.034471  0  0  0.095128  0  1.034898  0  0  0.097524  0.09169  0  1.034282  0
H  H18  1  0.91196610  0.17688377  0.17130451  1  0  0.079452  0  0.979609  0  0  0.090123  0  1.044424  0  0  0.092128  0  1.044389  0  0  0.096148  0.088622  0  1.044598  0
H  H19  1  0.41197274  0.17130689  0.17687974  1  0  0.07945  0  0.979573  0  0  0.090091  0  1.044413  0  0  0.092118  0  1.044357  0  0  0.096099  0.088593  0  1.044584  0
H  H20  1  0.97645420  0.26931676  0.36106105  1  0  0.090981  0  0.947755  0  0  0.103913  0  1.002471  0  0  0.106403  0  1.002578  0  0  0.10242  0.102112  0  1.002512  0
H  H21  1  0.47646634  0.36106292  0.26930851  1  0  0.090946  0  0.947824  0  0  0.103866  0  1.002547  0  0  0.106356  0  1.002654  0  0  0.102389  0.102069  0  1.002587  0
H  H22  1  0.82033318  0.20628849  0.55613580  1  0  0.090962  0  0.961683  0  0  0.100061  0  1.026327  0  0  0.102095  0  1.026783  0  0  0.100583  0.09856  0  1.026145  0
H  H23  1  0.32034784  0.55613579  0.20627752  1  0  0.090936  0  0.96173  0  0  0.100037  0  1.026365  0  0  0.102071  0  1.026823  0  0  0.100531  0.098539  0  1.026184  0
H  H24  1  0.50870726  0.29502807  0.49768883  1  0  0.082774  0  0.977025  0  0  0.093678  0  1.040532  0  0  0.096037  0  1.040283  0  0  0.095622  0.091986  0  1.040773  0
H  H25  1  0.00872716  0.49767996  0.29504143  1  0  0.082897  0  0.977106  0  0  0.093768  0  1.040622  0  0  0.096127  0  1.040375  0  0  0.09574  0.092084  0  1.040855  0
H  H26  1  0.29073845  0.46152499  0.52130568  1  0  0.090341  0  0.960197  0  0  0.099078  0  1.023306  0  0  0.102143  0  1.021768  0  0  0.099679  0.096853  0  1.024517  0
H  H27  1  0.79075008  0.52129987  0.46153260  1  0  0.090327  0  0.960398  0  0  0.099133  0  1.023411  0  0  0.102194  0  1.021877  0  0  0.0997  0.09691  0  1.024619  0
H  H28  1  0.03289082  0.42697767  0.65583533  1  0  0.101858  0  0.988195  0  0  0.107418  0  1.056599  0  0  0.111642  0  1.053193  0  0  0.098573  0.10435  0  1.059108  0
H  H29  1  0.53290092  0.65582525  0.42697727  1  0  0.101758  0  0.988403  0  0  0.107414  0  1.056699  0  0  0.111637  0  1.053296  0  0  0.098562  0.104348  0  1.059206  0
H  H30  1  0.99095548  0.22093524  0.76831139  1  0  0.085531  0  0.983906  0  0  0.096091  0  1.04593  0  0  0.097736  0  1.047326  0  0  0.094776  0.094841  0  1.04512  0
H  H31  1  0.49097905  0.76830552  0.22093300  1  0  0.085651  0  0.983738  0  0  0.096231  0  1.045735  0  0  0.097869  0  1.047145  0  0  0.094834  0.094985  0  1.044918  0
H  H32  1  0.20893406  0.05303781  0.74480178  1  0  0.087415  0  0.96788  0  0  0.095911  0  1.037777  0  0  0.098561  0  1.036835  0  0  0.096438  0.093976  0  1.038514  0
H  H33  1  0.70896575  0.74479328  0.05304168  1  0  0.087272  0  0.967969  0  0  0.095822  0  1.037795  0  0  0.098502  0  1.036793  0  0  0.096424  0.093889  0  1.038522  0
H  H34  1  0.54196434  0.20640103  0.81385716  1  0  0.090111  0  0.969405  0  0  0.100317  0  1.032705  0  0  0.102753  0  1.03251  0  0  0.09887  0.098548  0  1.032948  0
H  H35  1  0.04194902  0.81386498  0.20639613  1  0  0.090177  0  0.969441  0  0  0.100409  0  1.03269  0  0  0.102846  0  1.032494  0  0  0.098891  0.098645  0  1.032931  0
H  H36  1  0.72371915  0.19979009  0.99361117  1  0  0.082231  0  0.968886  0  0  0.094557  0  1.031076  0  0  0.096876  0  1.030669  0  0  0.098163  0.092879  0  1.031491  0
H  H37  1  0.22371172  0.99361357  0.19978538  1  0  0.082205  0  0.96886  0  0  0.094555  0  1.031038  0  0  0.096873  0  1.030634  0  0  0.098159  0.092878  0  1.031453  0
H  H38  1  0.95830143  0.03929763  0.02243670  1  0  0.075521  0  0.987573  0  0  0.086102  0  1.053476  0  0  0.088112  0  1.053563  0  0  0.093461  0.084661  0  1.053471  0
H  H39  1  0.45830054  0.02242982  0.03929772  1  0  0.075612  0  0.987496  0  0  0.086202  0  1.053382  0  0  0.088213  0  1.053469  0  0  0.093519  0.084758  0  1.05337  0
H  H40  1  0.01271178  0.88914939  0.86663779  1  0  0.09277  0  0.983762  0  0  0.098971  0  1.053801  0  0  0.101794  0  1.052917  0  0  0.096733  0.096898  0  1.054595  0
H  H41  1  0.51271192  0.86662781  0.88914957  1  0  0.092741  0  0.983765  0  0  0.098928  0  1.053822  0  0  0.10175  0  1.052938  0  0  0.096689  0.096855  0  1.054616  0
H  H42  1  0.82755068  0.89232528  0.69149972  1  0  0.099632  0  0.951473  0  0  0.10773  0  1.01835  0  0  0.111496  0  1.015232  0  0  0.102763  0.104928  0  1.02077  0
H  H43  1  0.32755080  0.69149177  0.89233160  1  0  0.099755  0  0.951342  0  0  0.107802  0  1.018282  0  0  0.111568  0  1.015163  0  0  0.102801  0.104997  0  1.020708  0
C  C44  1  0.57886555  0.60982546  0.71112190  1  0  0.637387  0  3.890482  0  0  0.592445  0  4.17458  0  0  0.625578  0  4.170236  0  0  0.186211  0.569964  0  4.176612  0
C  C45  1  0.07886709  0.71112442  0.60982372  1  0  0.637242  0  3.890729  0  0  0.592331  0  4.174829  0  0  0.625465  0  4.17048  0  0  0.186083  0.569838  0  4.176871  0
C  C46  1  0.63142877  0.47360894  0.72884618  1  0  -0.075085  0  3.6527  0  0  -0.12775  0  3.907198  0  0  -0.124915  0  3.909191  0  0  -0.078546  -0.129827  0  3.905831  0
C  C47  1  0.13142824  0.72885272  0.47360643  1  0  -0.07504  0  3.652582  0  0  -0.127754  0  3.907135  0  0  -0.124927  0  3.909146  0  0  -0.078543  -0.129814  0  3.905746  0
C  C48  1  0.61406172  0.44128787  0.94439584  1  0  -0.096064  0  3.683971  0  0  -0.191855  0  3.951135  0  0  -0.186483  0  3.956359  0  0  -0.159556  -0.195349  0  3.947441  0
C  C49  1  0.11405779  0.94440097  0.44128649  1  0  -0.09621  0  3.684143  0  0  -0.191993  0  3.951329  0  0  -0.186614  0  3.956554  0  0  -0.159614  -0.195476  0  3.947632  0
C  C50  1  0.66281775  0.07958434  0.47586174  1  0  -0.08484  0  3.757744  0  0  -0.044587  0  3.989496  0  0  -0.050454  0  4.016047  0  0  -0.022893  -0.040727  0  3.971533  0
C  C51  1  0.16283102  0.47586218  0.07957586  1  0  -0.085043  0  3.757805  0  0  -0.044845  0  3.989665  0  0  -0.050715  0  4.016216  0  0  -0.022976  -0.040989  0  3.971705  0
C  C52  1  0.62922654  0.02545730  0.36894660  1  0  -0.082459  0  3.745682  0  0  -0.100553  0  3.984443  0  0  -0.101698  0  4.006105  0  0  -0.084569  -0.099586  0  3.969817  0
C  C53  1  0.12923396  0.36894888  0.02545180  1  0  -0.082324  0  3.745562  0  0  -0.1004  0  3.984321  0  0  -0.101547  0  4.005972  0  0  -0.084444  -0.099446  0  3.969679  0
C  C54  1  0.71857564  0.06029706  0.25960936  1  0  -0.077443  0  3.779017  0  0  -0.088088  0  4.023639  0  0  -0.090958  0  4.045623  0  0  -0.093068  -0.086165  0  4.008706  0
C  C55  1  0.21857935  0.25961089  0.06029127  1  0  -0.077486  0  3.778984  0  0  -0.088108  0  4.023574  0  0  -0.090976  0  4.045556  0  0  -0.093138  -0.086186  0  4.008646  0
C  C56  1  0.84143559  0.14937320  0.25626896  1  0  -0.070665  0  3.765487  0  0  -0.084295  0  4.009496  0  0  -0.085114  0  4.030589  0  0  -0.089062  -0.083577  0  3.995127  0
C  C57  1  0.34144578  0.25627096  0.14936703  1  0  -0.070677  0  3.765254  0  0  -0.084284  0  4.009256  0  0  -0.08512  0  4.030338  0  0  -0.089025  -0.083565  0  3.994888  0
C  C58  1  0.87777218  0.20189263  0.36297722  1  0  -0.066938  0  3.758185  0  0  -0.075417  0  3.998129  0  0  -0.078351  0  4.019655  0  0  -0.086612  -0.073418  0  3.983457  0
C  C59  1  0.37778588  0.36297659  0.20188453  1  0  -0.066959  0  3.758084  0  0  -0.075424  0  3.998025  0  0  -0.078359  0  4.019556  0  0  -0.0866  -0.07343  0  3.983362  0
C  C60  1  0.78951524  0.16672348  0.47263484  1  0  -0.069955  0  3.733624  0  0  -0.087173  0  3.970562  0  0  -0.087857  0  3.992166  0  0  -0.080722  -0.086602  0  3.95593  0
C  C61  1  0.28953146  0.47263359  0.16671493  1  0  -0.069787  0  3.733494  0  0  -0.086993  0  3.970419  0  0  -0.087675  0  3.992022  0  0  -0.080644  -0.086425  0  3.955791  0
C  C62  1  0.37501941  0.16329342  0.62131062  1  0  -0.096535  0  3.781431  0  0  -0.055018  0  4.012864  0  0  -0.060968  0  4.039818  0  0  -0.029501  -0.051102  0  3.99459  0
C  C63  1  0.87504067  0.62129838  0.16330255  1  0  -0.096536  0  3.781059  0  0  -0.055072  0  4.012569  0  0  -0.061025  0  4.039526  0  0  -0.029467  -0.051149  0  3.99429  0
C  C64  1  0.39520425  0.27802766  0.55672345  1  0  -0.085756  0  3.765141  0  0  -0.106374  0  4.006835  0  0  -0.107727  0  4.029294  0  0  -0.090306  -0.105303  0  3.991551  0
C  C65  1  0.89521800  0.55671436  0.27803526  1  0  -0.085711  0  3.765172  0  0  -0.10627  0  4.006883  0  0  -0.107626  0  4.029348  0  0  -0.090328  -0.105205  0  3.991599  0
C  C66  1  0.27104369  0.37156744  0.56886965  1  0  -0.064279  0  3.764744  0  0  -0.074723  0  4.011502  0  0  -0.077158  0  4.032375  0  0  -0.090078  -0.073116  0  3.99741  0
C  C67  1  0.77106036  0.56886037  0.37157676  1  0  -0.064298  0  3.764753  0  0  -0.074821  0  4.011506  0  0  -0.07726  0  4.032388  0  0  -0.090129  -0.073215  0  3.997417  0
C  C68  1  0.12609940  0.35177461  0.64549359  1  0  -0.069336  0  3.737273  0  0  -0.082994  0  3.980558  0  0  -0.083804  0  3.999703  0  0  -0.09032  -0.082349  0  3.967627  0
C  C69  1  0.62611099  0.64548713  0.35177518  1  0  -0.069343  0  3.737426  0  0  -0.083074  0  3.980737  0  0  -0.083881  0  3.999876  0  0  -0.090283  -0.082426  0  3.967804  0
C  C70  1  0.10444961  0.23713607  0.70905805  1  0  -0.071951  0  3.768862  0  0  -0.079752  0  4.006897  0  0  -0.083099  0  4.030563  0  0  -0.093618  -0.077431  0  3.990832  0
C  C71  1  0.60447252  0.70904908  0.23713979  1  0  -0.071912  0  3.769125  0  0  -0.079725  0  4.007157  0  0  -0.083071  0  4.030825  0  0  -0.093548  -0.077421  0  3.991119  0
C  C72  1  0.22745698  0.14304749  0.69658583  1  0  -0.084492  0  3.753534  0  0  -0.101951  0  3.990946  0  0  -0.103629  0  4.013983  0  0  -0.087957  -0.100613  0  3.975247  0
C  C73  1  0.72747616  0.69657860  0.14305129  1  0  -0.084539  0  3.753594  0  0  -0.102025  0  3.991033  0  0  -0.103708  0  4.01407  0  0  -0.088163  -0.100683  0  3.975321  0
C  C74  1  0.67345896  0.05082791  0.73966757  1  0  -0.098493  0  3.772509  0  0  -0.056543  0  4.005763  0  0  -0.062089  0  4.031588  0  0  -0.025884  -0.052914  0  3.988307  0
C  C75  1  0.17345576  0.73966571  0.05083011  1  0  -0.098698  0  3.772727  0  0  -0.056741  0  4.00596  0  0  -0.062294  0  4.031796  0  0  -0.025957  -0.053108  0  3.988503  0
C  C76  1  0.64505272  0.13704039  0.82543397  1  0  -0.071876  0  3.73808  0  0  -0.093195  0  3.980909  0  0  -0.093789  0  4.001818  0  0  -0.087165  -0.092681  0  3.966769  0
C  C77  1  0.14504441  0.82543595  0.13703803  1  0  -0.071974  0  3.738134  0  0  -0.093315  0  3.980979  0  0  -0.093909  0  4.001888  0  0  -0.087182  -0.092811  0  3.966851  0
C  C78  1  0.74738996  0.13275686  0.92703001  1  0  -0.080187  0  3.781538  0  0  -0.091037  0  4.028496  0  0  -0.093227  0  4.048568  0  0  -0.095019  -0.089579  0  4.014914  0
C  C79  1  0.24738350  0.92702889  0.13275490  1  0  -0.07999  0  3.781267  0  0  -0.090854  0  4.028213  0  0  -0.093044  0  4.048285  0  0  -0.094949  -0.089405  0  4.014645  0
C  C80  1  0.87882151  0.04360301  0.94301128  1  0  -0.076808  0  3.765275  0  0  -0.088341  0  4.004591  0  0  -0.089717  0  4.026292  0  0  -0.093134  -0.087262  0  3.989788  0
C  C81  1  0.37882038  0.94300448  0.04360294  1  0  -0.077023  0  3.765262  0  0  -0.088564  0  4.00459  0  0  -0.089941  0  4.02629  0  0  -0.09322  -0.087473  0  3.989773  0
C  C82  1  0.90959413  0.95865722  0.85645471  1  0  -0.067403  0  3.743746  0  0  -0.074524  0  3.984689  0  0  -0.077087  0  4.005743  0  0  -0.089324  -0.072821  0  3.970514  0
C  C83  1  0.40959591  0.85644721  0.95865838  1  0  -0.067354  0  3.743714  0  0  -0.074455  0  3.984615  0  0  -0.077018  0  4.005673  0  0  -0.089337  -0.072755  0  3.970437  0
C  C84  1  0.80681639  0.96175854  0.75590702  1  0  -0.063094  0  3.717903  0  0  -0.083482  0  3.961708  0  0  -0.083884  0  3.981357  0  0  -0.080586  -0.083121  0  3.948575  0
C  C85  1  0.30681674  0.75590042  0.96176304  1  0  -0.063098  0  3.717789  0  0  -0.083476  0  3.961653  0  0  -0.083874  0  3.981299  0  0  -0.080539  -0.083118  0  3.948518  0
O  O86  1  0.47333241  0.63862161  0.62719132  1  0  -0.604382  0  2.019503  0  0  -0.533136  0  2.269333  0  0  -0.563505  0  2.261143  0  0  -0.33634  -0.511763  0  2.274044  0
O  O87  1  0.97334636  0.62718562  0.63861893  1  0  -0.604397  0  2.019614  0  0  -0.533124  0  2.269401  0  0  -0.563496  0  2.261223  0  0  -0.336279  -0.511744  0  2.274115  0
O  O88  1  0.63982965  0.68406848  0.77792330  1  0  -0.622392  0  2.042296  0  0  -0.551498  0  2.301856  0  0  -0.580064  0  2.291123  0  0  -0.334075  -0.531339  0  2.308432  0
O  O89  1  0.13981575  0.77793007  0.68406619  1  0  -0.622356  0  2.042368  0  0  -0.551462  0  2.301898  0  0  -0.580025  0  2.291157  0  0  -0.334025  -0.531303  0  2.308484  0
O  O90  1  0.72281623  0.43816666  0.83655058  1  0  -0.267948  0  2.343548  0  0  -0.188158  0  2.600184  0  0  -0.204162  0  2.600648  0  0  -0.246352  -0.176799  0  2.599466  0
O  O91  1  0.22281264  0.83655542  0.43816579  1  0  -0.267858  0  2.34344  0  0  -0.188149  0  2.60016  0  0  -0.204173  0  2.60064  0  0  -0.246331  -0.176795  0  2.599434  0
