# generated using pymatgen
data_H14PbC18(N2Cl)2
_symmetry_space_group_name_H-M   'P 1'
_cell_length_a   4.09768104
_cell_length_b   13.90422937
_cell_length_c   15.85427030
_cell_angle_alpha   104.12345824
_cell_angle_beta   90.00022996
_cell_angle_gamma   90.00002669
_symmetry_Int_Tables_number   1
_chemical_formula_structural   H14PbC18(N2Cl)2
_chemical_formula_sum   'H28 Pb2 C36 N8 Cl4'
_cell_volume   875.99385325
_cell_formula_units_Z   2
loop_
 _symmetry_equiv_pos_site_id
 _symmetry_equiv_pos_as_xyz
  1  'x, y, z'
loop_
 _atom_site_type_symbol
 _atom_site_label
 _atom_site_symmetry_multiplicity
 _atom_site_fract_x
 _atom_site_fract_y
 _atom_site_fract_z
 _atom_site_occupancy
 _atom_site_hle17_bader_spin_density
 _atom_site_hle17_ddec_charge
 _atom_site_hle17_ddec_spin_density
 _atom_site_hle17_ddec_sum_bond_order
 _atom_site_hle17_magmom
 _atom_site_hse06_10hf_bader_spin_density
 _atom_site_hse06_10hf_ddec_charge
 _atom_site_hse06_10hf_ddec_spin_density
 _atom_site_hse06_10hf_ddec_sum_bond_order
 _atom_site_hse06_10hf_magmom
 _atom_site_hse06_bader_spin_density
 _atom_site_hse06_ddec_charge
 _atom_site_hse06_ddec_spin_density
 _atom_site_hse06_ddec_sum_bond_order
 _atom_site_hse06_magmom
 _atom_site_pbe_bader_spin_density
 _atom_site_pbe_cm5_charge
 _atom_site_pbe_ddec_charge
 _atom_site_pbe_ddec_spin_density
 _atom_site_pbe_ddec_sum_bond_order
 _atom_site_pbe_magmom
H  H0  1  0.74545281  0.47038595  0.19919669  1  0  0.072674  0  0.960381  0  0  0.07861  0  1.031991  0  0  0.08078  0  1.030847  0  0  0.107129  0.076984  0  1.032905  0
H  H1  1  0.74544838  0.02961433  0.30080206  1  0  0.072663  0  0.960345  0  0  0.078605  0  1.03196  0  0  0.080773  0  1.030815  0  0  0.10711  0.076978  0  1.032863  0
H  H2  1  0.25455061  0.52961490  0.80080047  1  0  0.072631  0  0.96044  0  0  0.078574  0  1.03205  0  0  0.08074  0  1.030903  0  0  0.107109  0.076947  0  1.032957  0
H  H3  1  0.25455749  0.97038649  0.69919888  1  0  0.072666  0  0.960386  0  0  0.078606  0  1.031994  0  0  0.080774  0  1.03085  0  0  0.107109  0.076981  0  1.0329  0
H  H4  1  0.84361875  0.65158762  0.26548743  1  0  0.11761  0  0.950069  0  0  0.120845  0  1.021542  0  0  0.125613  0  1.017858  0  0  0.109006  0.117442  0  1.024235  0
H  H5  1  0.84362110  0.84841341  0.23451331  1  0  0.117641  0  0.950079  0  0  0.120841  0  1.021589  0  0  0.12561  0  1.017906  0  0  0.109006  0.117431  0  1.024282  0
H  H6  1  0.15637735  0.34841395  0.73451304  1  0  0.117698  0  0.950071  0  0  0.120856  0  1.021622  0  0  0.125621  0  1.017943  0  0  0.109024  0.117449  0  1.024307  0
H  H7  1  0.15637988  0.15158666  0.76548872  1  0  0.117633  0  0.949997  0  0  0.120843  0  1.021494  0  0  0.125613  0  1.01781  0  0  0.108997  0.117439  0  1.024185  0
H  H8  1  0.28956318  0.61860299  0.48849654  1  0  0.107448  0  0.982402  0  0  0.113708  0  1.051247  0  0  0.117284  0  1.049945  0  0  0.094298  0.111102  0  1.05234  0
H  H9  1  0.28957188  0.88139483  0.01150103  1  0  0.107431  0  0.982461  0  0  0.113758  0  1.051266  0  0  0.117333  0  1.049961  0  0  0.094331  0.111151  0  1.052373  0
H  H10  1  0.71043048  0.38139413  0.51150169  1  0  0.107427  0  0.98248  0  0  0.113771  0  1.051272  0  0  0.117338  0  1.04998  0  0  0.094329  0.111163  0  1.052379  0
H  H11  1  0.71043155  0.11860525  0.98849974  1  0  0.107461  0  0.982419  0  0  0.113783  0  1.051227  0  0  0.117373  0  1.049902  0  0  0.094335  0.111178  0  1.052322  0
H  H12  1  0.20832137  0.43911966  0.41219503  1  0  0.070247  0  0.952212  0  0  0.077936  0  1.019322  0  0  0.080152  0  1.017797  0  0  0.105262  0.076272  0  1.020531  0
H  H13  1  0.20832100  0.06087816  0.08780262  1  0  0.070195  0  0.952259  0  0  0.077891  0  1.019364  0  0  0.080107  0  1.01784  0  0  0.105248  0.076228  0  1.020565  0
H  H14  1  0.79168205  0.56087821  0.58780400  1  0  0.070215  0  0.952255  0  0  0.077909  0  1.019353  0  0  0.080124  0  1.017831  0  0  0.105252  0.076245  0  1.020557  0
H  H15  1  0.79167999  0.93912118  0.91219736  1  0  0.070209  0  0.952231  0  0  0.077923  0  1.019314  0  0  0.080139  0  1.01779  0  0  0.105267  0.076262  0  1.020519  0
H  H16  1  0.48573036  0.77714695  0.48941205  1  0  0.064785  0  0.966137  0  0  0.071812  0  1.038357  0  0  0.075171  0  1.034783  0  0  0.099216  0.069361  0  1.041079  0
H  H17  1  0.48572903  0.72285318  0.01058686  1  0  0.064796  0  0.966125  0  0  0.071808  0  1.038351  0  0  0.075167  0  1.034777  0  0  0.099207  0.069352  0  1.041087  0
H  H18  1  0.51427062  0.22285313  0.51058809  1  0  0.064786  0  0.966064  0  0  0.071773  0  1.038309  0  0  0.075133  0  1.034736  0  0  0.099191  0.069316  0  1.041041  0
H  H19  1  0.51427683  0.27714765  0.98941218  1  0  0.064811  0  0.966088  0  0  0.071804  0  1.038334  0  0  0.075164  0  1.034761  0  0  0.099207  0.069347  0  1.04106  0
H  H20  1  0.21519591  0.92775749  0.35205675  1  0  0.096625  0  0.957223  0  0  0.107491  0  1.019511  0  0  0.109824  0  1.019306  0  0  0.101572  0.105751  0  1.019794  0
H  H21  1  0.21519404  0.57224323  0.14794580  1  0  0.096677  0  0.957205  0  0  0.107566  0  1.019472  0  0  0.109912  0  1.019252  0  0  0.101591  0.105826  0  1.019762  0
H  H22  1  0.78480019  0.07224332  0.64794482  1  0  0.096702  0  0.95721  0  0  0.107555  0  1.019501  0  0  0.109888  0  1.019297  0  0  0.101587  0.105816  0  1.019788  0
H  H23  1  0.78480694  0.42775686  0.85205371  1  0  0.096616  0  0.957262  0  0  0.107496  0  1.019534  0  0  0.109841  0  1.019316  0  0  0.101572  0.105755  0  1.01982  0
H  H24  1  0.64800582  0.89897902  0.57343470  1  0  0.097857  0  0.969643  0  0  0.106355  0  1.036506  0  0  0.108712  0  1.035447  0  0  0.097236  0.1046  0  1.037442  0
H  H25  1  0.64801565  0.60102106  0.92656477  1  0  0.097762  0  0.96974  0  0  0.106259  0  1.036603  0  0  0.108616  0  1.035546  0  0  0.097193  0.104507  0  1.037546  0
H  H26  1  0.35198540  0.10102179  0.42656750  1  0  0.097791  0  0.969739  0  0  0.106284  0  1.036588  0  0  0.108645  0  1.03552  0  0  0.097214  0.104532  0  1.037524  0
H  H27  1  0.35198533  0.39897903  0.07343411  1  0  0.097728  0  0.969762  0  0  0.106204  0  1.036651  0  0  0.108563  0  1.035587  0  0  0.097187  0.104452  0  1.037592  0
Pb  Pb28  1  0.41183995  0.25000043  0.25000021  1  0  1.07082  0  1.737098  0  0  0.882182  0  2.187457  0  0  0.938625  0  2.147536  0  0  0.464219  0.842453  0  2.214392  0
Pb  Pb29  1  0.58816347  0.74999966  0.74999930  1  0  1.07085  0  1.737033  0  0  0.882223  0  2.187366  0  0  0.938661  0  2.147447  0  0  0.464251  0.842493  0  2.214304  0
C  C30  1  0.64684878  0.50661126  0.26305630  1  0  0.11947  0  3.728707  0  0  0.09064  0  3.983055  0  0  0.097181  0  4.001939  0  0  0.042084  0.086421  0  3.970151  0
C  C31  1  0.64684896  0.99338820  0.23694326  1  0  0.119522  0  3.728589  0  0  0.09068  0  3.982934  0  0  0.097224  0  4.001817  0  0  0.042105  0.086458  0  3.970011  0
C  C32  1  0.35314488  0.49339030  0.73694605  1  0  0.119516  0  3.728484  0  0  0.090672  0  3.982822  0  0  0.09722  0  4.001705  0  0  0.042111  0.086448  0  3.969913  0
C  C33  1  0.35314958  0.00661188  0.76305625  1  0  0.119479  0  3.728415  0  0  0.090652  0  3.982747  0  0  0.097195  0  4.001632  0  0  0.042113  0.086428  0  3.969838  0
C  C34  1  0.70380576  0.60657484  0.30009972  1  0  -0.137149  0  3.664588  0  0  -0.154771  0  3.907743  0  0  -0.160765  0  3.926812  0  0  -0.074093  -0.15088  0  3.894953  0
C  C35  1  0.70380764  0.89342539  0.19990007  1  0  -0.137206  0  3.664644  0  0  -0.1548  0  3.907835  0  0  -0.160789  0  3.926887  0  0  -0.074122  -0.150904  0  3.895033  0
C  C36  1  0.29619034  0.39342525  0.69989979  1  0  -0.137235  0  3.664686  0  0  -0.154809  0  3.907877  0  0  -0.160794  0  3.926923  0  0  -0.074148  -0.150916  0  3.895075  0
C  C37  1  0.29619578  0.10657542  0.80010212  1  0  -0.13718  0  3.664647  0  0  -0.154779  0  3.907833  0  0  -0.160769  0  3.926882  0  0  -0.074123  -0.150896  0  3.895043  0
C  C38  1  0.57814024  0.64879588  0.38344515  1  0  0.096677  0  3.769489  0  0  0.112458  0  3.999165  0  0  0.115362  0  4.020366  0  0  0.010834  0.110657  0  3.984733  0
C  C39  1  0.57815052  0.85120427  0.11655638  1  0  0.096706  0  3.769368  0  0  0.112462  0  3.999056  0  0  0.115372  0  4.02026  0  0  0.010871  0.110659  0  3.984623  0
C  C40  1  0.42185098  0.35120565  0.61655972  1  0  0.096702  0  3.769306  0  0  0.112523  0  3.998899  0  0  0.115431  0  4.020104  0  0  0.010958  0.110726  0  3.984457  0
C  C41  1  0.42185046  0.14879433  0.88344280  1  0  0.096709  0  3.769408  0  0  0.112446  0  3.999115  0  0  0.115355  0  4.020324  0  0  0.010868  0.110652  0  3.98467  0
C  C42  1  0.39397537  0.58790056  0.42425882  1  0  -0.152859  0  3.696768  0  0  -0.16938  0  3.93852  0  0  -0.177229  0  3.960739  0  0  -0.08185  -0.164239  0  3.923581  0
C  C43  1  0.39397291  0.91209806  0.07573840  1  0  -0.152811  0  3.696615  0  0  -0.169381  0  3.938333  0  0  -0.177231  0  3.960561  0  0  -0.081882  -0.164249  0  3.923411  0
C  C44  1  0.60603049  0.41209806  0.57573721  1  0  -0.152766  0  3.69643  0  0  -0.169382  0  3.938141  0  0  -0.177228  0  3.960373  0  0  -0.081881  -0.164248  0  3.923215  0
C  C45  1  0.60603295  0.08790275  0.92426379  1  0  -0.152827  0  3.69651  0  0  -0.169393  0  3.93824  0  0  -0.177253  0  3.96046  0  0  -0.081883  -0.164261  0  3.923311  0
C  C46  1  0.34928627  0.48877925  0.38228832  1  0  0.118701  0  3.754549  0  0  0.091462  0  4.004858  0  0  0.097716  0  4.025245  0  0  0.040863  0.08744  0  3.990906  0
C  C47  1  0.34928873  0.01121936  0.11771154  1  0  0.118649  0  3.75459  0  0  0.091394  0  4.004937  0  0  0.097647  0  4.025328  0  0  0.040799  0.087376  0  3.990974  0
C  C48  1  0.65071471  0.51122230  0.61771467  1  0  0.118537  0  3.754624  0  0  0.091303  0  4.004961  0  0  0.097556  0  4.025355  0  0  0.040767  0.087285  0  3.991003  0
C  C49  1  0.65071226  0.98877850  0.88228811  1  0  0.11863  0  3.754583  0  0  0.091377  0  4.004916  0  0  0.09763  0  4.025311  0  0  0.040815  0.087351  0  3.990965  0
C  C50  1  0.63589530  0.75152379  0.43069564  1  0  0.126549  0  3.669191  0  0  0.093112  0  3.931373  0  0  0.101267  0  3.941625  0  0  0.074033  0.087655  0  3.924306  0
C  C51  1  0.63590225  0.74847491  0.06930437  1  0  0.126528  0  3.669375  0  0  0.093139  0  3.931497  0  0  0.101291  0  3.941747  0  0  0.074058  0.087687  0  3.92444  0
C  C52  1  0.36408616  0.24847256  0.56930558  1  0  0.126575  0  3.669399  0  0  0.093201  0  3.931504  0  0  0.101351  0  3.941761  0  0  0.074093  0.087748  0  3.92444  0
C  C53  1  0.36409873  0.25152591  0.93069530  1  0  0.126455  0  3.669354  0  0  0.093097  0  3.931479  0  0  0.101247  0  3.941731  0  0  0.074052  0.08765  0  3.924401  0
C  C54  1  0.91795271  0.90176427  0.45576381  1  0  0.199784  0  3.821598  0  0  0.205106  0  4.066913  0  0  0.207403  0  4.092382  0  0  0.088662  0.203543  0  4.049594  0
C  C55  1  0.91794683  0.59823532  0.04423543  1  0  0.199633  0  3.821468  0  0  0.204998  0  4.066739  0  0  0.207293  0  4.09221  0  0  0.088555  0.203432  0  4.049435  0
C  C56  1  0.08204339  0.09823580  0.54423822  1  0  0.200064  0  3.821417  0  0  0.205287  0  4.06683  0  0  0.207586  0  4.092296  0  0  0.088748  0.203717  0  4.049526  0
C  C57  1  0.08205659  0.40176479  0.95576093  1  0  0.199846  0  3.821544  0  0  0.205124  0  4.066902  0  0  0.207421  0  4.09237  0  0  0.088589  0.203558  0  4.049589  0
C  C58  1  0.12004018  0.96079180  0.41687480  1  0  -0.12468  0  3.729333  0  0  -0.142372  0  3.974526  0  0  -0.146644  0  3.997899  0  0  -0.086471  -0.139322  0  3.958635  0
C  C59  1  0.12005434  0.53920742  0.08312353  1  0  -0.124755  0  3.729336  0  0  -0.142475  0  3.974519  0  0  -0.146757  0  3.997886  0  0  -0.086442  -0.139426  0  3.958643  0
C  C60  1  0.87995592  0.03921049  0.58312772  1  0  -0.124877  0  3.729453  0  0  -0.142508  0  3.974643  0  0  -0.146782  0  3.998015  0  0  -0.086504  -0.139459  0  3.958765  0
C  C61  1  0.87995153  0.46079194  0.91687393  1  0  -0.12473  0  3.72955  0  0  -0.142419  0  3.974753  0  0  -0.146702  0  3.998122  0  0  -0.086401  -0.139362  0  3.95886  0
C  C62  1  0.80107998  0.94262377  0.54069057  1  0  -0.131723  0  3.736444  0  0  -0.150335  0  3.981773  0  0  -0.153991  0  4.005543  0  0  -0.090424  -0.147809  0  3.965709  0
C  C63  1  0.80109270  0.55737490  0.95930749  1  0  -0.131562  0  3.736571  0  0  -0.150181  0  3.981891  0  0  -0.153838  0  4.005666  0  0  -0.090366  -0.147661  0  3.96584  0
C  C64  1  0.19891612  0.05737851  0.45931258  1  0  -0.131898  0  3.736474  0  0  -0.150468  0  3.981873  0  0  -0.154124  0  4.005645  0  0  -0.090525  -0.147945  0  3.965816  0
C  C65  1  0.19891561  0.44262372  0.04068855  1  0  -0.131615  0  3.736478  0  0  -0.150199  0  3.981859  0  0  -0.153856  0  4.005633  0  0  -0.090403  -0.147679  0  3.965809  0
N  N66  1  0.47439541  0.44817082  0.30323152  1  0  -0.352105  0  3.225089  0  0  -0.279344  0  3.480712  0  0  -0.299317  0  3.503318  0  0  -0.309066  -0.265654  0  3.46506  0
N  N67  1  0.47438940  0.05182933  0.19676755  1  0  -0.35206  0  3.225018  0  0  -0.279284  0  3.480633  0  0  -0.299261  0  3.503247  0  0  -0.309016  -0.26559  0  3.464959  0
N  N68  1  0.52561045  0.55182779  0.69676578  1  0  -0.351978  0  3.225017  0  0  -0.279216  0  3.48065  0  0  -0.299183  0  3.503238  0  0  -0.309027  -0.265526  0  3.464992  0
N  N69  1  0.52561403  0.94817222  0.80323481  1  0  -0.352053  0  3.224957  0  0  -0.279299  0  3.480594  0  0  -0.299269  0  3.503189  0  0  -0.309047  -0.265601  0  3.464928  0
N  N70  1  0.85355485  0.80571270  0.40583275  1  0  -0.332264  0  3.07727  0  0  -0.297392  0  3.349396  0  0  -0.308687  0  3.364326  0  0  -0.306426  -0.289488  0  3.338974  0
N  N71  1  0.85356210  0.69428835  0.09416611  1  0  -0.332286  0  3.077443  0  0  -0.297444  0  3.349534  0  0  -0.308737  0  3.364464  0  0  -0.306452  -0.289538  0  3.339116  0
N  N72  1  0.14643881  0.19428887  0.59416709  1  0  -0.332377  0  3.077605  0  0  -0.297502  0  3.349745  0  0  -0.308798  0  3.364677  0  0  -0.306503  -0.289593  0  3.339321  0
N  N73  1  0.14644621  0.30571247  0.90583482  1  0  -0.332207  0  3.077524  0  0  -0.29734  0  3.349623  0  0  -0.308635  0  3.364555  0  0  -0.306393  -0.289438  0  3.339195  0
Cl  Cl74  1  0.89823067  0.24680220  0.37682284  1  0  -0.592984  0  0.893039  0  0  -0.516978  0  1.154601  0  0  -0.539096  0  1.137967  0  0  -0.253941  -0.500999  0  1.166069  0
Cl  Cl75  1  0.89822626  0.25320110  0.12317862  1  0  -0.592992  0  0.893056  0  0  -0.516973  0  1.154601  0  0  -0.539094  0  1.137971  0  0  -0.253943  -0.500998  0  1.16607  0
Cl  Cl76  1  0.10177519  0.75320011  0.62317716  1  0  -0.592996  0  0.893034  0  0  -0.516983  0  1.154586  0  0  -0.539101  0  1.137957  0  0  -0.253946  -0.501005  0  1.166051  0
Cl  Cl77  1  0.10177960  0.74680121  0.87682138  1  0  -0.59301  0  0.893019  0  0  -0.516995  0  1.154568  0  0  -0.539113  0  1.137935  0  0  -0.253957  -0.501015  0  1.16604  0
