# generated using pymatgen
data_Zn3P2H8(C7O5)2
_symmetry_space_group_name_H-M   'P 1'
_cell_length_a   8.71058208
_cell_length_b   10.31139041
_cell_length_c   18.63400000
_cell_angle_alpha   90.00000000
_cell_angle_beta   90.00000000
_cell_angle_gamma   90.00000000
_symmetry_Int_Tables_number   1
_chemical_formula_structural   Zn3P2H8(C7O5)2
_chemical_formula_sum   'Zn12 P8 H32 C56 O40'
_cell_volume   1673.67257345
_cell_formula_units_Z   4
loop_
 _symmetry_equiv_pos_site_id
 _symmetry_equiv_pos_as_xyz
  1  'x, y, z'
loop_
 _atom_site_type_symbol
 _atom_site_label
 _atom_site_symmetry_multiplicity
 _atom_site_fract_x
 _atom_site_fract_y
 _atom_site_fract_z
 _atom_site_occupancy
 _atom_site_hle17_bader_spin_density
 _atom_site_hle17_ddec_charge
 _atom_site_hle17_ddec_spin_density
 _atom_site_hle17_ddec_sum_bond_order
 _atom_site_hle17_magmom
 _atom_site_hse06_10hf_bader_spin_density
 _atom_site_hse06_10hf_ddec_charge
 _atom_site_hse06_10hf_ddec_spin_density
 _atom_site_hse06_10hf_ddec_sum_bond_order
 _atom_site_hse06_10hf_magmom
 _atom_site_hse06_bader_spin_density
 _atom_site_hse06_ddec_charge
 _atom_site_hse06_ddec_spin_density
 _atom_site_hse06_ddec_sum_bond_order
 _atom_site_hse06_magmom
 _atom_site_pbe_bader_charge
 _atom_site_pbe_bader_spin_density
 _atom_site_pbe_cm5_charge
 _atom_site_pbe_ddec_charge
 _atom_site_pbe_ddec_spin_density
 _atom_site_pbe_ddec_sum_bond_order
 _atom_site_pbe_magmom
Zn  Zn0  1  0.67876979  0.12223958  0.39951648  1  0  1.241742  0  1.726924  0  0  1.083755  0  2.18874  0  0  1.130507  0  2.123611  0  1.379053  0  0.730925  1.050396  0  2.234212  0
Zn  Zn1  1  0.32122997  0.87776232  0.89951594  1  0  1.241779  0  1.726896  0  0  1.083778  0  2.18871  0  0  1.130541  0  2.123571  0  1.379035  0  0.730933  1.050421  0  2.234179  0
Zn  Zn2  1  0.32122997  0.62223713  0.39951594  1  0  1.241757  0  1.726972  0  0  1.08378  0  2.188762  0  0  1.130512  0  2.123679  0  1.379028  0  0.730915  1.050425  0  2.234232  0
Zn  Zn3  1  0.67877324  0.37775895  0.89951701  1  0  1.241819  0  1.726851  0  0  1.083839  0  2.188642  0  0  1.130594  0  2.123512  0  1.37901  0  0.73095  1.050483  0  2.234112  0
Zn  Zn4  1  0.85730551  0.86281090  0.42288881  1  0  1.238415  0  1.797808  0  0  1.075711  0  2.280978  0  0  1.120122  0  2.215517  0  1.347616  0  0.723989  1.043738  0  2.326766  0
Zn  Zn5  1  0.14269540  0.13719100  0.92288720  1  0  1.238479  0  1.797703  0  0  1.075765  0  2.280855  0  0  1.120185  0  2.215397  0  1.347636  0  0.724029  1.043792  0  2.326643  0
Zn  Zn6  1  0.14269540  0.36280849  0.42288666  1  0  1.238453  0  1.797673  0  0  1.075759  0  2.280816  0  0  1.12017  0  2.215358  0  1.347718  0  0.724046  1.043789  0  2.326604  0
Zn  Zn7  1  0.85730551  0.63719147  0.92288881  1  0  1.238439  0  1.797802  0  0  1.075727  0  2.280976  0  0  1.120142  0  2.215515  0  1.347619  0  0.723993  1.043756  0  2.326767  0
Zn  Zn8  1  0.69334861  0.02783233  0.94023881  1  0  1.301847  0  1.608714  0  0  1.134569  0  2.076177  0  0  1.181228  0  2.011781  0  1.375397  0  0.729961  1.100815  0  2.121378  0
Zn  Zn9  1  0.30665574  0.97216666  0.44024042  1  0  1.301797  0  1.608775  0  0  1.134514  0  2.076234  0  0  1.181173  0  2.011842  0  1.375337  0  0.729936  1.100754  0  2.121432  0
Zn  Zn10  1  0.30665344  0.52783279  0.94023988  1  0  1.30183  0  1.608724  0  0  1.134553  0  2.076182  0  0  1.181214  0  2.011788  0  1.375357  0  0.729942  1.100797  0  2.121382  0
Zn  Zn11  1  0.69334746  0.47216620  0.44024096  1  0  1.3018  0  1.608792  0  0  1.134529  0  2.076267  0  0  1.181185  0  2.011868  0  1.375324  0  0.729934  1.100772  0  2.121464  0
P  P12  1  0.98793513  0.37437046  0.99440485  1  0  1.515279  0  4.83852  0  0  1.356724  0  5.318298  0  0  1.408346  0  5.27982  0  3.383803  0  0.363884  1.320239  0  5.344491  0
P  P13  1  0.01206464  0.62562950  0.49440431  1  0  1.515166  0  4.838765  0  0  1.356597  0  5.318562  0  0  1.408215  0  5.280082  0  3.383775  0  0.363844  1.320112  0  5.344751  0
P  P14  1  0.01206578  0.87437093  0.99440592  1  0  1.515168  0  4.838618  0  0  1.356569  0  5.318415  0  0  1.408208  0  5.279943  0  3.383732  0  0.363833  1.320085  0  5.344607  0
P  P15  1  0.98793283  0.12563291  0.49440324  1  0  1.515253  0  4.838637  0  0  1.356765  0  5.318378  0  0  1.408375  0  5.279899  0  3.383842  0  0.363994  1.320276  0  5.344572  0
P  P16  1  0.53601240  0.75301678  0.98922400  1  0  1.471125  0  4.870566  0  0  1.313343  0  5.34801  0  0  1.363956  0  5.311348  0  3.391246  0  0.34345  1.277871  0  5.372674  0
P  P17  1  0.46398392  0.24698415  0.48922454  1  0  1.471046  0  4.870559  0  0  1.313248  0  5.348022  0  0  1.363864  0  5.311352  0  3.391106  0  0.343392  1.277777  0  5.372683  0
P  P18  1  0.46398736  0.25301534  0.98922400  1  0  1.471107  0  4.870537  0  0  1.313325  0  5.347979  0  0  1.363946  0  5.311312  0  3.391169  0  0.343454  1.277855  0  5.372641  0
P  P19  1  0.53601240  0.74698462  0.48922400  1  0  1.471019  0  4.870755  0  0  1.313228  0  5.348206  0  0  1.363846  0  5.311542  0  3.391679  0  0.343428  1.277757  0  5.372868  0
H  H20  1  0.49745240  0.02646685  0.20685199  1  0  0.102859  0  0.950204  0  0  0.111591  0  1.013754  0  0  0.114564  0  1.012696  0  0.105178  0  0.105843  0.109415  0  1.014689  0
H  H21  1  0.50255080  0.97353117  0.70685145  1  0  0.102885  0  0.950151  0  0  0.111614  0  1.013715  0  0  0.114591  0  1.012645  0  0.105185  0  0.105844  0.109424  0  1.014667  0
H  H22  1  0.50255310  0.52647022  0.20685092  1  0  0.102891  0  0.950146  0  0  0.111622  0  1.013692  0  0  0.114593  0  1.012636  0  0.105175  0  0.105844  0.109419  0  1.014657  0
H  H23  1  0.49745240  0.47353168  0.70685306  1  0  0.102918  0  0.95014  0  0  0.11166  0  1.013686  0  0  0.114635  0  1.012621  0  0.105203  0  0.105861  0.109471  0  1.014636  0
H  H24  1  0.42918142  0.96570100  0.08108404  1  0  0.09296  0  0.954719  0  0  0.103327  0  1.018114  0  0  0.105625  0  1.017866  0  0.086632  0  0.102762  0.101544  0  1.01862  0
H  H25  1  0.57081719  0.03429702  0.58108297  1  0  0.092887  0  0.954712  0  0  0.103249  0  1.018132  0  0  0.105547  0  1.017886  0  0.086633  0  0.102723  0.101465  0  1.018638  0
H  H26  1  0.57081949  0.46570150  0.08108243  1  0  0.092892  0  0.954809  0  0  0.10328  0  1.018188  0  0  0.105578  0  1.017942  0  0.08659  0  0.102751  0.101496  0  1.018693  0
H  H27  1  0.42918027  0.53429749  0.58108458  1  0  0.092895  0  0.954737  0  0  0.103234  0  1.018173  0  0  0.10553  0  1.01793  0  0.08663  0  0.102755  0.101452  0  1.018679  0
H  H28  1  0.73548242  0.63774329  0.09410003  1  0  0.091121  0  0.969726  0  0  0.100973  0  1.033833  0  0  0.103205  0  1.033875  0  0.093616  0  0.102396  0.09933  0  1.034044  0
H  H29  1  0.26451045  0.36225183  0.59409950  1  0  0.091086  0  0.969756  0  0  0.10095  0  1.033845  0  0  0.103182  0  1.033889  0  0.0936  0  0.102387  0.099309  0  1.034052  0
H  H30  1  0.26451734  0.13774379  0.09410057  1  0  0.091105  0  0.969761  0  0  0.100962  0  1.033864  0  0  0.103197  0  1.033907  0  0.093601  0  0.102405  0.09932  0  1.034074  0
H  H31  1  0.73548127  0.86225617  0.59410057  1  0  0.09109  0  0.969776  0  0  0.100951  0  1.03388  0  0  0.103183  0  1.033921  0  0.093548  0  0.102402  0.099309  0  1.034088  0
H  H32  1  0.80386591  0.70077455  0.21945261  1  0  0.100636  0  0.969393  0  0  0.108376  0  1.034777  0  0  0.111423  0  1.033136  0  0.113687  0  0.105151  0.10615  0  1.036071  0
H  H33  1  0.19613270  0.29922250  0.71945476  1  0  0.100676  0  0.969405  0  0  0.108414  0  1.034772  0  0  0.111458  0  1.033137  0  0.113673  0  0.105177  0.106189  0  1.036064  0
H  H34  1  0.19613729  0.20077991  0.21945422  1  0  0.100598  0  0.969309  0  0  0.108308  0  1.034733  0  0  0.111351  0  1.0331  0  0.113759  0  0.105144  0.106084  0  1.036024  0
H  H35  1  0.80386591  0.79922490  0.71945208  1  0  0.100644  0  0.96943  0  0  0.108386  0  1.034804  0  0  0.111433  0  1.033164  0  0.113675  0  0.105143  0.10616  0  1.036099  0
H  H36  1  0.72456007  0.18074478  0.20264409  1  0  0.102121  0  0.954826  0  0  0.111136  0  1.01723  0  0  0.113938  0  1.016478  0  0.092294  0  0.104863  0.109034  0  1.017996  0
H  H37  1  0.27543969  0.81925227  0.70264248  1  0  0.10217  0  0.954779  0  0  0.11119  0  1.017185  0  0  0.113988  0  1.016438  0  0.092351  0  0.104889  0.109088  0  1.017951  0
H  H38  1  0.27543969  0.68074816  0.20264463  1  0  0.102163  0  0.954777  0  0  0.111147  0  1.017216  0  0  0.113961  0  1.016451  0  0.092225  0  0.104867  0.109044  0  1.017983  0
H  H39  1  0.72455893  0.31925471  0.70264355  1  0  0.102111  0  0.954809  0  0  0.111126  0  1.017224  0  0  0.113929  0  1.01647  0  0.092307  0  0.104862  0.109023  0  1.017989  0
H  H40  1  0.80498409  0.19062609  0.07413330  1  0  0.108577  0  0.965412  0  0  0.119138  0  1.024687  0  0  0.122266  0  1.022809  0  0.102577  0  0.105238  0.116761  0  1.026383  0
H  H41  1  0.19501567  0.80937096  0.57413223  1  0  0.108539  0  0.96545  0  0  0.119118  0  1.024712  0  0  0.122251  0  1.02282  0  0.102587  0  0.105241  0.116742  0  1.02641  0
H  H42  1  0.19501911  0.69062946  0.07413438  1  0  0.108454  0  0.965263  0  0  0.119023  0  1.024578  0  0  0.122161  0  1.022674  0  0.102637  0  0.105192  0.116647  0  1.026274  0
H  H43  1  0.80498524  0.30937729  0.57413223  1  0  0.108492  0  0.965509  0  0  0.119105  0  1.024724  0  0  0.122225  0  1.022869  0  0.102546  0  0.105223  0.116727  0  1.026423  0
H  H44  1  0.03870924  0.55057269  0.11526994  1  0  0.090795  0  0.984816  0  0  0.10128  0  1.047748  0  0  0.103376  0  1.047943  0  0.089187  0  0.101594  0.099573  0  1.048105  0
H  H45  1  0.96129167  0.44942436  0.61526994  1  0  0.090836  0  0.984817  0  0  0.101312  0  1.047767  0  0  0.103409  0  1.04796  0  0.089272  0  0.101582  0.099603  0  1.048129  0
H  H46  1  0.96128937  0.05057126  0.11527047  1  0  0.090846  0  0.984772  0  0  0.101326  0  1.047718  0  0  0.103423  0  1.04791  0  0.089375  0  0.101617  0.099618  0  1.048078  0
H  H47  1  0.03871383  0.94943258  0.61526779  1  0  0.090826  0  0.984751  0  0  0.101303  0  1.047701  0  0  0.103399  0  1.047896  0  0.089402  0  0.10162  0.099595  0  1.048061  0
H  H48  1  0.95492470  0.54152833  0.24334335  1  0  0.102566  0  0.938019  0  0  0.113666  0  0.996587  0  0  0.116838  0  0.994613  0  0.084568  0  0.10789  0.111296  0  0.998219  0
H  H49  1  0.04507735  0.45847066  0.74334281  1  0  0.102594  0  0.938121  0  0  0.113695  0  0.996667  0  0  0.116867  0  0.994691  0  0.08454  0  0.107903  0.111322  0  0.998296  0
H  H50  1  0.04507047  0.04152980  0.24334335  1  0  0.102593  0  0.938107  0  0  0.113689  0  0.996651  0  0  0.11686  0  0.994678  0  0.084505  0  0.107903  0.111319  0  0.998282  0
H  H51  1  0.95492929  0.95847210  0.74334120  1  0  0.102605  0  0.938043  0  0  0.113698  0  0.996607  0  0  0.116868  0  0.994635  0  0.084636  0  0.107906  0.11133  0  0.998239  0
C  C52  1  0.70058349  0.90431451  0.29397392  1  0  0.678697  0  3.867679  0  0  0.628259  0  4.151412  0  0  0.664185  0  4.142964  0  1.548342  0  0.225605  0.603882  0  4.156333  0
C  C53  1  0.29940823  0.09568933  0.79397499  1  0  0.678741  0  3.867787  0  0  0.628236  0  4.151584  0  0  0.664161  0  4.143137  0  1.547523  0  0.225652  0.60386  0  4.156504  0
C  C54  1  0.29941053  0.40430823  0.29397285  1  0  0.67858  0  3.867775  0  0  0.628067  0  4.151609  0  0  0.663995  0  4.143162  0  1.547811  0  0.225584  0.603704  0  4.156527  0
C  C55  1  0.70058808  0.59568494  0.79397446  1  0  0.678702  0  3.867677  0  0  0.628243  0  4.151427  0  0  0.664168  0  4.142982  0  1.548361  0  0.225613  0.603868  0  4.156345  0
C  C56  1  0.65440058  0.86627891  0.22010143  1  0  -0.05797  0  3.743262  0  0  -0.033155  0  3.97053  0  0  -0.041117  0  3.993258  0  -0.024008  0  -0.012144  -0.028022  0  3.955176  0
C  C57  1  0.34560147  0.13371718  0.72010143  1  0  -0.057974  0  3.743168  0  0  -0.033141  0  3.970442  0  0  -0.041104  0  3.993172  0  -0.023859  0  -0.012183  -0.028006  0  3.955083  0
C  C58  1  0.34560377  0.36628426  0.22010035  1  0  -0.058024  0  3.743166  0  0  -0.033238  0  3.970492  0  0  -0.041204  0  3.993222  0  -0.023977  0  -0.01221  -0.028149  0  3.955188  0
C  C59  1  0.65440173  0.63371861  0.72010089  1  0  -0.057871  0  3.743258  0  0  -0.033054  0  3.970532  0  0  -0.041015  0  3.993261  0  -0.024026  0  -0.012113  -0.027921  0  3.955173  0
C  C60  1  0.54824235  0.94131728  0.18164055  1  0  -0.059436  0  3.700801  0  0  -0.083752  0  3.94879  0  0  -0.08433  0  3.969666  0  -0.093591  0  -0.076657  -0.083181  0  3.934677  0
C  C61  1  0.45175856  0.05868559  0.68164055  1  0  -0.059495  0  3.701006  0  0  -0.083809  0  3.948965  0  0  -0.084387  0  3.969844  0  -0.093749  0  -0.076641  -0.083227  0  3.934854  0
C  C62  1  0.45175741  0.44131682  0.18163840  1  0  -0.059536  0  3.700956  0  0  -0.083811  0  3.948913  0  0  -0.084388  0  3.969788  0  -0.093578  0  -0.076664  -0.083206  0  3.934819  0
C  C63  1  0.54824580  0.55868508  0.68164001  1  0  -0.059629  0  3.700998  0  0  -0.083962  0  3.948981  0  0  -0.084541  0  3.969859  0  -0.093552  0  -0.076728  -0.083379  0  3.934869  0
C  C64  1  0.50983045  0.90678266  0.11176774  1  0  -0.036996  0  3.744433  0  0  -0.058011  0  3.989664  0  0  -0.059416  0  4.012447  0  0.071402  0  -0.078617  -0.057014  0  3.97431  0
C  C65  1  0.49017046  0.09321633  0.61176881  1  0  -0.036827  0  3.744423  0  0  -0.057844  0  3.989639  0  0  -0.059249  0  4.012422  0  0.071426  0  -0.078534  -0.056846  0  3.97428  0
C  C66  1  0.49017275  0.40678510  0.11176666  1  0  -0.036862  0  3.744422  0  0  -0.057908  0  3.989645  0  0  -0.059312  0  4.012425  0  0.071375  0  -0.078581  -0.056908  0  3.974282  0
C  C67  1  0.50983045  0.59321583  0.61176881  1  0  -0.036806  0  3.744423  0  0  -0.057791  0  3.989634  0  0  -0.059195  0  4.012417  0  0.071314  0  -0.078556  -0.056796  0  3.974277  0
C  C68  1  0.57580078  0.79632714  0.08050231  1  0  -0.236335  0  3.781459  0  0  -0.193622  0  4.014491  0  0  -0.202873  0  4.037498  0  -0.614133  0  -0.021445  -0.187329  0  3.998916  0
C  C69  1  0.42419553  0.20367185  0.58050231  1  0  -0.236377  0  3.781549  0  0  -0.193645  0  4.014557  0  0  -0.202897  0  4.037565  0  -0.614255  0  -0.021489  -0.187353  0  3.998982  0
C  C70  1  0.42420012  0.29632764  0.08050177  1  0  -0.236276  0  3.781372  0  0  -0.19356  0  4.01441  0  0  -0.20281  0  4.037416  0  -0.614149  0  -0.021421  -0.187268  0  3.998834  0
C  C71  1  0.57580078  0.70367038  0.58050177  1  0  -0.236296  0  3.781468  0  0  -0.193573  0  4.014478  0  0  -0.202825  0  4.037485  0  -0.614129  0  -0.021427  -0.187282  0  3.998904  0
C  C72  1  0.68160198  0.72155545  0.11923903  1  0  -0.040367  0  3.751756  0  0  -0.061853  0  3.996053  0  0  -0.063512  0  4.018853  0  -0.103696  0  -0.078275  -0.060762  0  3.980682  0
C  C73  1  0.31839434  0.27844063  0.61923903  1  0  -0.040327  0  3.751954  0  0  -0.061823  0  3.996247  0  0  -0.063483  0  4.01905  0  -0.103558  0  -0.07824  -0.060734  0  3.980877  0
C  C74  1  0.31840008  0.22155790  0.11923903  1  0  -0.040488  0  3.751954  0  0  -0.061992  0  3.996261  0  0  -0.063655  0  4.019062  0  -0.103673  0  -0.078346  -0.0609  0  3.980888  0
C  C75  1  0.68160198  0.77844303  0.61923849  1  0  -0.040339  0  3.751838  0  0  -0.061841  0  3.996143  0  0  -0.063499  0  4.018944  0  -0.103593  0  -0.078272  -0.06075  0  3.980772  0
C  C76  1  0.72092427  0.75662541  0.18873350  1  0  -0.054089  0  3.709196  0  0  -0.078028  0  3.954763  0  0  -0.078362  0  3.975537  0  0.0145  0  -0.076715  -0.077513  0  3.940619  0
C  C77  1  0.27906975  0.24337552  0.68873350  1  0  -0.054144  0  3.709107  0  0  -0.07808  0  3.954676  0  0  -0.078415  0  3.97545  0  0.01449  0  -0.076726  -0.077565  0  3.940533  0
C  C78  1  0.27907664  0.25662592  0.18873189  1  0  -0.053883  0  3.708872  0  0  -0.077767  0  3.95443  0  0  -0.078098  0  3.975203  0  0.014459  0  -0.076613  -0.077239  0  3.940297  0
C  C79  1  0.72092541  0.74337404  0.68873350  1  0  -0.054168  0  3.709209  0  0  -0.078104  0  3.954774  0  0  -0.07844  0  3.975549  0  0.014506  0  -0.07674  -0.077589  0  3.940631  0
C  C80  1  0.77380477  0.35570082  0.30504776  1  0  0.700443  0  3.867996  0  0  0.649499  0  4.154732  0  0  0.68568  0  4.145229  0  1.569625  0  0.231653  0.624768  0  4.160562  0
C  C81  1  0.22619613  0.64429429  0.80504830  1  0  0.700491  0  3.867926  0  0  0.649526  0  4.154707  0  0  0.685703  0  4.145208  0  1.569669  0  0.231662  0.624794  0  4.16054  0
C  C82  1  0.22619269  0.85571195  0.30505206  1  0  0.700488  0  3.867986  0  0  0.649497  0  4.154789  0  0  0.685679  0  4.14528  0  1.569899  0  0.231579  0.624769  0  4.16062  0
C  C83  1  0.77380707  0.14429577  0.80504669  1  0  0.700556  0  3.867935  0  0  0.649576  0  4.154725  0  0  0.685767  0  4.145209  0  1.569626  0  0.231659  0.624846  0  4.160555  0
C  C84  1  0.83239443  0.36176499  0.22995170  1  0  -0.064581  0  3.74965  0  0  -0.041132  0  3.979306  0  0  -0.048998  0  4.002243  0  -0.038844  0  -0.013654  -0.036098  0  3.963962  0
C  C85  1  0.16760533  0.63823304  0.72994955  1  0  -0.064468  0  3.749492  0  0  -0.041027  0  3.979182  0  0  -0.048892  0  4.002121  0  -0.038816  0  -0.013604  -0.035985  0  3.963823  0
C  C86  1  0.16760189  0.86176448  0.22995116  1  0  -0.064582  0  3.749572  0  0  -0.041155  0  3.97926  0  0  -0.049021  0  4.0022  0  -0.03915  0  -0.01365  -0.036123  0  3.963916  0
C  C87  1  0.83239558  0.13823645  0.72994955  1  0  -0.064611  0  3.74968  0  0  -0.041163  0  3.979364  0  0  -0.049032  0  4.002301  0  -0.038856  0  -0.013644  -0.036127  0  3.964017  0
C  C88  1  0.79334423  0.26132848  0.18279328  1  0  -0.062098  0  3.716939  0  0  -0.083945  0  3.962379  0  0  -0.084949  0  3.983566  0  -0.040008  0  -0.080347  -0.083001  0  3.948087  0
C  C89  1  0.20665553  0.73866663  0.68279167  1  0  -0.062089  0  3.717026  0  0  -0.083954  0  3.962494  0  0  -0.084957  0  3.983689  0  -0.040052  0  -0.08036  -0.083012  0  3.9482  0
C  C90  1  0.20665439  0.76133283  0.18279757  1  0  -0.062029  0  3.716892  0  0  -0.083841  0  3.962332  0  0  -0.084855  0  3.983512  0  -0.039787  0  -0.080292  -0.082899  0  3.948043  0
C  C91  1  0.79334652  0.23867101  0.68279328  1  0  -0.061961  0  3.716961  0  0  -0.083816  0  3.962418  0  0  -0.08482  0  3.983607  0  -0.039973  0  -0.080302  -0.082873  0  3.948126  0
C  C92  1  0.83866841  0.26650625  0.11143233  1  0  -0.048765  0  3.759131  0  0  -0.070114  0  4.004873  0  0  -0.07136  0  4.026543  0  -0.00956  0  -0.082871  -0.06927  0  3.990417  0
C  C93  1  0.16133135  0.73349177  0.61143125  1  0  -0.048762  0  3.75915  0  0  -0.070108  0  4.004899  0  0  -0.071358  0  4.026566  0  -0.009963  0  -0.082868  -0.069265  0  3.990444  0
C  C94  1  0.16133021  0.76650769  0.11143447  1  0  -0.048594  0  3.75868  0  0  -0.069972  0  4.004416  0  0  -0.071204  0  4.026101  0  -0.009602  0  -0.082813  -0.069128  0  3.98996  0
C  C95  1  0.83867185  0.23349615  0.61143179  1  0  -0.04878  0  3.759164  0  0  -0.070146  0  4.004921  0  0  -0.071401  0  4.026581  0  -0.009574  0  -0.082907  -0.069301  0  3.990463  0
C  C96  1  0.92574525  0.37146494  0.08653966  1  0  -0.233772  0  3.759065  0  0  -0.194131  0  3.99907  0  0  -0.203699  0  4.021856  0  -0.507018  0  -0.020516  -0.187589  0  3.983633  0
C  C97  1  0.07425107  0.62853211  0.58653859  1  0  -0.233762  0  3.759081  0  0  -0.194134  0  3.999113  0  0  -0.203683  0  4.021869  0  -0.506561  0  -0.020507  -0.187593  0  3.983675  0
C  C98  1  0.07424992  0.87146637  0.08654073  1  0  -0.233779  0  3.759173  0  0  -0.194072  0  3.999112  0  0  -0.203681  0  4.021953  0  -0.507046  0  -0.020471  -0.18753  0  3.983675  0
C  C99  1  0.92574755  0.12853941  0.58653805  1  0  -0.233789  0  3.759118  0  0  -0.194191  0  3.999181  0  0  -0.203737  0  4.021933  0  -0.507141  0  -0.020503  -0.187649  0  3.983744  0
C  C100  1  0.96814425  0.47055051  0.13420951  1  0  -0.045705  0  3.746294  0  0  -0.065973  0  3.991564  0  0  -0.067322  0  4.014274  0  -0.004357  0  -0.081349  -0.064951  0  3.976332  0
C  C101  1  0.03185206  0.52944654  0.63420790  1  0  -0.045718  0  3.746248  0  0  -0.065992  0  3.991535  0  0  -0.067347  0  4.014237  0  -0.004588  0  -0.081377  -0.064969  0  3.976304  0
C  C102  1  0.03185091  0.97055097  0.13420844  1  0  -0.045758  0  3.746152  0  0  -0.066059  0  3.99142  0  0  -0.067396  0  4.014136  0  -0.004669  0  -0.081438  -0.065038  0  3.976191  0
C  C103  1  0.96814770  0.02945287  0.63420736  1  0  -0.045496  0  3.746283  0  0  -0.065751  0  3.991552  0  0  -0.067104  0  4.014256  0  -0.004573  0  -0.081287  -0.064729  0  3.976319  0
C  C104  1  0.92135519  0.46590225  0.20559569  1  0  -0.05729  0  3.709467  0  0  -0.083143  0  3.962919  0  0  -0.083559  0  3.983298  0  -0.095592  0  -0.076588  -0.082734  0  3.949202  0
C  C105  1  0.07864457  0.53409480  0.70559676  1  0  -0.057428  0  3.70946  0  0  -0.083254  0  3.962889  0  0  -0.08367  0  3.983269  0  -0.095536  0  -0.076614  -0.082842  0  3.949165  0
C  C106  1  0.07864228  0.96590369  0.20559837  1  0  -0.057434  0  3.709414  0  0  -0.083248  0  3.962843  0  0  -0.083664  0  3.983218  0  -0.095438  0  -0.076631  -0.082837  0  3.949125  0
C  C107  1  0.92135863  0.03409821  0.70559408  1  0  -0.057532  0  3.709622  0  0  -0.083363  0  3.963072  0  0  -0.083781  0  3.983454  0  -0.095578  0  -0.076702  -0.082956  0  3.949357  0
O  O108  1  0.81957324  0.84804082  0.32019803  1  0  -0.650682  0  2.050749  0  0  -0.579108  0  2.32036  0  0  -0.607818  0  2.303608  0  -1.161467  0  -0.314059  -0.55898  0  2.331071  0
O  O109  1  0.18042537  0.15196205  0.82019534  1  0  -0.650697  0  2.051004  0  0  -0.57909  0  2.320619  0  0  -0.607797  0  2.303866  0  -1.160768  0  -0.314119  -0.558964  0  2.33133  0
O  O110  1  0.18042996  0.34803745  0.32019481  1  0  -0.650639  0  2.051048  0  0  -0.579021  0  2.32066  0  0  -0.607728  0  2.303909  0  -1.161013  0  -0.314122  -0.558894  0  2.331364  0
O  O111  1  0.81957439  0.65195863  0.82019749  1  0  -0.650668  0  2.050855  0  0  -0.579094  0  2.320477  0  0  -0.607804  0  2.303727  0  -1.161513  0  -0.314051  -0.558966  0  2.331188  0
O  O112  1  0.62019736  0.98966188  0.32556241  1  0  -0.642685  0  2.086283  0  0  -0.57605  0  2.356384  0  0  -0.603935  0  2.34017  0  -1.175594  0  -0.310616  -0.556693  0  2.366998  0
O  O113  1  0.37979781  0.01034293  0.82556456  1  0  -0.642753  0  2.086279  0  0  -0.576077  0  2.356392  0  0  -0.603965  0  2.340179  0  -1.175468  0  -0.310646  -0.556719  0  2.367003  0
O  O114  1  0.37980240  0.48966141  0.32556456  1  0  -0.642631  0  2.086158  0  0  -0.575959  0  2.356271  0  0  -0.603847  0  2.340066  0  -1.175495  0  -0.310561  -0.556597  0  2.366868  0
O  O115  1  0.62020195  0.51033661  0.82556295  1  0  -0.642748  0  2.086227  0  0  -0.576081  0  2.356298  0  0  -0.603967  0  2.340087  0  -1.175553  0  -0.310649  -0.556724  0  2.366907  0
O  O116  1  0.53317677  0.88398845  0.94553880  1  0  -0.894914  0  2.068204  0  0  -0.783786  0  2.382185  0  0  -0.814592  0  2.35062  0  -1.419936  0  -0.3668  -0.76174  0  2.403555  0
O  O117  1  0.46682414  0.11601345  0.44553880  1  0  -0.8949  0  2.068228  0  0  -0.783755  0  2.382198  0  0  -0.81457  0  2.350643  0  -1.419855  0  -0.366778  -0.761702  0  2.40355  0
O  O118  1  0.46682529  0.38398798  0.94553880  1  0  -0.894918  0  2.068172  0  0  -0.783799  0  2.382173  0  0  -0.814615  0  2.350615  0  -1.419878  0  -0.366799  -0.76174  0  2.40351  0
O  O119  1  0.53317562  0.61601101  0.44553880  1  0  -0.894906  0  2.068183  0  0  -0.783773  0  2.382154  0  0  -0.814578  0  2.350586  0  -1.419896  0  -0.36682  -0.761726  0  2.403518  0
O  O120  1  0.37103950  0.69798540  0.97994097  1  0  -0.891572  0  2.041414  0  0  -0.793312  0  2.348087  0  0  -0.823867  0  2.32033  0  -1.431057  0  -0.3638  -0.771129  0  2.366499  0
O  O121  1  0.62896026  0.30201650  0.47994311  1  0  -0.891559  0  2.041335  0  0  -0.79329  0  2.347995  0  0  -0.823837  0  2.320227  0  -1.430945  0  -0.363793  -0.771109  0  2.36641  0
O  O122  1  0.62896371  0.19798397  0.97994150  1  0  -0.891633  0  2.041326  0  0  -0.793381  0  2.347995  0  0  -0.823926  0  2.32022  0  -1.43099  0  -0.363865  -0.771203  0  2.366415  0
O  O123  1  0.37103835  0.80201308  0.47994150  1  0  -0.891544  0  2.041398  0  0  -0.793277  0  2.348063  0  0  -0.823817  0  2.320276  0  -1.431063  0  -0.363807  -0.771097  0  2.366477  0
O  O124  1  0.65487128  0.65505327  0.96601857  1  0  -0.875192  0  2.131198  0  0  -0.786377  0  2.439234  0  0  -0.814093  0  2.412156  0  -1.459627  0  -0.374866  -0.766677  0  2.45767  0
O  O125  1  0.34512849  0.34494766  0.46601803  1  0  -0.875113  0  2.131167  0  0  -0.786343  0  2.439272  0  0  -0.81404  0  2.412173  0  -1.459699  0  -0.374829  -0.766643  0  2.457707  0
O  O126  1  0.34513078  0.15505280  0.96601910  1  0  -0.875151  0  2.131238  0  0  -0.786337  0  2.439273  0  0  -0.814059  0  2.412198  0  -1.459634  0  -0.374837  -0.766638  0  2.457707  0
O  O127  1  0.65486898  0.84494619  0.46601964  1  0  -0.875143  0  2.131365  0  0  -0.786333  0  2.439412  0  0  -0.814052  0  2.412334  0  -1.460031  0  -0.374855  -0.766632  0  2.457844  0
O  O128  1  0.78365257  0.45774040  0.34373886  1  0  -0.652036  0  2.024779  0  0  -0.581641  0  2.295684  0  0  -0.609745  0  2.276577  0  -1.166715  0  -0.309431  -0.561961  0  2.308133  0
O  O129  1  0.21634949  0.54225956  0.84373725  1  0  -0.652068  0  2.024925  0  0  -0.581652  0  2.295829  0  0  -0.609752  0  2.276722  0  -1.16678  0  -0.309418  -0.561973  0  2.308282  0
O  O130  1  0.21635179  0.95773990  0.34373833  1  0  -0.651966  0  2.025456  0  0  -0.581512  0  2.296329  0  0  -0.609611  0  2.277215  0  -1.166909  0  -0.309321  -0.561837  0  2.308783  0
O  O131  1  0.78365142  0.04225618  0.84373725  1  0  -0.652115  0  2.024803  0  0  -0.581676  0  2.295691  0  0  -0.609782  0  2.276578  0  -1.166777  0  -0.309421  -0.561997  0  2.308144  0
O  O132  1  0.71384322  0.24889369  0.32385424  1  0  -0.67426  0  2.137571  0  0  -0.604123  0  2.416833  0  0  -0.632756  0  2.398797  0  -1.200055  0  -0.321966  -0.58411  0  2.428689  0
O  O133  1  0.28615768  0.75110627  0.82385424  1  0  -0.674335  0  2.137498  0  0  -0.604199  0  2.416791  0  0  -0.632833  0  2.398755  0  -1.199997  0  -0.321999  -0.584185  0  2.428645  0
O  O134  1  0.28615424  0.74889221  0.32385639  1  0  -0.674417  0  2.137223  0  0  -0.604276  0  2.416531  0  0  -0.632911  0  2.398496  0  -1.199938  0  -0.322025  -0.58425  0  2.42836  0
O  O135  1  0.71385011  0.25110678  0.82385424  1  0  -0.674353  0  2.137616  0  0  -0.60423  0  2.416938  0  0  -0.632867  0  2.398894  0  -1.19993  0  -0.322021  -0.584215  0  2.428792  0
O  O136  1  0.98603973  0.23363193  0.96821616  1  0  -0.866975  0  2.061896  0  0  -0.773733  0  2.371888  0  0  -0.802174  0  2.343501  0  -1.431557  0  -0.375804  -0.753217  0  2.391236  0
O  O137  1  0.01396118  0.76636900  0.46821616  1  0  -0.866933  0  2.061892  0  0  -0.77368  0  2.371891  0  0  -0.802117  0  2.343502  0  -1.431573  0  -0.375813  -0.753165  0  2.391237  0
O  O138  1  0.01396462  0.73362948  0.96821616  1  0  -0.86695  0  2.061743  0  0  -0.773706  0  2.371771  0  0  -0.802146  0  2.34338  0  -1.431488  0  -0.375801  -0.753191  0  2.391118  0
O  O139  1  0.98603399  0.26636951  0.46821241  1  0  -0.866912  0  2.061926  0  0  -0.773698  0  2.371929  0  0  -0.802131  0  2.343544  0  -1.431575  0  -0.375826  -0.753182  0  2.391276  0
O  O140  1  0.86372184  0.44860875  0.94843190  1  0  -0.911119  0  2.142829  0  0  -0.798376  0  2.471644  0  0  -0.829334  0  2.437267  0  -1.415501  0  -0.376818  -0.776019  0  2.495189  0
O  O141  1  0.13627907  0.55139218  0.44843083  1  0  -0.911092  0  2.142814  0  0  -0.798333  0  2.471608  0  0  -0.829301  0  2.437249  0  -1.415508  0  -0.376772  -0.775975  0  2.495146  0
O  O142  1  0.13628022  0.94860825  0.94843244  1  0  -0.911077  0  2.142803  0  0  -0.798304  0  2.471597  0  0  -0.82928  0  2.437237  0  -1.415473  0  -0.376776  -0.775939  0  2.495116  0
O  O143  1  0.86371610  0.05139171  0.44843297  1  0  -0.911085  0  2.142821  0  0  -0.798367  0  2.471646  0  0  -0.82932  0  2.437268  0  -1.415511  0  -0.376813  -0.775996  0  2.495155  0
O  O144  1  0.14073227  0.44505928  0.99362295  1  0  -0.882373  0  2.048586  0  0  -0.788016  0  2.351944  0  0  -0.817492  0  2.325687  0  -1.456434  0  -0.371858  -0.766872  0  2.369736  0
O  O145  1  0.85926864  0.55494068  0.49362134  1  0  -0.882348  0  2.048759  0  0  -0.787991  0  2.352124  0  0  -0.817467  0  2.325869  0  -1.456388  0  -0.371873  -0.766842  0  2.369902  0
O  O146  1  0.85927093  0.94505878  0.99362187  1  0  -0.882334  0  2.048681  0  0  -0.787981  0  2.352052  0  0  -0.817456  0  2.325791  0  -1.456408  0  -0.371863  -0.766831  0  2.369831  0
O  O147  1  0.14073112  0.05494215  0.49362080  1  0  -0.88235  0  2.048641  0  0  -0.788045  0  2.352019  0  0  -0.817523  0  2.325769  0  -1.456409  0  -0.371895  -0.766894  0  2.369809  0
