# generated using pymatgen
data_Ag2H6C9N3O4
_symmetry_space_group_name_H-M   'P 1'
_cell_length_a   6.74567488
_cell_length_b   10.36252210
_cell_length_c   16.06802957
_cell_angle_alpha   86.90652738
_cell_angle_beta   78.03761703
_cell_angle_gamma   79.31687162
_symmetry_Int_Tables_number   1
_chemical_formula_structural   Ag2H6C9N3O4
_chemical_formula_sum   'Ag8 H24 C36 N12 O16'
_cell_volume   1079.61322445
_cell_formula_units_Z   4
loop_
 _symmetry_equiv_pos_site_id
 _symmetry_equiv_pos_as_xyz
  1  'x, y, z'
loop_
 _atom_site_type_symbol
 _atom_site_label
 _atom_site_symmetry_multiplicity
 _atom_site_fract_x
 _atom_site_fract_y
 _atom_site_fract_z
 _atom_site_occupancy
 _atom_site_hle17_bader_spin_density
 _atom_site_hle17_ddec_charge
 _atom_site_hle17_ddec_spin_density
 _atom_site_hle17_ddec_sum_bond_order
 _atom_site_hle17_magmom
 _atom_site_hse06_10hf_bader_spin_density
 _atom_site_hse06_10hf_ddec_charge
 _atom_site_hse06_10hf_ddec_spin_density
 _atom_site_hse06_10hf_ddec_sum_bond_order
 _atom_site_hse06_10hf_magmom
 _atom_site_hse06_bader_spin_density
 _atom_site_hse06_ddec_charge
 _atom_site_hse06_ddec_spin_density
 _atom_site_hse06_ddec_sum_bond_order
 _atom_site_hse06_magmom
 _atom_site_pbe_bader_spin_density
 _atom_site_pbe_cm5_charge
 _atom_site_pbe_ddec_charge
 _atom_site_pbe_ddec_spin_density
 _atom_site_pbe_ddec_sum_bond_order
 _atom_site_pbe_magmom
Ag  Ag0  1  0.83357966  0.05811436  0.30875720  1  0  0.496377  0  1.546139  0  0  0.375729  0  2.028934  0  0  0.413287  0  1.95935  0  0  0.392155  0.350727  0  2.076195  0
Ag  Ag1  1  0.16642052  0.94188505  0.69124042  1  0  0.496369  0  1.546173  0  0  0.375711  0  2.02895  0  0  0.413266  0  1.959367  0  0  0.392164  0.350707  0  2.07621  0
Ag  Ag2  1  0.78687405  0.29369646  0.21721417  1  0  0.538708  0  1.532187  0  0  0.417798  0  2.015566  0  0  0.454096  0  1.948484  0  0  0.40917  0.393322  0  2.0614  0
Ag  Ag3  1  0.21312590  0.70630384  0.78278593  1  0  0.538742  0  1.532135  0  0  0.41783  0  2.015509  0  0  0.454129  0  1.948427  0  0  0.409184  0.393351  0  2.061339  0
Ag  Ag4  1  0.58837846  0.79721312  0.67262077  1  0  0.544308  0  1.51844  0  0  0.418205  0  1.980992  0  0  0.450738  0  1.923317  0  0  0.450862  0.395509  0  2.020832  0
Ag  Ag5  1  0.41161871  0.20278623  0.32737959  1  0  0.544334  0  1.518426  0  0  0.418256  0  1.980969  0  0  0.450788  0  1.923296  0  0  0.450878  0.395567  0  2.020808  0
Ag  Ag6  1  0.24540172  0.41522964  0.14385674  1  0  0.575535  0  1.350901  0  0  0.426648  0  1.786765  0  0  0.461869  0  1.738446  0  0  0.449807  0.401835  0  1.820415  0
Ag  Ag7  1  0.75460026  0.58476867  0.85614385  1  0  0.5755  0  1.350944  0  0  0.426607  0  1.786789  0  0  0.46183  0  1.738471  0  0  0.44978  0.401802  0  1.820419  0
H  H8  1  0.50091116  0.76084031  0.99316836  1  0  0.076911  0  0.967671  0  0  0.086061  0  1.032778  0  0  0.086738  0  1.032384  0  0  0.116155  0.085193  0  1.033688  0
H  H9  1  0.49909208  0.23915904  0.00683024  1  0  0.07686  0  0.967731  0  0  0.086023  0  1.03282  0  0  0.086701  0  1.032426  0  0  0.116148  0.085156  0  1.03373  0
H  H10  1  0.41444728  0.77227031  0.15433932  1  0  0.147442  0  0.932741  0  0  0.156819  0  0.986765  0  0  0.160565  0  0.986553  0  0  0.119947  0.154158  0  0.987086  0
H  H11  1  0.58555646  0.22773289  0.84566102  1  0  0.147476  0  0.932761  0  0  0.156857  0  0.986765  0  0  0.160603  0  0.986553  0  0  0.119983  0.154196  0  0.987085  0
H  H12  1  0.58045774  0.57864631  0.23413187  1  0  0.090952  0  0.911479  0  0  0.106515  0  0.962221  0  0  0.107976  0  0.960218  0  0  0.126435  0.105326  0  0.96378  0
H  H13  1  0.41954421  0.42135792  0.76586736  1  0  0.09092  0  0.911411  0  0  0.106486  0  0.962174  0  0  0.107947  0  0.960169  0  0  0.126415  0.105286  0  0.963743  0
H  H14  1  0.52868617  0.62432052  0.54250037  1  0  0.079229  0  0.944101  0  0  0.091945  0  1.004294  0  0  0.093096  0  1.002893  0  0  0.117323  0.091026  0  1.005277  0
H  H15  1  0.47130769  0.37567989  0.45749839  1  0  0.079234  0  0.94409  0  0  0.091944  0  1.004301  0  0  0.093095  0  1.002901  0  0  0.117311  0.091026  0  1.005286  0
H  H16  1  0.58736561  0.60549765  0.38264194  1  0  0.125937  0  0.962807  0  0  0.134294  0  1.024596  0  0  0.138106  0  1.023693  0  0  0.107867  0.131713  0  1.02515  0
H  H17  1  0.41262876  0.39450078  0.61735744  1  0  0.125964  0  0.962847  0  0  0.134353  0  1.024592  0  0  0.138165  0  1.02369  0  0  0.107881  0.131774  0  1.025137  0
H  H18  1  0.72874331  0.79227346  0.29439436  1  0  0.099233  0  0.923319  0  0  0.111307  0  0.978511  0  0  0.113684  0  0.974927  0  0  0.125486  0.109419  0  0.981143  0
H  H19  1  0.27125082  0.20772591  0.70560627  1  0  0.099217  0  0.923303  0  0  0.111278  0  0.978521  0  0  0.113656  0  0.974936  0  0  0.125476  0.109389  0  0.981153  0
H  H20  1  0.19521643  0.67264378  0.43387800  1  0  0.103599  0  0.949665  0  0  0.114678  0  1.010703  0  0  0.11791  0  1.009705  0  0  0.10315  0.112416  0  1.011454  0
H  H21  1  0.80477770  0.32735557  0.56612325  1  0  0.103616  0  0.949552  0  0  0.114671  0  1.010632  0  0  0.117903  0  1.009633  0  0  0.103165  0.112404  0  1.011382  0
H  H22  1  0.84731189  0.97403603  0.03470656  1  0  0.112568  0  0.944682  0  0  0.122874  0  1.00466  0  0  0.126269  0  1.002825  0  0  0.106122  0.120329  0  1.006303  0
H  H23  1  0.15268804  0.02597013  0.96529404  1  0  0.112543  0  0.944675  0  0  0.122835  0  1.004682  0  0  0.126231  0  1.002848  0  0  0.106069  0.120289  0  1.006324  0
H  H24  1  0.93257964  0.28605913  0.03368674  1  0  0.364826  0  0.903659  0  0  0.342282  0  0.970279  0  0  0.351413  0  0.962476  0  0  0.301838  0.335676  0  0.975977  0
H  H25  1  0.06742031  0.71394115  0.96631399  1  0  0.364799  0  0.903668  0  0  0.342256  0  0.970295  0  0  0.351387  0  0.962492  0  0  0.301833  0.335653  0  0.975987  0
H  H26  1  0.89486842  0.36248962  0.93498263  1  0  0.332248  0  0.875569  0  0  0.320281  0  0.931776  0  0  0.327592  0  0.925291  0  0  0.312205  0.314952  0  0.936659  0
H  H27  1  0.10513205  0.63750870  0.06501809  1  0  0.332239  0  0.875548  0  0  0.320261  0  0.93178  0  0  0.327571  0  0.925295  0  0  0.312192  0.314933  0  0.936662  0
H  H28  1  0.81814747  0.06910184  0.48369749  1  0  0.352666  0  0.901276  0  0  0.333312  0  0.966466  0  0  0.340888  0  0.960452  0  0  0.303348  0.327873  0  0.970827  0
H  H29  1  0.18185172  0.93089555  0.51630212  1  0  0.352617  0  0.901325  0  0  0.333263  0  0.966523  0  0  0.340838  0  0.96051  0  0  0.303325  0.327824  0  0.970882  0
H  H30  1  0.75770117  0.99379636  0.58412864  1  0  0.338692  0  0.867316  0  0  0.327975  0  0.921909  0  0  0.335143  0  0.91512  0  0  0.315866  0.322673  0  0.927125  0
H  H31  1  0.24230158  0.00619903  0.41587133  1  0  0.338685  0  0.867318  0  0  0.327972  0  0.921915  0  0  0.335141  0  0.915125  0  0  0.315881  0.322669  0  0.927131  0
C  C32  1  0.75931889  0.47346343  0.03909884  1  0  0.615806  0  3.830106  0  0  0.567198  0  4.099552  0  0  0.593834  0  4.110093  0  0  0.338176  0.54932  0  4.091822  0
C  C33  1  0.24067854  0.52653491  0.96090214  1  0  0.615756  0  3.830063  0  0  0.567241  0  4.099359  0  0  0.593877  0  4.109895  0  0  0.338206  0.549362  0  4.091633  0
C  C34  1  0.56215825  0.68176567  0.03312333  1  0  0.197143  0  3.69859  0  0  0.157001  0  3.951143  0  0  0.172408  0  3.967781  0  0  0.055428  0.146715  0  3.940104  0
C  C35  1  0.43784472  0.31823465  0.96687527  1  0  0.197193  0  3.69865  0  0  0.157029  0  3.951191  0  0  0.172433  0  3.967831  0  0  0.055454  0.146742  0  3.940154  0
C  C36  1  0.51548698  0.68850441  0.12121417  1  0  -0.211377  0  3.72708  0  0  -0.226492  0  3.988596  0  0  -0.240927  0  4.008061  0  0  -0.099325  -0.21701  0  3.975631  0
C  C37  1  0.48452080  0.31150071  0.87878577  1  0  -0.211451  0  3.7272  0  0  -0.226558  0  3.98874  0  0  -0.240994  0  4.008203  0  0  -0.099404  -0.217077  0  3.975773  0
C  C38  1  0.60491676  0.58137638  0.16489177  1  0  0.205937  0  3.709707  0  0  0.169856  0  3.965593  0  0  0.185885  0  3.977309  0  0  0.066158  0.159214  0  3.95755  0
C  C39  1  0.39508672  0.41862780  0.83510856  1  0  0.206039  0  3.709541  0  0  0.169914  0  3.965443  0  0  0.18594  0  3.97717  0  0  0.066193  0.159277  0  3.9574  0
C  C40  1  0.71375316  0.89446811  0.48558331  1  0  0.633939  0  3.802697  0  0  0.583412  0  4.071411  0  0  0.610593  0  4.081037  0  0  0.346112  0.565323  0  4.064304  0
C  C41  1  0.28624451  0.10552931  0.51441581  1  0  0.63395  0  3.802558  0  0  0.583373  0  4.071349  0  0  0.610554  0  4.080976  0  0  0.346075  0.565285  0  4.064241  0
C  C42  1  0.58950017  0.69878266  0.49937875  1  0  0.198431  0  3.710705  0  0  0.156402  0  3.966016  0  0  0.170988  0  3.984016  0  0  0.057527  0.146694  0  3.953886  0
C  C43  1  0.41050106  0.30121273  0.50062134  1  0  0.198552  0  3.710608  0  0  0.156522  0  3.965923  0  0  0.171109  0  3.983919  0  0  0.057557  0.146812  0  3.953796  0
C  C44  1  0.61741739  0.69014795  0.41188477  1  0  -0.220565  0  3.747475  0  0  -0.233582  0  4.009856  0  0  -0.249116  0  4.031458  0  0  -0.103951  -0.223753  0  3.995457  0
C  C45  1  0.38258358  0.30984845  0.58811471  1  0  -0.220729  0  3.747622  0  0  -0.233757  0  4.009998  0  0  -0.249289  0  4.031595  0  0  -0.103984  -0.223924  0  3.9956  0
C  C46  1  0.69983329  0.79025975  0.36363149  1  0  0.226551  0  3.670759  0  0  0.18591  0  3.925858  0  0  0.20289  0  3.937619  0  0  0.071106  0.174902  0  3.917758  0
C  C47  1  0.30016717  0.20973859  0.63636861  1  0  0.226731  0  3.670788  0  0  0.186065  0  3.925912  0  0  0.203047  0  3.937668  0  0  0.07117  0.175057  0  3.91781  0
C  C48  1  0.12573779  0.52264818  0.31573384  1  0  0.631671  0  3.931767  0  0  0.582131  0  4.216796  0  0  0.61579  0  4.212738  0  0  0.193482  0.559213  0  4.218625  0
C  C49  1  0.87426394  0.47735111  0.68426675  1  0  0.631649  0  3.931849  0  0  0.582114  0  4.21686  0  0  0.615775  0  4.212797  0  0  0.193468  0.55919  0  4.218696  0
C  C50  1  0.05676847  0.51099021  0.41079104  1  0  -0.056331  0  3.723164  0  0  -0.040801  0  3.956306  0  0  -0.044949  0  3.976181  0  0  -0.012089  -0.038131  0  3.942859  0
C  C51  1  0.94322769  0.48900717  0.58921008  1  0  -0.056455  0  3.723144  0  0  -0.040945  0  3.956299  0  0  -0.045096  0  3.97617  0  0  -0.012134  -0.038269  0  3.94285  0
C  C52  1  0.94371038  0.41372419  0.44811580  1  0  -0.059648  0  3.72393  0  0  -0.045744  0  3.96187  0  0  -0.049487  0  3.980478  0  0  -0.013505  -0.043314  0  3.949081  0
C  C53  1  0.05628579  0.58627317  0.55188594  1  0  -0.059539  0  3.723891  0  0  -0.045587  0  3.961776  0  0  -0.049329  0  3.980387  0  0  -0.013481  -0.043161  0  3.948992  0
C  C54  1  0.10950883  0.59690728  0.46332046  1  0  -0.097754  0  3.713945  0  0  -0.128767  0  3.964147  0  0  -0.129826  0  3.983508  0  0  -0.087008  -0.127919  0  3.950835  0
C  C55  1  0.89048353  0.40309306  0.53668092  1  0  -0.09757  0  3.713688  0  0  -0.128566  0  3.963899  0  0  -0.129631  0  3.983278  0  0  -0.086967  -0.127711  0  3.950575  0
C  C56  1  0.87009695  0.32625338  0.39368946  1  0  0.657363  0  3.918243  0  0  0.601393  0  4.214771  0  0  0.637658  0  4.206904  0  0  0.2035  0.576553  0  4.219377  0
C  C57  1  0.12990325  0.67374596  0.60631002  1  0  0.657336  0  3.91814  0  0  0.601307  0  4.214753  0  0  0.637571  0  4.206888  0  0  0.203478  0.576468  0  4.219357  0
C  C58  1  0.69539933  0.98468441  0.01902361  1  0  -0.094786  0  3.707614  0  0  -0.12528  0  3.957177  0  0  -0.125135  0  3.974227  0  0  -0.083162  -0.125568  0  3.946561  0
C  C59  1  0.30460694  0.01532069  0.98097771  1  0  -0.094761  0  3.707513  0  0  -0.125235  0  3.957071  0  0  -0.125095  0  3.974122  0  0  -0.083113  -0.125519  0  3.946449  0
C  C60  1  0.52148138  0.02309149  0.08247226  1  0  -0.053919  0  3.730171  0  0  -0.036998  0  3.964739  0  0  -0.040428  0  3.982373  0  0  -0.008612  -0.034904  0  3.953223  0
C  C61  1  0.47852209  0.97691273  0.91752683  1  0  -0.053939  0  3.730181  0  0  -0.037037  0  3.964725  0  0  -0.04046  0  3.982357  0  0  -0.008672  -0.034943  0  3.953205  0
C  C62  1  0.67614836  0.96244442  0.93634789  1  0  -0.066526  0  3.735866  0  0  -0.053545  0  3.975652  0  0  -0.057609  0  3.993713  0  0  -0.012412  -0.051059  0  3.963699  0
C  C63  1  0.32384703  0.03755592  0.06365261  1  0  -0.066436  0  3.735777  0  0  -0.053474  0  3.975571  0  0  -0.057532  0  3.993629  0  0  -0.012376  -0.05099  0  3.963619  0
C  C64  1  0.55181528  0.05575322  0.16817363  1  0  0.651406  0  3.920657  0  0  0.596264  0  4.210105  0  0  0.631898  0  4.204484  0  0  0.200087  0.571923  0  4.213165  0
C  C65  1  0.44818845  0.94424998  0.83182671  1  0  0.651359  0  3.920663  0  0  0.596278  0  4.210028  0  0  0.631907  0  4.204411  0  0  0.200171  0.571937  0  4.213088  0
C  C66  1  0.86384031  0.92389216  0.86794969  1  0  0.655161  0  3.912429  0  0  0.599585  0  4.207979  0  0  0.634703  0  4.202023  0  0  0.202548  0.575697  0  4.211127  0
C  C67  1  0.13616267  0.07610812  0.13205015  1  0  0.655195  0  3.912413  0  0  0.599648  0  4.207921  0  0  0.634764  0  4.201962  0  0  0.20256  0.57576  0  4.211069  0
N  N68  1  0.87080580  0.36522989  0.99942192  1  0  -0.686465  0  3.09056  0  0  -0.644923  0  3.319211  0  0  -0.668865  0  3.316195  0  0  -0.56346  -0.628254  0  3.321478  0
N  N69  1  0.12919289  0.63476942  0.00057894  1  0  -0.686424  0  3.090584  0  0  -0.644922  0  3.319224  0  0  -0.668864  0  3.316207  0  0  -0.563467  -0.628256  0  3.321486  0
N  N70  1  0.72406123  0.47488035  0.12549468  1  0  -0.476311  0  3.187296  0  0  -0.403824  0  3.480742  0  0  -0.428979  0  3.487689  0  0  -0.348527  -0.38693  0  3.475956  0
N  N71  1  0.27593542  0.52512098  0.87450507  1  0  -0.476365  0  3.187179  0  0  -0.403874  0  3.480589  0  0  -0.429031  0  3.487535  0  0  -0.348559  -0.386983  0  3.475804  0
N  N72  1  0.68450011  0.57741180  0.99143654  1  0  -0.465773  0  3.288255  0  0  -0.370137  0  3.571847  0  0  -0.399135  0  3.585395  0  0  -0.366173  -0.350929  0  3.562319  0
N  N73  1  0.31549832  0.42258852  0.00856369  1  0  -0.465751  0  3.288127  0  0  -0.370124  0  3.571697  0  0  -0.399119  0  3.585239  0  0  -0.366177  -0.350916  0  3.562173  0
N  N74  1  0.75466755  0.99823588  0.52123040  1  0  -0.686466  0  3.096276  0  0  -0.65005  0  3.330275  0  0  -0.672557  0  3.32755  0  0  -0.568697  -0.634581  0  3.332136  0
N  N75  1  0.24533342  0.00176053  0.47876846  1  0  -0.686323  0  3.096189  0  0  -0.649911  0  3.330226  0  0  -0.672418  0  3.327507  0  0  -0.56863  -0.634441  0  3.332082  0
N  N76  1  0.74700124  0.89115577  0.39951528  1  0  -0.441742  0  3.180646  0  0  -0.362972  0  3.465479  0  0  -0.389203  0  3.473897  0  0  -0.344991  -0.345851  0  3.459471  0
N  N77  1  0.25299618  0.10884261  0.60048446  1  0  -0.441867  0  3.180687  0  0  -0.36302  0  3.465483  0  0  -0.389252  0  3.473906  0  0  -0.34504  -0.3459  0  3.459475  0
N  N78  1  0.63617991  0.79900053  0.53685936  1  0  -0.451656  0  3.279111  0  0  -0.361793  0  3.568949  0  0  -0.390409  0  3.581965  0  0  -0.360835  -0.342871  0  3.560012  0
N  N79  1  0.36381624  0.20099690  0.46313989  1  0  -0.451794  0  3.279064  0  0  -0.361928  0  3.56895  0  0  -0.390545  0  3.581961  0  0  -0.360857  -0.343007  0  3.560019  0
O  O80  1  0.76029355  0.38538675  0.34247006  1  0  -0.630253  0  2.087299  0  0  -0.558703  0  2.356792  0  0  -0.591403  0  2.344895  0  0  -0.328109  -0.535657  0  2.363608  0
O  O81  1  0.23970665  0.61461255  0.65753066  1  0  -0.630244  0  2.087113  0  0  -0.558695  0  2.356659  0  0  -0.591395  0  2.344763  0  0  -0.328108  -0.535635  0  2.363435  0
O  O82  1  0.91714945  0.20296786  0.40460722  1  0  -0.636017  0  2.058585  0  0  -0.569442  0  2.325653  0  0  -0.598852  0  2.312662  0  0  -0.320464  -0.54932  0  2.334205  0
O  O83  1  0.08284799  0.79703046  0.59539439  1  0  -0.635995  0  2.058639  0  0  -0.569373  0  2.325662  0  0  -0.598782  0  2.312672  0  0  -0.320462  -0.549255  0  2.334213  0
O  O84  1  0.19066868  0.40959127  0.27784918  1  0  -0.650917  0  2.187488  0  0  -0.55025  0  2.477909  0  0  -0.586462  0  2.464531  0  0  -0.350527  -0.524873  0  2.486241  0
O  O85  1  0.80933430  0.59040903  0.72215004  1  0  -0.650951  0  2.187542  0  0  -0.550252  0  2.477933  0  0  -0.586466  0  2.464555  0  0  -0.35054  -0.524876  0  2.486265  0
O  O86  1  0.12116225  0.63221236  0.27986217  1  0  -0.600588  0  1.879854  0  0  -0.552313  0  2.088967  0  0  -0.576191  0  2.081307  0  0  -0.324522  -0.535095  0  2.093298  0
O  O87  1  0.87884404  0.36778685  0.72013928  1  0  -0.600576  0  1.879926  0  0  -0.552307  0  2.089046  0  0  -0.576184  0  2.081383  0  0  -0.324508  -0.535091  0  2.093381  0
O  O88  1  0.65936325  0.97201651  0.20693623  1  0  -0.589041  0  2.007069  0  0  -0.530108  0  2.249469  0  0  -0.55927  0  2.239864  0  0  -0.30817  -0.509383  0  2.254902  0
O  O89  1  0.34063493  0.02798474  0.79306525  1  0  -0.589034  0  2.007067  0  0  -0.530125  0  2.249436  0  0  -0.559286  0  2.239831  0  0  -0.308194  -0.509401  0  2.25487  0
O  O90  1  0.46727454  0.17416090  0.19256056  1  0  -0.648617  0  2.168929  0  0  -0.554721  0  2.449349  0  0  -0.5904  0  2.436961  0  0  -0.340672  -0.530053  0  2.457227  0
O  O91  1  0.53273476  0.82584417  0.80744050  1  0  -0.648577  0  2.168977  0  0  -0.554696  0  2.449365  0  0  -0.590373  0  2.436978  0  0  -0.340708  -0.530031  0  2.457242  0
O  O92  1  0.86595082  0.98047467  0.79663624  1  0  -0.574064  0  2.004856  0  0  -0.508934  0  2.253527  0  0  -0.537874  0  2.240913  0  0  -0.31513  -0.48875  0  2.261497  0
O  O93  1  0.13404760  0.01952565  0.20336400  1  0  -0.574091  0  2.004857  0  0  -0.50896  0  2.253504  0  0  -0.537901  0  2.240888  0  0  -0.315124  -0.488775  0  2.261473  0
O  O94  1  0.00652735  0.83517551  0.88879718  1  0  -0.653911  0  2.093622  0  0  -0.576613  0  2.357298  0  0  -0.609055  0  2.346137  0  0  -0.331524  -0.553614  0  2.364055  0
O  O95  1  0.99347614  0.16482287  0.11120080  1  0  -0.653914  0  2.093642  0  0  -0.576632  0  2.35731  0  0  -0.609069  0  2.346145  0  0  -0.33151  -0.553632  0  2.364067  0
