# generated using pymatgen
data_NaCoH12C18(NO3)3
_symmetry_space_group_name_H-M   'P 1'
_cell_length_a   9.97393953
_cell_length_b   9.97021217
_cell_length_c   13.72732359
_cell_angle_alpha   68.70940665
_cell_angle_beta   68.71376353
_cell_angle_gamma   60.03298135
_symmetry_Int_Tables_number   1
_chemical_formula_structural   NaCoH12C18(NO3)3
_chemical_formula_sum   'Na2 Co2 H24 C36 N6 O18'
_cell_volume   1073.60668470
_cell_formula_units_Z   2
loop_
 _symmetry_equiv_pos_site_id
 _symmetry_equiv_pos_as_xyz
  1  'x, y, z'
loop_
 _atom_site_type_symbol
 _atom_site_label
 _atom_site_symmetry_multiplicity
 _atom_site_fract_x
 _atom_site_fract_y
 _atom_site_fract_z
 _atom_site_occupancy
 _atom_site_pbe_bader_charge
 _atom_site_pbe_bader_spin_density
 _atom_site_pbe_cm5_charge
 _atom_site_pbe_ddec_charge
 _atom_site_pbe_ddec_spin_density
 _atom_site_pbe_ddec_sum_bond_order
 _atom_site_pbe_magmom
Na  Na0  1  0.58297376  0.58234882  0.25074220  1  0.895814  0.000314  0.694039  0.879273  -9.5e-05  0.527431  0.0
Na  Na1  1  0.08309507  0.08388676  0.75055867  1  0.895473  0.000316  0.695212  0.879108  -8.9e-05  0.529055  0.0
Co  Co2  1  0.49429153  0.49899578  0.51136927  1  1.371253  2.638925  0.653737  1.045098  2.84526  2.490959  2.626
Co  Co3  1  0.99408284  0.99539998  0.01134347  1  1.365074  2.638665  0.65466  1.045528  2.843972  2.497443  2.625
H  H4  1  0.81326333  0.23116566  0.25774999  1  0.522358  2.1e-05  0.30967  0.278096  2.4e-05  0.99245  0.0
H  H5  1  0.69884110  0.81429157  0.25769457  1  0.533547  -1.3e-05  0.311315  0.278294  -1.5e-05  0.990346  0.0
H  H6  1  0.23059864  0.69836352  0.25795808  1  0.537157  1.7e-05  0.310178  0.278328  5.5e-05  0.992852  0.0
H  H7  1  0.31208282  0.19890295  0.75827872  1  0.549992  2.1e-05  0.309545  0.277301  2.5e-05  0.992797  0.0
H  H8  1  0.19987549  0.72920929  0.75776198  1  0.53974  -1.4e-05  0.311274  0.278493  -1.5e-05  0.991047  0.0
H  H9  1  0.72986794  0.31270843  0.75814881  1  0.520168  1.8e-05  0.310509  0.278346  5.4e-05  0.991033  0.0
H  H10  1  0.07674631  0.00681664  0.55195571  1  0.138855  -1.7e-05  0.111427  0.106315  -0.000106  1.034444  0.0
H  H11  1  0.36474943  0.07734374  0.55174304  1  0.133489  2.8e-05  0.113033  0.107486  -3.2e-05  1.031333  0.0
H  H12  1  0.00666212  0.36402706  0.55164686  1  0.143183  -2e-05  0.111601  0.105958  -8.2e-05  1.034755  0.0
H  H13  1  0.57650782  0.86396924  0.05186447  1  0.133807  -2e-05  0.11121  0.106365  -0.000108  1.035142  0.0
H  H14  1  0.86408690  0.50756692  0.05140637  1  0.147517  3e-05  0.11252  0.106554  -3.2e-05  1.032346  0.0
H  H15  1  0.50757009  0.57688884  0.05180981  1  0.125252  -2.3e-05  0.11191  0.107074  -8.1e-05  1.034085  0.0
H  H16  1  0.20884937  0.88511407  0.38974187  1  0.107602  1.3e-05  0.108791  0.128698  -0.000119  1.023381  0.0
H  H17  1  0.51595693  0.20998345  0.38974192  1  0.126422  -4e-06  0.110657  0.131163  -0.000108  1.021612  0.0
H  H18  1  0.88459816  0.51641940  0.38972621  1  0.134354  3e-06  0.109782  0.130738  -0.000105  1.022001  0.0
H  H19  1  0.70875652  0.01557130  0.88956004  1  0.09708  9e-06  0.108467  0.128289  -0.000121  1.024471  0.0
H  H20  1  0.01566180  0.38514481  0.88959359  1  0.132033  -1e-06  0.110334  0.130771  -0.000108  1.021017  0.0
H  H21  1  0.38531457  0.70892164  0.88996663  1  0.110056  7e-06  0.109613  0.13044  -0.000103  1.021216  0.0
H  H22  1  0.06098584  0.01142483  0.23895669  1  0.180708  0.000302  0.127776  0.108483  -2.9e-05  1.021576  0.0
H  H23  1  0.68805177  0.06269879  0.23872047  1  0.172028  0.000354  0.129065  0.107942  -3.4e-05  1.016152  0.0
H  H24  1  0.01091754  0.68897575  0.23899555  1  0.182537  0.000294  0.127603  0.108225  -0.000115  1.0215  0.0
H  H25  1  0.56007229  0.18940378  0.73932662  1  0.158155  0.000305  0.127591  0.107925  -2.7e-05  1.021492  0.0
H  H26  1  0.18936483  0.51016464  0.73893402  1  0.177503  0.000351  0.129116  0.108747  -3.8e-05  1.014892  0.0
H  H27  1  0.51036245  0.56071142  0.73939025  1  0.17419  0.000299  0.127522  0.106959  -0.000115  1.023341  0.0
C  C28  1  0.78765063  0.24259821  0.41010737  1  1.215164  -0.001488  0.232497  0.485873  -0.002088  4.079554  -0.001
C  C29  1  0.56095171  0.78786924  0.40997650  1  1.22757  -0.00471  0.230737  0.481215  -0.005648  4.080906  -0.004
C  C30  1  0.24168296  0.56014073  0.41022361  1  1.218433  -0.003259  0.230072  0.478377  -0.004082  4.082064  -0.003
C  C31  1  0.28697281  0.05984196  0.91039327  1  1.25265  -0.001534  0.231924  0.48404  -0.002116  4.078265  -0.001
C  C32  1  0.06121824  0.74181924  0.90979500  1  1.215847  -0.004822  0.230327  0.480456  -0.00578  4.081371  -0.004
C  C33  1  0.74173865  0.28742562  0.91025487  1  1.211173  -0.003325  0.230593  0.48023  -0.004145  4.080378  -0.003
C  C34  1  0.86801517  0.17950078  0.49565578  1  -0.008912  0.002911  -0.029356  -0.223138  0.000808  3.928501  0.002
C  C35  1  0.45687025  0.86860056  0.49528141  1  -0.047928  -0.000731  -0.030476  -0.227434  -0.001856  3.930291  0.0
C  C36  1  0.17992968  0.45592484  0.49534681  1  -0.018244  0.000925  -0.029726  -0.223427  -0.00078  3.930622  0.001
C  C37  1  0.36749076  0.95664344  0.99582366  1  0.015207  0.002963  -0.029611  -0.223216  0.000817  3.928946  0.002
C  C38  1  0.95669385  0.68014497  0.99497455  1  -0.020223  -0.00081  -0.030424  -0.226805  -0.001944  3.930773  0.0
C  C39  1  0.68029171  0.36803940  0.99547043  1  0.022891  0.000797  -0.029712  -0.223107  -0.000866  3.931375  0.001
C  C40  1  0.01804594  0.05322287  0.48590876  1  -0.114265  -0.004843  -0.056804  -0.003558  -0.005236  3.943003  -0.003
C  C41  1  0.44293295  0.01882365  0.48560139  1  -0.055074  8.5e-05  -0.053701  0.002994  -0.000184  3.937265  0.0
C  C42  1  0.05315968  0.44236976  0.48561109  1  -0.029116  -0.003383  -0.054936  -6e-05  -0.003658  3.937225  -0.002
C  C43  1  0.51764785  0.94250658  0.98594357  1  -0.117619  -0.004944  -0.056139  -0.002821  -0.005328  3.942991  -0.003
C  C44  1  0.94266773  0.55361767  0.98527831  1  -0.033588  0.00011  -0.053187  0.003238  -0.000185  3.935653  0.0
C  C45  1  0.55375584  0.51815356  0.98577808  1  -0.138026  -0.003402  -0.05538  -0.001643  -0.003659  3.9388  -0.002
C  C46  1  0.09321698  0.98627486  0.39550810  1  0.107538  -0.000519  -0.107645  -0.188255  -0.000825  4.007511  0.0
C  C47  1  0.52479779  0.09426993  0.39539702  1  0.098781  -0.000387  -0.105341  -0.18643  -0.000617  4.005607  0.0
C  C48  1  0.98601631  0.52485944  0.39542057  1  -0.022719  0.001822  -0.105425  -0.184182  0.000803  4.001062  0.001
C  C49  1  0.59274384  0.02484354  0.89557360  1  0.114044  -0.000511  -0.10773  -0.188271  -0.00083  4.008685  0.0
C  C50  1  0.02485720  0.48619368  0.89521137  1  -0.009759  -0.000475  -0.105561  -0.184873  -0.000694  4.000446  0.0
C  C51  1  0.48630859  0.59312347  0.89570928  1  0.096942  0.001839  -0.105411  -0.18472  0.00079  4.002983  0.001
C  C52  1  0.01538997  0.05226401  0.31308045  1  0.355366  -0.002292  0.061466  0.120711  -0.002528  3.901077  -0.001
C  C53  1  0.61918900  0.01653760  0.31284503  1  0.330566  0.000691  0.063279  0.121913  -1.1e-05  3.900249  0.001
C  C54  1  0.05196477  0.61938532  0.31301505  1  0.355538  -0.002819  0.061368  0.117277  -0.003401  3.896866  -0.002
C  C55  1  0.51453507  0.11982551  0.81339397  1  0.357704  -0.00233  0.061772  0.121112  -0.002569  3.899675  -0.001
C  C56  1  0.11995124  0.55156313  0.81287843  1  0.357988  0.00063  0.063429  0.119604  -5.5e-05  3.895584  0.001
C  C57  1  0.55176631  0.51516849  0.81329181  1  0.378808  -0.00289  0.061635  0.119939  -0.00348  3.897248  -0.002
C  C58  1  0.79675232  0.24748448  0.59313921  1  1.568344  -0.001967  0.210359  0.611646  -0.002594  4.201157  -0.001
C  C59  1  0.36248168  0.79794024  0.59274354  1  1.569516  -0.00259  0.210993  0.610458  -0.003349  4.199627  -0.001
C  C60  1  0.24865443  0.36067556  0.59237619  1  1.556201  -0.007221  0.207819  0.607954  -0.00839  4.204175  -0.004
C  C61  1  0.29630898  0.86216488  0.09319223  1  1.563442  -0.001995  0.211387  0.613687  -0.002665  4.199404  -0.001
C  C62  1  0.86192704  0.74752037  0.09246824  1  1.558582  -0.002656  0.210663  0.610546  -0.003411  4.197497  -0.001
C  C63  1  0.74939715  0.29773283  0.09231902  1  1.566914  -0.007451  0.206444  0.604908  -0.008586  4.21176  -0.004
N  N64  1  0.87058623  0.17553123  0.32170516  1  -1.266741  0.001854  -0.362414  -0.260559  0.00042  3.599753  0.001
N  N65  1  0.63266659  0.87155927  0.32150023  1  -1.288618  0.005176  -0.360648  -0.255398  0.002552  3.604208  0.005
N  N66  1  0.17511473  0.63230499  0.32177367  1  -1.26975  0.005622  -0.359654  -0.253929  0.002823  3.604062  0.005
N  N67  1  0.36956505  0.13298022  0.82215264  1  -1.322863  0.001876  -0.362293  -0.259349  0.000427  3.59778  0.001
N  N68  1  0.13342784  0.67445767  0.82153372  1  -1.270802  0.005178  -0.360736  -0.254594  0.002552  3.60202  0.005
N  N69  1  0.67477363  0.37027498  0.82196644  1  -1.265796  0.005676  -0.360362  -0.255918  0.002858  3.603537  0.005
O  O70  1  0.64937891  0.35306921  0.40531857  1  -1.176186  0.057872  -0.348803  -0.593322  0.029946  2.440176  0.05
O  O71  1  0.59639432  0.64839923  0.40557383  1  -1.16806  0.055453  -0.344892  -0.591252  0.028903  2.446077  0.049
O  O72  1  0.35085364  0.59486507  0.40584572  1  -1.167983  0.062448  -0.347669  -0.591123  0.032997  2.441604  0.052
O  O73  1  0.14884365  0.09227616  0.90540487  1  -1.173143  0.058408  -0.34887  -0.591886  0.030158  2.442172  0.051
O  O74  1  0.09665717  0.85032166  0.90531118  1  -1.165563  0.055852  -0.345614  -0.59164  0.029024  2.447917  0.049
O  O75  1  0.85103516  0.14813849  0.90561159  1  -1.179185  0.062617  -0.34739  -0.591004  0.033046  2.441156  0.053
O  O76  1  0.65829705  0.36270237  0.60460169  1  -1.177594  0.060728  -0.320623  -0.583644  0.031348  2.349024  0.053
O  O77  1  0.37425883  0.65864928  0.60507726  1  -1.173056  0.064558  -0.323488  -0.585387  0.033703  2.35062  0.053
O  O78  1  0.36887577  0.36671056  0.60141309  1  -1.163518  0.058195  -0.322638  -0.586752  0.030127  2.345405  0.052
O  O79  1  0.15766101  0.87435604  0.10475250  1  -1.167892  0.060746  -0.321114  -0.584725  0.031427  2.351108  0.053
O  O80  1  0.87386618  0.86242991  0.10511002  1  -1.164964  0.06454  -0.323136  -0.586363  0.033865  2.350674  0.053
O  O81  1  0.86948778  0.16246169  0.10141119  1  -1.176398  0.058405  -0.3222  -0.584792  0.030288  2.352331  0.052
O  O82  1  0.87747721  0.18846582  0.66390740  1  -1.205876  0.00878  -0.390177  -0.631045  0.004426  2.175808  0.008
O  O83  1  0.27004421  0.87873948  0.66327104  1  -1.210626  0.007688  -0.387762  -0.626608  0.003754  2.177948  0.006
O  O84  1  0.18611712  0.27209219  0.66479737  1  -1.218197  0.001201  -0.395585  -0.636817  -0.001044  2.177712  0.001
O  O85  1  0.37732588  0.76916069  0.16374234  1  -1.212333  0.008699  -0.389716  -0.631545  0.004386  2.177467  0.007
O  O86  1  0.76910346  0.68885270  0.16269633  1  -1.213178  0.007703  -0.388186  -0.627175  0.003759  2.177162  0.006
O  O87  1  0.68728342  0.37677638  0.16450872  1  -1.20676  0.001123  -0.394385  -0.635408  -0.001116  2.179205  0.001
