# generated using pymatgen
data_Ga2P3H11C12(NO6)2
_symmetry_space_group_name_H-M   'P 1'
_cell_length_a   7.69574228
_cell_length_b   11.84889552
_cell_length_c   12.06402651
_cell_angle_alpha   113.92828475
_cell_angle_beta   102.06605452
_cell_angle_gamma   103.33072145
_symmetry_Int_Tables_number   1
_chemical_formula_structural   Ga2P3H11C12(NO6)2
_chemical_formula_sum   'Ga4 P6 H22 C24 N4 O24'
_cell_volume   920.08015535
_cell_formula_units_Z   2
loop_
 _symmetry_equiv_pos_site_id
 _symmetry_equiv_pos_as_xyz
  1  'x, y, z'
loop_
 _atom_site_type_symbol
 _atom_site_label
 _atom_site_symmetry_multiplicity
 _atom_site_fract_x
 _atom_site_fract_y
 _atom_site_fract_z
 _atom_site_occupancy
 _atom_site_hle17_bader_spin_density
 _atom_site_hle17_ddec_charge
 _atom_site_hle17_ddec_spin_density
 _atom_site_hle17_ddec_sum_bond_order
 _atom_site_hle17_magmom
 _atom_site_hse06_10hf_bader_spin_density
 _atom_site_hse06_10hf_ddec_charge
 _atom_site_hse06_10hf_ddec_spin_density
 _atom_site_hse06_10hf_ddec_sum_bond_order
 _atom_site_hse06_10hf_magmom
 _atom_site_hse06_bader_spin_density
 _atom_site_hse06_ddec_charge
 _atom_site_hse06_ddec_spin_density
 _atom_site_hse06_ddec_sum_bond_order
 _atom_site_hse06_magmom
 _atom_site_pbe_bader_spin_density
 _atom_site_pbe_cm5_charge
 _atom_site_pbe_ddec_charge
 _atom_site_pbe_ddec_spin_density
 _atom_site_pbe_ddec_sum_bond_order
 _atom_site_pbe_magmom
Ga  Ga0  1  0.80380181  0.82581703  0.47883886  1  0  1.708787  0  2.333626  0  0  1.536039  0  2.798492  0  0  1.589401  0  2.73862  0  0  0.658835  1.498617  0  2.839775  0
Ga  Ga1  1  0.19619800  0.17418322  0.52116016  1  0  1.708913  0  2.333532  0  0  1.536104  0  2.798403  0  0  1.589464  0  2.738531  0  0  0.658883  1.498667  0  2.839682  0
Ga  Ga2  1  0.63723126  0.38065466  0.36393408  1  0  1.603415  0  2.308095  0  0  1.426928  0  2.735204  0  0  1.480166  0  2.689552  0  0  0.62709  1.389886  0  2.766127  0
Ga  Ga3  1  0.36276539  0.61934459  0.63606578  1  0  1.603336  0  2.308176  0  0  1.42685  0  2.735283  0  0  1.480086  0  2.689635  0  0  0.627076  1.389811  0  2.766204  0
P  P4  1  0.96002350  0.67879101  0.60722960  1  0  1.819079  0  4.811178  0  0  1.61946  0  5.35303  0  0  1.680199  0  5.292626  0  0  0.473073  1.577081  0  5.394333  0
P  P5  1  0.03997448  0.32120825  0.39277128  1  0  1.819019  0  4.811174  0  0  1.619374  0  5.353053  0  0  1.680123  0  5.292642  0  0  0.473051  1.576995  0  5.394354  0
P  P6  1  0.18383595  0.88882244  0.41952589  1  0  1.795045  0  4.849918  0  0  1.604744  0  5.382008  0  0  1.664316  0  5.324455  0  0  0.467096  1.563006  0  5.421482  0
P  P7  1  0.81616386  0.11117781  0.58047480  1  0  1.794994  0  4.849989  0  0  1.604706  0  5.382061  0  0  1.664293  0  5.32445  0  0  0.467056  1.562966  0  5.421537  0
P  P8  1  0.43523453  0.59622449  0.37605257  1  0  1.801792  0  4.811186  0  0  1.604085  0  5.347211  0  0  1.664692  0  5.289042  0  0  0.463109  1.561856  0  5.386995  0
P  P9  1  0.56476262  0.40377575  0.62394775  1  0  1.801902  0  4.811037  0  0  1.604209  0  5.347047  0  0  1.664813  0  5.288879  0  0  0.463133  1.561963  0  5.386833  0
H  H10  1  0.80435069  0.63251703  0.72152384  1  0  0.445985  0  0.842104  0  0  0.414184  0  0.91158  0  0  0.425572  0  0.895139  0  0  0.322438  0.40621  0  0.923099  0
H  H11  1  0.19564596  0.36748222  0.27847520  1  0  0.445951  0  0.842108  0  0  0.414156  0  0.911595  0  0  0.425545  0  0.895154  0  0  0.322454  0.406182  0  0.923115  0
H  H12  1  0.23817063  0.81478088  0.56397737  1  0  0.442078  0  0.856136  0  0  0.407675  0  0.925889  0  0  0.418943  0  0.909536  0  0  0.320377  0.399741  0  0.937392  0
H  H13  1  0.76182869  0.18521838  0.43602120  1  0  0.442092  0  0.856146  0  0  0.407669  0  0.925904  0  0  0.418939  0  0.909549  0  0  0.32038  0.399734  0  0.937409  0
H  H14  1  0.23818530  0.67896011  0.29804205  1  0  0.448075  0  0.863518  0  0  0.409508  0  0.939067  0  0  0.421386  0  0.92237  0  0  0.3041  0.401211  0  0.95068  0
H  H15  1  0.76181599  0.32104310  0.70195919  1  0  0.448046  0  0.863564  0  0  0.409463  0  0.93914  0  0  0.421341  0  0.922442  0  0  0.304073  0.401165  0  0.950755  0
H  H16  1  0.90473152  0.58135783  0.30647573  1  0  0.084123  0  0.942986  0  0  0.090248  0  1.01154  0  0  0.092392  0  1.008252  0  0  0.128609  0.088484  0  1.014257  0
H  H17  1  0.09527095  0.41864243  0.69352698  1  0  0.084082  0  0.942988  0  0  0.090202  0  1.011572  0  0  0.092345  0  1.008285  0  0  0.128603  0.08844  0  1.014284  0
H  H18  1  0.91157167  0.59944509  0.10856549  1  0  0.12076  0  0.932108  0  0  0.13214  0  0.984496  0  0  0.135407  0  0.984173  0  0  0.117247  0.12983  0  0.984716  0
H  H19  1  0.08843163  0.40055419  0.89143611  1  0  0.120718  0  0.932161  0  0  0.132097  0  0.984553  0  0  0.135364  0  0.98423  0  0  0.117234  0.129788  0  0.984773  0
H  H20  1  0.68824330  0.41316459  0.89186306  1  0  0.117768  0  0.95336  0  0  0.129005  0  1.010182  0  0  0.132245  0  1.007518  0  0  0.11543  0.126531  0  1.012341  0
H  H21  1  0.31176100  0.58683667  0.10813863  1  0  0.117755  0  0.95335  0  0  0.128997  0  1.010166  0  0  0.132236  0  1.007504  0  0  0.115436  0.126523  0  1.012326  0
H  H22  1  0.43361568  0.18236046  0.76639371  1  0  0.117951  0  0.942106  0  0  0.12831  0  1.002287  0  0  0.131021  0  1.00111  0  0  0.114993  0.126247  0  1.00328  0
H  H23  1  0.56638862  0.81764079  0.23360633  1  0  0.117916  0  0.942085  0  0  0.128279  0  1.002259  0  0  0.130991  0  1.00108  0  0  0.114972  0.12619  0  1.003282  0
H  H24  1  0.21857793  0.99244904  0.76787757  1  0  0.119237  0  0.957206  0  0  0.12803  0  1.019288  0  0  0.130961  0  1.01799  0  0  0.109584  0.125784  0  1.020483  0
H  H25  1  0.78142421  0.00755319  0.23212172  1  0  0.11923  0  0.957226  0  0  0.128045  0  1.019285  0  0  0.130988  0  1.017973  0  0  0.109592  0.125798  0  1.02048  0
H  H26  1  0.11153571  0.88045451  0.89797505  1  0  0.117108  0  0.954572  0  0  0.127088  0  1.013748  0  0  0.130262  0  1.011084  0  0  0.11232  0.124688  0  1.015827  0
H  H27  1  0.88846676  0.11954575  0.10202434  1  0  0.117088  0  0.954576  0  0  0.127076  0  1.013746  0  0  0.130257  0  1.011067  0  0  0.112336  0.124677  0  1.015825  0
H  H28  1  0.15329295  0.89410063  0.11584274  1  0  0.119919  0  0.927193  0  0  0.132653  0  0.977514  0  0  0.135956  0  0.977045  0  0  0.116874  0.130195  0  0.978106  0
H  H29  1  0.84670953  0.10589963  0.88415582  1  0  0.119882  0  0.927205  0  0  0.132639  0  0.977493  0  0  0.135942  0  0.977022  0  0  0.116854  0.130172  0  0.978098  0
H  H30  1  0.37570171  0.10075679  0.31255539  1  0  0.107174  0  0.954109  0  0  0.11149  0  1.020955  0  0  0.114072  0  1.017939  0  0  0.131203  0.109516  0  1.023256  0
H  H31  1  0.62429628  0.89924247  0.68744299  1  0  0.107145  0  0.954112  0  0  0.111474  0  1.02095  0  0  0.114055  0  1.017935  0  0  0.131192  0.109501  0  1.02325  0
C  C32  1  0.80866314  0.50367897  0.21189381  1  0  0.208958  0  3.628083  0  0  0.167522  0  3.89257  0  0  0.179414  0  3.905964  0  0  0.084128  0.159595  0  3.883639  0
C  C33  1  0.19133465  0.49632521  0.78810817  1  0  0.208997  0  3.627971  0  0  0.167505  0  3.892551  0  0  0.179396  0  3.905946  0  0  0.084074  0.159575  0  3.883619  0
C  C34  1  0.81140320  0.51170872  0.09917025  1  0  -0.103645  0  3.674287  0  0  -0.116724  0  3.927711  0  0  -0.124792  0  3.947902  0  0  -0.070715  -0.111443  0  3.913821  0
C  C35  1  0.18859745  0.48829055  0.90083016  1  0  -0.103561  0  3.674202  0  0  -0.116622  0  3.927636  0  0  -0.12469  0  3.947828  0  0  -0.070667  -0.11134  0  3.913746  0
C  C36  1  0.68843322  0.40913640  0.98056985  1  0  -0.027127  0  3.632726  0  0  -0.05261  0  3.876315  0  0  -0.048977  0  3.893304  0  0  -0.049736  -0.05471  0  3.864577  0
C  C37  1  0.31156924  0.59086386  0.01943203  1  0  -0.027137  0  3.6327  0  0  -0.052617  0  3.87628  0  0  -0.048984  0  3.893271  0  0  -0.049745  -0.054719  0  3.864544  0
C  C38  1  0.56215744  0.29705258  0.97443561  1  0  0.02894  0  3.782114  0  0  0.045501  0  4.014751  0  0  0.042503  0  4.039692  0  0  0.006663  0.047491  0  3.997362  0
C  C39  1  0.43784587  0.70294669  0.02556516  1  0  0.028886  0  3.782055  0  0  0.045454  0  4.014703  0  0  0.042455  0  4.039643  0  0  0.006625  0.047445  0  3.997305  0
C  C40  1  0.43280334  0.18368557  0.85701222  1  0  -0.076126  0  3.693682  0  0  -0.100827  0  3.948674  0  0  -0.103849  0  3.971916  0  0  -0.071901  -0.098497  0  3.932169  0
C  C41  1  0.56720180  0.81631470  0.14298754  1  0  -0.076072  0  3.693584  0  0  -0.100759  0  3.948554  0  0  -0.10378  0  3.9718  0  0  -0.07188  -0.098411  0  3.932055  0
C  C42  1  0.31559001  0.07814615  0.85807644  1  0  -0.093802  0  3.698289  0  0  -0.117135  0  3.951494  0  0  -0.120884  0  3.974991  0  0  -0.079014  -0.114469  0  3.93551  0
C  C43  1  0.68441296  0.92185509  0.14192258  1  0  -0.093796  0  3.698314  0  0  -0.117162  0  3.951532  0  0  -0.120922  0  3.975026  0  0  -0.078998  -0.114495  0  3.935537  0
C  C44  1  0.31972206  0.07681435  0.97682900  1  0  0.026807  0  3.793252  0  0  0.043235  0  4.026725  0  0  0.040471  0  4.051678  0  0  0.001886  0.044901  0  4.009841  0
C  C45  1  0.68027726  0.92318491  0.02316957  1  0  0.026831  0  3.793241  0  0  0.043261  0  4.026715  0  0  0.040498  0  4.051672  0  0  0.001887  0.044925  0  4.009828  0
C  C46  1  0.20983134  0.96897659  0.98555247  1  0  -0.037715  0  3.655396  0  0  -0.066064  0  3.909519  0  0  -0.062633  0  3.926853  0  0  -0.055975  -0.067894  0  3.897475  0
C  C47  1  0.79016798  0.03102267  0.01444610  1  0  -0.037745  0  3.655451  0  0  -0.066109  0  3.909585  0  0  -0.062674  0  3.926914  0  0  -0.05603  -0.067939  0  3.897538  0
C  C48  1  0.23114232  0.97625811  0.10530952  1  0  -0.111888  0  3.700406  0  0  -0.126218  0  3.958846  0  0  -0.1341  0  3.979473  0  0  -0.072941  -0.12117  0  3.944852  0
C  C49  1  0.76885917  0.02374018  0.89468812  1  0  -0.111791  0  3.700492  0  0  -0.126123  0  3.958922  0  0  -0.134003  0  3.979553  0  0  -0.072874  -0.121069  0  3.944934  0
C  C50  1  0.35586791  0.09221921  0.21720166  1  0  0.185975  0  3.610445  0  0  0.148375  0  3.868635  0  0  0.15928  0  3.882707  0  0  0.080772  0.141084  0  3.859185  0
C  C51  1  0.64412909  0.90777808  0.78279581  1  0  0.185942  0  3.61053  0  0  0.148304  0  3.868754  0  0  0.159208  0  3.882828  0  0  0.080757  0.141013  0  3.859301  0
C  C52  1  0.56743134  0.29861479  0.09295785  1  0  0.135097  0  3.763673  0  0  0.123766  0  4.002385  0  0  0.128561  0  4.023878  0  0  0.127414  0.120709  0  3.987978  0
C  C53  1  0.43256680  0.70138743  0.90704256  1  0  0.135167  0  3.763578  0  0  0.123791  0  4.002339  0  0  0.128587  0  4.02383  0  0  0.127428  0.120733  0  3.987927  0
C  C54  1  0.44431249  0.18856994  0.09416799  1  0  0.129767  0  3.770538  0  0  0.120575  0  4.007705  0  0  0.125106  0  4.029434  0  0  0.126732  0.117365  0  3.99327  0
C  C55  1  0.55568466  0.81143030  0.90583068  1  0  0.12973  0  3.770552  0  0  0.120549  0  4.007702  0  0  0.125077  0  4.029433  0  0  0.126751  0.117342  0  3.993258  0
N  N56  1  0.68900803  0.40060813  0.20840737  1  0  -0.372565  0  3.318936  0  0  -0.299318  0  3.572895  0  0  -0.319983  0  3.592283  0  0  -0.280549  -0.285592  0  3.559756  0
N  N57  1  0.31099094  0.59939311  0.79159359  1  0  -0.372578  0  3.318869  0  0  -0.299276  0  3.572831  0  0  -0.319939  0  3.592217  0  0  -0.28051  -0.28555  0  3.55969  0
N  N58  1  0.45630599  0.19585488  0.21088744  1  0  -0.359332  0  3.291176  0  0  -0.287225  0  3.54467  0  0  -0.307117  0  3.563432  0  0  -0.282034  -0.27383  0  3.53196  0
N  N59  1  0.54369249  0.80414537  0.78911141  1  0  -0.359328  0  3.291237  0  0  -0.287179  0  3.544698  0  0  -0.307069  0  3.563461  0  0  -0.282059  -0.273783  0  3.531984  0
O  O60  1  0.96464374  0.85125327  0.39100223  1  0  -0.946452  0  2.021921  0  0  -0.856065  0  2.317509  0  0  -0.883304  0  2.287909  0  0  -0.327681  -0.836803  0  2.33733  0
O  O61  1  0.03535508  0.14874501  0.60899753  1  0  -0.946517  0  2.021886  0  0  -0.8561  0  2.31747  0  0  -0.88334  0  2.287864  0  0  -0.327711  -0.836837  0  2.337294  0
O  O62  1  0.91746204  0.80366163  0.61519929  1  0  -0.916793  0  2.018944  0  0  -0.825916  0  2.3132  0  0  -0.853685  0  2.284938  0  0  -0.321227  -0.806454  0  2.332369  0
O  O63  1  0.08253496  0.19633565  0.38479900  1  0  -0.916773  0  2.018917  0  0  -0.825908  0  2.313212  0  0  -0.853678  0  2.28495  0  0  -0.321223  -0.806448  0  2.33238  0
O  O64  1  0.26991678  0.03308791  0.44620613  1  0  -0.878764  0  1.998499  0  0  -0.780215  0  2.27916  0  0  -0.808743  0  2.251219  0  0  -0.308964  -0.760281  0  2.298213  0
O  O65  1  0.73008485  0.96691333  0.55379603  1  0  -0.878599  0  1.998356  0  0  -0.780177  0  2.279113  0  0  -0.808708  0  2.251168  0  0  -0.308928  -0.760238  0  2.298158  0
O  O66  1  0.60148837  0.67802147  0.35360598  1  0  -0.900574  0  1.994139  0  0  -0.808571  0  2.286459  0  0  -0.837373  0  2.259851  0  0  -0.315963  -0.788627  0  2.304525  0
O  O67  1  0.39851178  0.32197681  0.64639397  1  0  -0.900619  0  1.994084  0  0  -0.808611  0  2.286402  0  0  -0.837415  0  2.2598  0  0  -0.315994  -0.78863  0  2.304447  0
O  O68  1  0.82293061  0.55578375  0.48514109  1  0  -0.939482  0  2.117022  0  0  -0.848927  0  2.409885  0  0  -0.875544  0  2.383128  0  0  -0.319766  -0.830203  0  2.427792  0
O  O69  1  0.17706821  0.44421452  0.51485950  1  0  -0.939475  0  2.117007  0  0  -0.84892  0  2.409875  0  0  -0.875536  0  2.383116  0  0  -0.319772  -0.830198  0  2.427784  0
O  O70  1  0.16916679  0.70529273  0.61645604  1  0  -0.908747  0  2.056619  0  0  -0.817633  0  2.328623  0  0  -0.847096  0  2.306766  0  0  -0.320491  -0.79694  0  2.3433  0
O  O71  1  0.83083069  0.29470554  0.38354520  1  0  -0.908778  0  2.056645  0  0  -0.817645  0  2.328631  0  0  -0.847115  0  2.306784  0  0  -0.320485  -0.796945  0  2.343295  0
O  O72  1  0.45898522  0.66712855  0.51968583  1  0  -0.911208  0  2.057108  0  0  -0.825043  0  2.347304  0  0  -0.852556  0  2.323074  0  0  -0.320565  -0.805643  0  2.363336  0
O  O73  1  0.54101326  0.33287169  0.48031467  1  0  -0.911297  0  2.057079  0  0  -0.825132  0  2.347275  0  0  -0.85265  0  2.323051  0  0  -0.320595  -0.805725  0  2.363288  0
O  O74  1  0.42521176  0.45158922  0.32803093  1  0  -0.91196  0  2.034338  0  0  -0.822441  0  2.298636  0  0  -0.851349  0  2.277504  0  0  -0.321108  -0.801964  0  2.312419  0
O  O75  1  0.57478173  0.54840904  0.67196894  1  0  -0.911954  0  2.034295  0  0  -0.82246  0  2.29859  0  0  -0.851375  0  2.277474  0  0  -0.321113  -0.80199  0  2.312382  0
O  O76  1  0.94204988  0.67319246  0.73292688  1  0  -0.751611  0  1.973439  0  0  -0.680143  0  2.196568  0  0  -0.700936  0  2.169549  0  0  -0.370181  -0.665605  0  2.215102  0
O  O77  1  0.05794495  0.32680580  0.26707234  1  0  -0.751575  0  1.97344  0  0  -0.680074  0  2.196573  0  0  -0.700882  0  2.169561  0  0  -0.370201  -0.665536  0  2.215106  0
O  O78  1  0.28103274  0.89425223  0.55178598  1  0  -0.781223  0  2.018977  0  0  -0.712346  0  2.252097  0  0  -0.733095  0  2.224345  0  0  -0.374591  -0.697772  0  2.271195  0
O  O79  1  0.71896658  0.10574703  0.44821341  1  0  -0.781303  0  2.019053  0  0  -0.712388  0  2.252154  0  0  -0.73314  0  2.224395  0  0  -0.374629  -0.697814  0  2.271252  0
O  O80  1  0.24652273  0.58609260  0.28738009  1  0  -0.80629  0  1.993866  0  0  -0.731723  0  2.230005  0  0  -0.755252  0  2.203715  0  0  -0.379202  -0.715053  0  2.247827  0
O  O81  1  0.75347842  0.41390766  0.71261829  1  0  -0.806292  0  1.993897  0  0  -0.731701  0  2.230017  0  0  -0.755225  0  2.20372  0  0  -0.379165  -0.71503  0  2.247842  0
O  O82  1  0.22342121  0.79627899  0.30612469  1  0  -0.848495  0  1.873518  0  0  -0.775349  0  2.112467  0  0  -0.800989  0  2.08943  0  0  -0.367327  -0.757013  0  2.127871  0
O  O83  1  0.77657677  0.20372027  0.69387453  1  0  -0.848469  0  1.873506  0  0  -0.775306  0  2.112449  0  0  -0.800949  0  2.089405  0  0  -0.367306  -0.756976  0  2.127866  0
