# generated using pymatgen
data_CdH16C26S2(NO2)2
_symmetry_space_group_name_H-M   'P 1'
_cell_length_a   10.08860997
_cell_length_b   11.02178558
_cell_length_c   11.87179777
_cell_angle_alpha   96.13326444
_cell_angle_beta   96.03759998
_cell_angle_gamma   117.19668108
_symmetry_Int_Tables_number   1
_chemical_formula_structural   CdH16C26S2(NO2)2
_chemical_formula_sum   'Cd2 H32 C52 S4 N4 O8'
_cell_volume   1149.57407837
_cell_formula_units_Z   2
loop_
 _symmetry_equiv_pos_site_id
 _symmetry_equiv_pos_as_xyz
  1  'x, y, z'
loop_
 _atom_site_type_symbol
 _atom_site_label
 _atom_site_symmetry_multiplicity
 _atom_site_fract_x
 _atom_site_fract_y
 _atom_site_fract_z
 _atom_site_occupancy
 _atom_site_hle17_bader_spin_density
 _atom_site_hle17_ddec_charge
 _atom_site_hle17_ddec_spin_density
 _atom_site_hle17_ddec_sum_bond_order
 _atom_site_hle17_magmom
 _atom_site_hse06_10hf_bader_spin_density
 _atom_site_hse06_10hf_ddec_charge
 _atom_site_hse06_10hf_ddec_spin_density
 _atom_site_hse06_10hf_ddec_sum_bond_order
 _atom_site_hse06_10hf_magmom
 _atom_site_hse06_bader_spin_density
 _atom_site_hse06_ddec_charge
 _atom_site_hse06_ddec_spin_density
 _atom_site_hse06_ddec_sum_bond_order
 _atom_site_hse06_magmom
 _atom_site_pbe_bader_spin_density
 _atom_site_pbe_cm5_charge
 _atom_site_pbe_ddec_charge
 _atom_site_pbe_ddec_spin_density
 _atom_site_pbe_ddec_sum_bond_order
 _atom_site_pbe_magmom
Cd  Cd0  1  0.43986193  0.80776737  0.46532440  1  0  1.122554  0  1.661559  0  0  0.927002  0  2.10318  0  0  0.98827  0  2.051503  0  0  0.772575  0.884142  0  2.137704  0
Cd  Cd1  1  0.56013927  0.19223519  0.53467503  1  0  1.122613  0  1.661475  0  0  0.927063  0  2.10309  0  0  0.988333  0  2.05141  0  0  0.772598  0.884204  0  2.137612  0
H  H2  1  0.35303324  0.55771656  0.24720155  1  0  0.076302  0  0.950418  0  0  0.084466  0  1.015915  0  0  0.086771  0  1.013427  0  0  0.116281  0.082689  0  1.017822  0
H  H3  1  0.64696636  0.44228289  0.75279575  1  0  0.076337  0  0.950403  0  0  0.084515  0  1.015886  0  0  0.086813  0  1.013404  0  0  0.116284  0.082737  0  1.017796  0
H  H4  1  0.44310086  0.38999211  0.17309582  1  0  0.101456  0  0.941526  0  0  0.115522  0  0.99514  0  0  0.118255  0  0.99506  0  0  0.108724  0.113373  0  0.995699  0
H  H5  1  0.55689769  0.61000527  0.82690371  1  0  0.101477  0  0.94152  0  0  0.115535  0  0.995136  0  0  0.118267  0  0.995056  0  0  0.108733  0.113349  0  0.995736  0
H  H6  1  0.66548842  0.39113641  0.29043142  1  0  0.119309  0  0.966609  0  0  0.127142  0  1.032048  0  0  0.13058  0  1.029221  0  0  0.110148  0.124908  0  1.033583  0
H  H7  1  0.33451119  0.60886305  0.70956672  1  0  0.119288  0  0.966662  0  0  0.127144  0  1.032072  0  0  0.130583  0  1.029244  0  0  0.110148  0.124909  0  1.033609  0
H  H8  1  0.86940643  0.49616762  0.46518299  1  0  0.122638  0  0.923766  0  0  0.13659  0  0.976332  0  0  0.139788  0  0.974646  0  0  0.116516  0.134213  0  0.977716  0
H  H9  1  0.13059259  0.50382873  0.53481732  1  0  0.122644  0  0.923767  0  0  0.136603  0  0.976322  0  0  0.1398  0  0.974636  0  0  0.116526  0.134227  0  0.977705  0
H  H10  1  0.99023899  0.66430482  0.64708521  1  0  0.112181  0  0.928919  0  0  0.123724  0  0.986425  0  0  0.126641  0  0.985426  0  0  0.109746  0.121789  0  0.98692  0
H  H11  1  0.00975656  0.33569254  0.35291658  1  0  0.112178  0  0.929025  0  0  0.123719  0  0.986526  0  0  0.126634  0  0.985527  0  0  0.109728  0.121783  0  0.987022  0
H  H12  1  0.99469416  0.85301974  0.79124570  1  0  0.094543  0  0.975975  0  0  0.104595  0  1.04079  0  0  0.1059  0  1.041798  0  0  0.103972  0.103605  0  1.04026  0
H  H13  1  0.00530192  0.14697865  0.20875287  1  0  0.094515  0  0.975979  0  0  0.10457  0  1.040786  0  0  0.105904  0  1.041767  0  0  0.103958  0.10358  0  1.040257  0
H  H14  1  0.88065116  0.00451838  0.84758544  1  0  0.107924  0  0.947994  0  0  0.120634  0  1.002891  0  0  0.122843  0  1.003709  0  0  0.108966  0.119098  0  1.002377  0
H  H15  1  0.11934180  0.99547586  0.15241497  1  0  0.10787  0  0.947966  0  0  0.120611  0  1.002834  0  0  0.122802  0  1.003673  0  0  0.10897  0.119073  0  1.002321  0
H  H16  1  0.65338642  0.98065152  0.71909295  1  0  0.0933  0  0.947366  0  0  0.096739  0  1.017135  0  0  0.099636  0  1.014589  0  0  0.116361  0.094568  0  1.019209  0
H  H17  1  0.34660496  0.01933961  0.28090954  1  0  0.093275  0  0.94737  0  0  0.096761  0  1.017076  0  0  0.099663  0  1.01453  0  0  0.116384  0.094589  0  1.019151  0
H  H18  1  0.91849289  0.57419579  0.26283115  1  0  0.095542  0  0.968072  0  0  0.103331  0  1.036041  0  0  0.106689  0  1.033563  0  0  0.100544  0.101012  0  1.037641  0
H  H19  1  0.08151331  0.42580681  0.73716873  1  0  0.095523  0  0.968047  0  0  0.103297  0  1.036044  0  0  0.106655  0  1.033566  0  0  0.100542  0.100979  0  1.037642  0
H  H20  1  0.71213337  0.50573321  0.09238445  1  0  0.081176  0  0.966925  0  0  0.091299  0  1.030494  0  0  0.094116  0  1.029623  0  0  0.093662  0.089104  0  1.031627  0
H  H21  1  0.28787295  0.49427352  0.90761838  1  0  0.081145  0  0.9669  0  0  0.091243  0  1.030518  0  0  0.094051  0  1.029659  0  0  0.093647  0.089092  0  1.031608  0
H  H22  1  0.78543588  0.57256763  0.90500721  1  0  0.075853  0  0.96647  0  0  0.090018  0  1.02473  0  0  0.092569  0  1.023033  0  0  0.095965  0.088217  0  1.026015  0
H  H23  1  0.21456997  0.42744013  0.09499568  1  0  0.075812  0  0.966519  0  0  0.090026  0  1.024722  0  0  0.092576  0  1.023025  0  0  0.095959  0.088219  0  1.02602  0
H  H24  1  0.05408651  0.69966719  0.88717088  1  0  0.080542  0  1.009182  0  0  0.087739  0  1.079208  0  0  0.090822  0  1.078289  0  0  0.087693  0.085667  0  1.079686  0
H  H25  1  0.94591774  0.30033746  0.11282903  1  0  0.080557  0  1.009251  0  0  0.087774  0  1.079248  0  0  0.090861  0  1.078327  0  0  0.087699  0.085702  0  1.079724  0
H  H26  1  0.27024650  0.99782736  0.02359194  1  0  0.077179  0  1.026786  0  0  0.080689  0  1.104133  0  0  0.083693  0  1.103455  0  0  0.084833  0.078412  0  1.104975  0
H  H27  1  0.72974851  0.00216896  0.97640549  1  0  0.077199  0  1.026716  0  0  0.080699  0  1.104081  0  0  0.083691  0  1.103417  0  0  0.084841  0.078423  0  1.104923  0
H  H28  1  0.20801261  0.18365280  0.98234075  1  0  0.079119  0  0.96513  0  0  0.089571  0  1.027691  0  0  0.091963  0  1.026951  0  0  0.093296  0.088043  0  1.027868  0
H  H29  1  0.79198553  0.81634768  0.01766073  1  0  0.079115  0  0.965159  0  0  0.089588  0  1.027686  0  0  0.091979  0  1.026945  0  0  0.093302  0.088058  0  1.027865  0
H  H30  1  0.19679876  0.23737119  0.78371170  1  0  0.086584  0  0.979522  0  0  0.096915  0  1.041509  0  0  0.099019  0  1.042299  0  0  0.093838  0.095467  0  1.040788  0
H  H31  1  0.80320449  0.76263345  0.21628897  1  0  0.08661  0  0.979464  0  0  0.096938  0  1.041457  0  0  0.099042  0  1.042247  0  0  0.093844  0.09549  0  1.040739  0
H  H32  1  0.25313972  0.10383293  0.62918443  1  0  0.092626  0  0.965006  0  0  0.101768  0  1.027632  0  0  0.104987  0  1.025644  0  0  0.100249  0.099428  0  1.029238  0
H  H33  1  0.74686407  0.89617275  0.37081554  1  0  0.092572  0  0.964993  0  0  0.101706  0  1.027635  0  0  0.104909  0  1.025664  0  0  0.100231  0.099365  0  1.029241  0
C  C34  1  0.44913757  0.55413547  0.29506024  1  0  0.149647  0  3.713854  0  0  0.114481  0  3.976046  0  0  0.123386  0  3.99355  0  0  0.057926  0.1087  0  3.964088  0
C  C35  1  0.55086151  0.44586295  0.70493776  1  0  0.149534  0  3.713825  0  0  0.114341  0  3.976021  0  0  0.123252  0  3.993526  0  0  0.057883  0.108562  0  3.964051  0
C  C36  1  0.50106419  0.46216601  0.25387806  1  0  -0.123286  0  3.739852  0  0  -0.136976  0  3.996566  0  0  -0.144304  0  4.017892  0  0  -0.084349  -0.132376  0  3.98236  0
C  C37  1  0.49893436  0.53783137  0.74612062  1  0  -0.123268  0  3.739785  0  0  -0.136942  0  3.99649  0  0  -0.144266  0  4.017812  0  0  -0.084331  -0.132309  0  3.982296  0
C  C38  1  0.62447403  0.46348322  0.31796799  1  0  -0.036812  0  3.650903  0  0  -0.063518  0  3.904606  0  0  -0.060665  0  3.921672  0  0  -0.058813  -0.065022  0  3.89255  0
C  C39  1  0.37552657  0.53651624  0.68203109  1  0  -0.036829  0  3.650923  0  0  -0.063553  0  3.904614  0  0  -0.060707  0  3.921687  0  0  -0.058862  -0.065056  0  3.892548  0
C  C40  1  0.69670786  0.55792203  0.42271950  1  0  0.026012  0  3.768224  0  0  0.041296  0  4.003458  0  0  0.038485  0  4.027705  0  0  0.001335  0.042864  0  3.987236  0
C  C41  1  0.30329070  0.44207535  0.57728087  1  0  0.026013  0  3.76823  0  0  0.041311  0  4.003443  0  0  0.038501  0  4.027688  0  0  0.001334  0.042877  0  3.987225  0
C  C42  1  0.82595355  0.56635191  0.49310422  1  0  -0.075645  0  3.699517  0  0  -0.101348  0  3.958071  0  0  -0.103386  0  3.978303  0  0  -0.073625  -0.09983  0  3.944494  0
C  C43  1  0.17404300  0.43364545  0.50689429  1  0  -0.075698  0  3.699527  0  0  -0.101421  0  3.958103  0  0  -0.103457  0  3.978331  0  0  -0.073673  -0.099903  0  3.944529  0
C  C44  1  0.89174410  0.65864099  0.59405157  1  0  -0.080668  0  3.701012  0  0  -0.102904  0  3.953938  0  0  -0.105935  0  3.976029  0  0  -0.076599  -0.100868  0  3.939043  0
C  C45  1  0.10825145  0.34135637  0.40595022  1  0  -0.080628  0  3.701022  0  0  -0.102853  0  3.953968  0  0  -0.105881  0  3.976055  0  0  -0.076554  -0.100818  0  3.939076  0
C  C46  1  0.83263544  0.74862792  0.63271028  1  0  0.022728  0  3.792414  0  0  0.039005  0  4.022946  0  0  0.036188  0  4.048164  0  0  -0.001134  0.0407  0  4.006214  0
C  C47  1  0.16736364  0.25137050  0.36728940  1  0  0.022754  0  3.792489  0  0  0.038984  0  4.023053  0  0  0.036165  0  4.048277  0  0  -0.001117  0.040678  0  4.00632  0
C  C48  1  0.89552881  0.84450099  0.73713376  1  0  -0.046403  0  3.694119  0  0  -0.06935  0  3.937132  0  0  -0.067584  0  3.957795  0  0  -0.062243  -0.070365  0  3.923828  0
C  C49  1  0.10446574  0.15549637  0.26286709  1  0  -0.046381  0  3.69427  0  0  -0.069326  0  3.937301  0  0  -0.067584  0  3.957942  0  0  -0.062214  -0.07034  0  3.923994  0
C  C50  1  0.83204012  0.92778103  0.76885877  1  0  -0.115955  0  3.724217  0  0  -0.126298  0  3.97141  0  0  -0.133453  0  3.992943  0  0  -0.081672  -0.121981  0  3.95757  0
C  C51  1  0.16795285  0.07221322  0.23114417  1  0  -0.115895  0  3.724286  0  0  -0.126259  0  3.971495  0  0  -0.133398  0  3.993045  0  0  -0.08172  -0.121941  0  3.95765  0
C  C52  1  0.70506352  0.91535512  0.69669223  1  0  0.16058  0  3.660512  0  0  0.127791  0  3.916623  0  0  0.136969  0  3.932073  0  0  0.061153  0.121711  0  3.906604  0
C  C53  1  0.29492739  0.08463705  0.30330947  1  0  0.160635  0  3.660567  0  0  0.1278  0  3.916685  0  0  0.13697  0  3.932139  0  0  0.061168  0.121725  0  3.906661  0
C  C54  1  0.70426529  0.74329106  0.56514383  1  0  0.124192  0  3.762237  0  0  0.118889  0  3.997892  0  0  0.123064  0  4.020604  0  0  0.11497  0.116128  0  3.982336  0
C  C55  1  0.29573179  0.25670734  0.43485483  1  0  0.124101  0  3.762446  0  0  0.118854  0  3.998026  0  0  0.123028  0  4.020738  0  0  0.114966  0.116091  0  3.98247  0
C  C56  1  0.63522234  0.64607050  0.45805224  1  0  0.128332  0  3.755535  0  0  0.122236  0  3.992204  0  0  0.126785  0  4.014738  0  0  0.116557  0.119258  0  3.97681  0
C  C57  1  0.36477680  0.35392998  0.54194681  1  0  0.128349  0  3.755705  0  0  0.122238  0  3.992346  0  0  0.126787  0  4.014883  0  0  0.116525  0.119261  0  3.976952  0
C  C58  1  0.21285408  0.71711113  0.27645140  1  0  0.611029  0  3.955527  0  0  0.564913  0  4.240196  0  0  0.599198  0  4.235117  0  0  0.181944  0.541722  0  4.242872  0
C  C59  1  0.78715311  0.28289148  0.72354773  1  0  0.610959  0  3.955537  0  0  0.564828  0  4.240228  0  0  0.59911  0  4.235153  0  0  0.181924  0.541639  0  4.242898  0
C  C60  1  0.09734553  0.67880685  0.17183649  1  0  -0.103849  0  3.744032  0  0  -0.085931  0  3.975661  0  0  -0.094538  0  3.997275  0  0  -0.025779  -0.080736  0  3.961348  0
C  C61  1  0.90266109  0.32119265  0.82816480  1  0  -0.103902  0  3.743954  0  0  -0.085986  0  3.975672  0  0  -0.094594  0  3.997285  0  0  -0.025823  -0.080795  0  3.961357  0
C  C62  1  0.94416478  0.60259430  0.17963966  1  0  -0.062897  0  3.747479  0  0  -0.085925  0  3.997649  0  0  -0.084032  0  4.015873  0  0  -0.08612  -0.086714  0  3.985008  0
C  C63  1  0.05584343  0.39740831  0.82036293  1  0  -0.062876  0  3.747351  0  0  -0.085888  0  3.997535  0  0  -0.083989  0  4.015753  0  0  -0.086098  -0.086675  0  3.984905  0
C  C64  1  0.83085493  0.56482958  0.08529459  1  0  -0.091761  0  3.806882  0  0  -0.108913  0  4.06625  0  0  -0.112076  0  4.086697  0  0  -0.10208  -0.106683  0  4.052501  0
C  C65  1  0.16915021  0.43517095  0.91470836  1  0  -0.091701  0  3.806753  0  0  -0.108828  0  4.066136  0  0  -0.111986  0  4.086586  0  0  -0.102069  -0.106639  0  4.052372  0
C  C66  1  0.87205916  0.60244064  0.98063743  1  0  -0.044455  0  3.780528  0  0  -0.058185  0  4.030641  0  0  -0.057222  0  4.050162  0  0  -0.089733  -0.058804  0  4.017092  0
C  C67  1  0.12794710  0.39756402  0.01936519  1  0  -0.044465  0  3.780477  0  0  -0.058236  0  4.030597  0  0  -0.057273  0  4.050115  0  0  -0.08977  -0.058857  0  4.017057  0
C  C68  1  0.02356047  0.67606536  0.97043094  1  0  -0.129674  0  3.788115  0  0  -0.148317  0  4.036798  0  0  -0.153659  0  4.060396  0  0  -0.103977  -0.144094  0  4.020263  0
C  C69  1  0.97644526  0.32393827  0.02957069  1  0  -0.12976  0  3.78802  0  0  -0.148392  0  4.036724  0  0  -0.153732  0  4.060322  0  0  -0.104001  -0.144164  0  4.020185  0
C  C70  1  0.13871145  0.71598021  0.06533527  1  0  0.036195  0  3.727637  0  0  0.050856  0  3.978487  0  0  0.054193  0  4.001581  0  0  -0.006729  0.048553  0  3.963118  0
C  C71  1  0.86129317  0.28401928  0.93466585  1  0  0.036304  0  3.727375  0  0  0.050892  0  3.978339  0  0  0.05423  0  4.001427  0  0  -0.006731  0.04859  0  3.962971  0
C  C72  1  0.29245211  0.94304926  0.85004454  1  0  0.039192  0  3.737079  0  0  0.051541  0  3.992755  0  0  0.055667  0  4.013714  0  0  -0.006581  0.048563  0  3.979124  0
C  C73  1  0.70754603  0.05695122  0.14995274  1  0  0.039196  0  3.736977  0  0  0.051465  0  3.992754  0  0  0.055591  0  4.013718  0  0  -0.006623  0.048487  0  3.979124  0
C  C74  1  0.26365812  0.02031359  0.93669337  1  0  -0.145536  0  3.807816  0  0  -0.165324  0  4.061399  0  0  -0.170286  0  4.08311  0  0  -0.108532  -0.161761  0  4.046455  0
C  C75  1  0.73633796  0.97968481  0.06330605  1  0  -0.145562  0  3.807793  0  0  -0.165331  0  4.061433  0  0  -0.17028  0  4.083143  0  0  -0.108548  -0.161768  0  4.046489  0
C  C76  1  0.23109814  0.12599958  0.91344187  1  0  -0.049704  0  3.777554  0  0  -0.060241  0  4.022522  0  0  -0.059199  0  4.041326  0  0  -0.091791  -0.060963  0  4.009336  0
C  C77  1  0.76889900  0.87400089  0.08656037  1  0  -0.049713  0  3.777701  0  0  -0.060258  0  4.022633  0  0  -0.059215  0  4.041439  0  0  -0.091828  -0.060979  0  4.009447  0
C  C78  1  0.22562040  0.15690651  0.80246239  1  0  -0.08664  0  3.781862  0  0  -0.101317  0  4.032178  0  0  -0.104203  0  4.052772  0  0  -0.102327  -0.0993  0  4.018158  0
C  C79  1  0.77438233  0.84309710  0.19753897  1  0  -0.086693  0  3.78188  0  0  -0.101376  0  4.03219  0  0  -0.104264  0  4.052782  0  0  -0.102311  -0.099361  0  4.018172  0
C  C80  1  0.25648522  0.08257723  0.71660303  1  0  -0.049571  0  3.734803  0  0  -0.074333  0  3.985841  0  0  -0.072067  0  4.003136  0  0  -0.086137  -0.075823  0  3.974563  0
C  C81  1  0.74351650  0.91742637  0.28339740  1  0  -0.049417  0  3.734677  0  0  -0.074151  0  3.985663  0  0  -0.071872  0  4.002965  0  0  -0.086073  -0.075641  0  3.974386  0
C  C82  1  0.29108840  0.97679448  0.73816781  1  0  -0.104747  0  3.726735  0  0  -0.086737  0  3.962033  0  0  -0.095069  0  3.982119  0  0  -0.022724  -0.081452  0  3.948811  0
C  C83  1  0.70891179  0.02320808  0.26183070  1  0  -0.1048  0  3.726744  0  0  -0.08678  0  3.962024  0  0  -0.095113  0  3.982109  0  0  -0.022738  -0.081495  0  3.948803  0
C  C84  1  0.32857904  0.90545578  0.64306626  1  0  0.65423  0  3.890196  0  0  0.602783  0  4.176259  0  0  0.638618  0  4.169026  0  0  0.198278  0.57827  0  4.180553  0
C  C85  1  0.67142115  0.09454677  0.35693141  1  0  0.654106  0  3.89029  0  0  0.602706  0  4.17627  0  0  0.638539  0  4.16904  0  0  0.198275  0.578193  0  4.180563  0
S  S86  1  0.33422244  0.80928276  0.05462809  1  0  0.030645  0  2.5185  0  0  0.022096  0  2.894593  0  0  0.02239  0  2.895384  0  0  0.037445  0.021988  0  2.895919  0
S  S87  1  0.66578223  0.19071880  0.94537071  1  0  0.030649  0  2.51846  0  0  0.02213  0  2.894576  0  0  0.022421  0  2.895362  0  0  0.037478  0.022019  0  2.895904  0
S  S88  1  0.32895525  0.80462182  0.87868243  1  0  -0.011025  0  2.494759  0  0  -0.015837  0  2.8703  0  0  -0.017064  0  2.869516  0  0  0.024301  -0.015363  0  2.872575  0
S  S89  1  0.67104694  0.19538075  0.12131625  1  0  -0.011014  0  2.494697  0  0  -0.015797  0  2.870263  0  0  -0.017026  0  2.86948  0  0  0.024322  -0.015323  0  2.872536  0
N  N90  1  0.51325502  0.64195510  0.39415005  1  0  -0.36248  0  3.278279  0  0  -0.294738  0  3.547439  0  0  -0.315117  0  3.567561  0  0  -0.322951  -0.280676  0  3.533193  0
N  N91  1  0.48674406  0.35804331  0.60584710  1  0  -0.362386  0  3.278271  0  0  -0.294621  0  3.547417  0  0  -0.315002  0  3.567542  0  0  -0.322857  -0.280559  0  3.533171  0
N  N92  1  0.64375878  0.82591569  0.59802429  1  0  -0.349019  0  3.258846  0  0  -0.280532  0  3.521659  0  0  -0.300185  0  3.540327  0  0  -0.320476  -0.26701  0  3.508541  0
N  N93  1  0.35623472  0.17407959  0.40197542  1  0  -0.349051  0  3.258943  0  0  -0.280568  0  3.521749  0  0  -0.300221  0  3.540418  0  0  -0.320485  -0.267045  0  3.508629  0
O  O94  1  0.34950605  0.80644304  0.27181148  1  0  -0.624261  0  2.026469  0  0  -0.555119  0  2.272307  0  0  -0.586682  0  2.266631  0  0  -0.317032  -0.532668  0  2.274921  0
O  O95  1  0.65049763  0.19355851  0.72818976  1  0  -0.624306  0  2.026396  0  0  -0.555143  0  2.272242  0  0  -0.586701  0  2.266565  0  0  -0.317043  -0.53269  0  2.274856  0
O  O96  1  0.17653763  0.66291151  0.36492715  1  0  -0.62434  0  1.931532  0  0  -0.569167  0  2.164084  0  0  -0.596986  0  2.156974  0  0  -0.330702  -0.549826  0  2.168368  0
O  O97  1  0.82347052  0.33708903  0.63507269  1  0  -0.62422  0  1.93165  0  0  -0.569055  0  2.164238  0  0  -0.596876  0  2.157128  0  0  -0.330602  -0.549718  0  2.168516  0
O  O98  1  0.36669789  0.96412556  0.55483297  1  0  -0.667279  0  2.056902  0  0  -0.585811  0  2.310971  0  0  -0.618664  0  2.299697  0  0  -0.337034  -0.563136  0  2.317852  0
O  O99  1  0.63330489  0.03588011  0.44516607  1  0  -0.667288  0  2.056897  0  0  -0.585861  0  2.310976  0  0  -0.618706  0  2.299703  0  0  -0.337094  -0.563181  0  2.317857  0
O  O100  1  0.32439854  0.79000870  0.65084069  1  0  -0.615587  0  1.980389  0  0  -0.556806  0  2.223326  0  0  -0.585101  0  2.215585  0  0  -0.308144  -0.536735  0  2.227859  0
O  O101  1  0.67560012  0.20999281  0.34915589  1  0  -0.615491  0  1.980465  0  0  -0.556718  0  2.223371  0  0  -0.585017  0  2.215632  0  0  -0.308097  -0.536649  0  2.227902  0
