# generated using pymatgen
data_TlH23C14S(N2O)2
_symmetry_space_group_name_H-M   'P 1'
_cell_length_a   7.30732966
_cell_length_b   8.31339969
_cell_length_c   16.30793399
_cell_angle_alpha   95.06603477
_cell_angle_beta   95.23001728
_cell_angle_gamma   102.84547467
_symmetry_Int_Tables_number   1
_chemical_formula_structural   TlH23C14S(N2O)2
_chemical_formula_sum   'Tl2 H46 C28 S2 N8 O4'
_cell_volume   955.83910124
_cell_formula_units_Z   2
loop_
 _symmetry_equiv_pos_site_id
 _symmetry_equiv_pos_as_xyz
  1  'x, y, z'
loop_
 _atom_site_type_symbol
 _atom_site_label
 _atom_site_symmetry_multiplicity
 _atom_site_fract_x
 _atom_site_fract_y
 _atom_site_fract_z
 _atom_site_occupancy
 _atom_site_hle17_bader_spin_density
 _atom_site_hle17_ddec_charge
 _atom_site_hle17_ddec_spin_density
 _atom_site_hle17_ddec_sum_bond_order
 _atom_site_hle17_magmom
 _atom_site_hse06_10hf_bader_spin_density
 _atom_site_hse06_10hf_ddec_charge
 _atom_site_hse06_10hf_ddec_spin_density
 _atom_site_hse06_10hf_ddec_sum_bond_order
 _atom_site_hse06_10hf_magmom
 _atom_site_hse06_bader_spin_density
 _atom_site_hse06_ddec_charge
 _atom_site_hse06_ddec_spin_density
 _atom_site_hse06_ddec_sum_bond_order
 _atom_site_hse06_magmom
 _atom_site_pbe_bader_spin_density
 _atom_site_pbe_cm5_charge
 _atom_site_pbe_ddec_charge
 _atom_site_pbe_ddec_spin_density
 _atom_site_pbe_ddec_sum_bond_order
 _atom_site_pbe_magmom
Tl  Tl0  1  0.01925048  0.23840817  0.00859989  1  0  0.933967  0  2.311826  0  0  0.828375  0  2.794906  0  0  0.861794  0  2.778998  0  0  0.413891  0.805517  0  2.80528  0
Tl  Tl1  1  0.98075428  0.76160256  0.99139914  1  0  0.934037  0  2.311784  0  0  0.828448  0  2.794886  0  0  0.861878  0  2.77895  0  0  0.413931  0.805587  0  2.805267  0
H  H2  1  0.12677791  0.52191536  0.81657537  1  0  0.037951  0  0.93006  0  0  0.045697  0  1.001721  0  0  0.048365  0  0.995673  0  0  0.118741  0.043634  0  1.006088  0
H  H3  1  0.87324431  0.47805068  0.18341932  1  0  0.037843  0  0.929903  0  0  0.045597  0  1.001569  0  0  0.048249  0  0.995554  0  0  0.11864  0.043526  0  1.00595  0
H  H4  1  0.66429715  0.95210657  0.39123536  1  0  0.119191  0  0.9577  0  0  0.136662  0  1.022729  0  0  0.138616  0  1.022282  0  0  0.091869  0.135262  0  1.023073  0
H  H5  1  0.33569256  0.04788759  0.60875447  1  0  0.119175  0  0.957643  0  0  0.136653  0  1.022666  0  0  0.138623  0  1.022201  0  0  0.09189  0.135246  0  1.023016  0
H  H6  1  0.53077826  0.09520802  0.42373917  1  0  0.133295  0  0.956245  0  0  0.148474  0  1.025214  0  0  0.151113  0  1.023873  0  0  0.095855  0.146598  0  1.026199  0
H  H7  1  0.46920039  0.90478625  0.57625384  1  0  0.133386  0  0.956247  0  0  0.148548  0  1.025217  0  0  0.151186  0  1.023877  0  0  0.0959  0.146671  0  1.026202  0
H  H8  1  0.72827413  0.16343445  0.36845722  1  0  0.120429  0  0.942514  0  0  0.143235  0  0.99796  0  0  0.14515  0  0.997232  0  0  0.094451  0.141804  0  0.998557  0
H  H9  1  0.27171108  0.83655861  0.63153604  1  0  0.120362  0  0.942455  0  0  0.14317  0  0.997921  0  0  0.145086  0  0.997193  0  0  0.094391  0.141739  0  0.998516  0
H  H10  1  0.13275601  0.13161619  0.75585154  1  0  0.079693  0  0.968245  0  0  0.088658  0  1.042183  0  0  0.090582  0  1.040489  0  0  0.096583  0.087151  0  1.043521  0
H  H11  1  0.86724085  0.86839559  0.24414411  1  0  0.079655  0  0.968163  0  0  0.088677  0  1.042075  0  0  0.090601  0  1.040386  0  0  0.096599  0.087167  0  1.043414  0
H  H12  1  0.21693011  0.34460146  0.74365355  1  0  0.070138  0  0.957898  0  0  0.086798  0  1.022681  0  0  0.087395  0  1.021657  0  0  0.110139  0.086206  0  1.023585  0
H  H13  1  0.78309622  0.65536930  0.25633535  1  0  0.070069  0  0.957781  0  0  0.08668  0  1.022728  0  0  0.08728  0  1.021703  0  0  0.110048  0.086093  0  1.023621  0
H  H14  1  0.60499798  0.34546162  0.78899770  1  0  0.110826  0  0.968799  0  0  0.129362  0  1.034477  0  0  0.13184  0  1.032468  0  0  0.092338  0.127551  0  1.035922  0
H  H15  1  0.39501037  0.65455789  0.21100363  1  0  0.110815  0  0.968819  0  0  0.129373  0  1.034499  0  0  0.131856  0  1.032485  0  0  0.092328  0.127564  0  1.035944  0
H  H16  1  0.62527196  0.25174983  0.68793538  1  0  0.111089  0  0.938601  0  0  0.133228  0  0.996773  0  0  0.134345  0  0.997225  0  0  0.091598  0.132397  0  0.9965  0
H  H17  1  0.37472881  0.74828813  0.31206437  1  0  0.111106  0  0.938792  0  0  0.13326  0  0.996942  0  0  0.134381  0  0.997389  0  0  0.091613  0.132429  0  0.996673  0
H  H18  1  0.47794567  0.13877291  0.75438448  1  0  0.111603  0  0.974302  0  0  0.135442  0  1.030743  0  0  0.136486  0  1.031061  0  0  0.092941  0.13463  0  1.030592  0
H  H19  1  0.52204802  0.86123334  0.24562617  1  0  0.111578  0  0.974482  0  0  0.135422  0  1.030912  0  0  0.136463  0  1.031234  0  0  0.092983  0.134612  0  1.030761  0
H  H20  1  0.18523272  0.52366243  0.66002133  1  0  0.30652  0  0.94041  0  0  0.287291  0  1.012731  0  0  0.294436  0  1.00691  0  0  0.289743  0.282195  0  1.016881  0
H  H21  1  0.81476735  0.47630852  0.33997435  1  0  0.306511  0  0.940528  0  0  0.287316  0  1.012785  0  0  0.294454  0  1.006978  0  0  0.289677  0.282219  0  1.016936  0
H  H22  1  0.09010022  0.56683577  0.56413040  1  0  0.317218  0  0.954279  0  0  0.28901  0  1.035973  0  0  0.298635  0  1.027787  0  0  0.283899  0.28223  0  1.041644  0
H  H23  1  0.90989421  0.43314025  0.43586825  1  0  0.317161  0  0.954413  0  0  0.289008  0  1.036044  0  0  0.298633  0  1.027859  0  0  0.283835  0.282231  0  1.041715  0
H  H24  1  0.46916796  0.92640294  0.79154876  1  0  0.080696  0  0.941615  0  0  0.100529  0  0.995716  0  0  0.101604  0  0.995875  0  0  0.094387  0.099685  0  0.995761  0
H  H25  1  0.53084428  0.07361044  0.20845377  1  0  0.080633  0  0.94163  0  0  0.100544  0  0.995668  0  0  0.101624  0  0.995818  0  0  0.094396  0.0997  0  0.995717  0
H  H26  1  0.57951674  0.83514702  0.87023140  1  0  0.082984  0  0.949405  0  0  0.101514  0  1.009667  0  0  0.102324  0  1.010415  0  0  0.095473  0.10087  0  1.009229  0
H  H27  1  0.42049129  0.16487124  0.12976988  1  0  0.082856  0  0.949437  0  0  0.101414  0  1.009706  0  0  0.102225  0  1.010453  0  0  0.095446  0.100776  0  1.009261  0
H  H28  1  0.74223648  0.70024873  0.76536823  1  0  0.04417  0  0.949401  0  0  0.054679  0  1.020435  0  0  0.055485  0  1.019783  0  0  0.091077  0.054048  0  1.020919  0
H  H29  1  0.25777978  0.29976969  0.23463588  1  0  0.04414  0  0.949294  0  0  0.054714  0  1.02027  0  0  0.05552  0  1.019618  0  0  0.091023  0.054085  0  1.020753  0
H  H30  1  0.62254353  0.78496328  0.68501047  1  0  0.040973  0  0.935035  0  0  0.057255  0  0.997848  0  0  0.057289  0  0.997693  0  0  0.09445  0.057151  0  0.998042  0
H  H31  1  0.37746457  0.21505013  0.31499310  1  0  0.040928  0  0.934888  0  0  0.057183  0  0.99776  0  0  0.057218  0  0.997597  0  0  0.09442  0.05708  0  0.997951  0
H  H32  1  0.49011738  0.50535817  0.72392598  1  0  0.349731  0  0.883361  0  0  0.340728  0  0.935506  0  0  0.347782  0  0.927481  0  0  0.311351  0.335717  0  0.941289  0
H  H33  1  0.50991808  0.49465133  0.27609834  1  0  0.349698  0  0.88331  0  0  0.340798  0  0.935306  0  0  0.347852  0  0.927282  0  0  0.311384  0.335788  0  0.941094  0
H  H34  1  0.91221396  0.94314198  0.65531482  1  0  0.069128  0  0.932951  0  0  0.079325  0  0.997317  0  0  0.081956  0  0.99432  0  0  0.108928  0.077375  0  0.999453  0
H  H35  1  0.08774396  0.05682005  0.34467864  1  0  0.06903  0  0.933015  0  0  0.079289  0  0.997344  0  0  0.081931  0  0.994315  0  0  0.108904  0.077332  0  0.999506  0
H  H36  1  0.64897170  0.21813671  0.96318692  1  0  0.151048  0  0.996325  0  0  0.169508  0  1.051603  0  0  0.17171  0  1.053471  0  0  0.085908  0.167844  0  1.050528  0
H  H37  1  0.35101032  0.78186245  0.03683216  1  0  0.150995  0  0.996257  0  0  0.169479  0  1.051531  0  0  0.171687  0  1.053386  0  0  0.085876  0.16781  0  1.050465  0
H  H38  1  0.67271477  0.05179153  0.02449522  1  0  0.150666  0  0.986669  0  0  0.172469  0  1.038372  0  0  0.174626  0  1.040283  0  0  0.085079  0.170913  0  1.037049  0
H  H39  1  0.32729514  0.94822041  0.97553047  1  0  0.150651  0  0.986713  0  0  0.17243  0  1.038449  0  0  0.174587  0  1.04036  0  0  0.085111  0.170877  0  1.037121  0
H  H40  1  0.69643815  0.25706783  0.07458860  1  0  0.138671  0  1.002635  0  0  0.156863  0  1.062769  0  0  0.15886  0  1.064071  0  0  0.082466  0.155364  0  1.062051  0
H  H41  1  0.30356767  0.74293240  0.92542486  1  0  0.138754  0  1.00249  0  0  0.156971  0  1.062618  0  0  0.158967  0  1.063922  0  0  0.082481  0.155474  0  1.061896  0
H  H42  1  0.39766545  0.35430463  0.04059901  1  0  0.149034  0  0.994881  0  0  0.169164  0  1.047909  0  0  0.171839  0  1.048696  0  0  0.086456  0.167199  0  1.047525  0
H  H43  1  0.60234411  0.64571315  0.95939128  1  0  0.149015  0  0.995052  0  0  0.169078  0  1.04816  0  0  0.171759  0  1.048934  0  0  0.086423  0.167113  0  1.047773  0
H  H44  1  0.30305165  0.47154862  0.96801192  1  0  0.143121  0  1.00423  0  0  0.163969  0  1.059416  0  0  0.165391  0  1.062282  0  0  0.085661  0.162903  0  1.057469  0
H  H45  1  0.69693251  0.52844565  0.03198073  1  0  0.143001  0  1.004247  0  0  0.163863  0  1.059431  0  0  0.165287  0  1.062293  0  0  0.085663  0.162798  0  1.057485  0
H  H46  1  0.33822421  0.26985807  0.93302516  1  0  0.146653  0  0.989763  0  0  0.164549  0  1.04605  0  0  0.167107  0  1.047197  0  0  0.081816  0.162672  0  1.04539  0
H  H47  1  0.66173020  0.73013658  0.06695079  1  0  0.146555  0  0.989823  0  0  0.164465  0  1.046103  0  0  0.167014  0  1.047263  0  0  0.081866  0.162601  0  1.045428  0
C  C48  1  0.90579363  0.04282766  0.61633111  1  0  0.133202  0  3.776943  0  0  0.093783  0  4.048728  0  0  0.105688  0  4.063719  0  0  0.045034  0.08626  0  4.038391  0
C  C49  1  0.09418312  0.95715447  0.38366755  1  0  0.133316  0  3.77693  0  0  0.093873  0  4.04878  0  0  0.105778  0  4.063764  0  0  0.044944  0.086349  0  4.038447  0
C  C50  1  0.79779637  0.12409717  0.49555115  1  0  0.484405  0  3.749485  0  0  0.474161  0  4.013169  0  0  0.492253  0  4.025282  0  0  0.243758  0.462252  0  4.004563  0
C  C51  1  0.20219093  0.87588888  0.50445118  1  0  0.484367  0  3.749337  0  0  0.474124  0  4.012996  0  0  0.492213  0  4.025118  0  0  0.243816  0.462219  0  4.004381  0
C  C52  1  0.67437700  0.08181070  0.41441621  1  0  -0.400249  0  3.678678  0  0  -0.481406  0  3.916176  0  0  -0.486062  0  3.921567  0  0  -0.240018  -0.47796  0  3.912274  0
C  C53  1  0.32561784  0.91818244  0.58557811  1  0  -0.400177  0  3.678761  0  0  -0.481344  0  3.91632  0  0  -0.486008  0  3.921685  0  0  -0.240034  -0.477896  0  3.912421  0
C  C54  1  0.99572175  0.32628811  0.59104195  1  0  0.478549  0  3.839316  0  0  0.441537  0  4.109447  0  0  0.463901  0  4.120466  0  0  0.232284  0.426713  0  4.101546  0
C  C55  1  0.00427262  0.67369269  0.40895318  1  0  0.478409  0  3.839145  0  0  0.441563  0  4.109122  0  0  0.463921  0  4.12014  0  0  0.232321  0.426743  0  4.101221  0
C  C56  1  0.00297474  0.20336601  0.64594520  1  0  -0.168297  0  3.758944  0  0  -0.14489  0  4.008063  0  0  -0.159284  0  4.034122  0  0  -0.037562  -0.135898  0  3.990823  0
C  C57  1  0.99698613  0.79661853  0.35405342  1  0  -0.168244  0  3.758784  0  0  -0.145023  0  4.008196  0  0  -0.15939  0  4.034211  0  0  -0.0376  -0.136045  0  3.990983  0
C  C58  1  0.09132247  0.24128451  0.73396692  1  0  -0.019823  0  3.694016  0  0  -0.09236  0  3.954004  0  0  -0.085441  0  3.964993  0  0  -0.062068  -0.096774  0  3.946639  0
C  C59  1  0.90868186  0.75871842  0.26602387  1  0  -0.019613  0  3.693728  0  0  -0.092256  0  3.953903  0  0  -0.085354  0  3.964894  0  0  -0.061949  -0.096658  0  3.946537  0
C  C60  1  0.99230622  0.44115219  0.82937735  1  0  0.39275  0  3.840631  0  0  0.323694  0  4.131914  0  0  0.352104  0  4.130312  0  0  0.173705  0.304696  0  4.1324  0
C  C61  1  0.00771721  0.55885603  0.17061939  1  0  0.393031  0  3.841376  0  0  0.323921  0  4.132615  0  0  0.352328  0  4.131009  0  0  0.173836  0.304927  0  4.133097  0
C  C62  1  0.77779405  0.16999682  0.78959162  1  0  0.123448  0  3.68552  0  0  0.126244  0  3.940466  0  0  0.129356  0  3.964873  0  0  0.061461  0.124117  0  3.923941  0
C  C63  1  0.22221177  0.83001267  0.21040743  1  0  0.123432  0  3.685628  0  0  0.126192  0  3.940502  0  0  0.129302  0  3.964917  0  0  0.061475  0.124058  0  3.923981  0
C  C64  1  0.61148499  0.22873268  0.75292582  1  0  -0.353875  0  3.749131  0  0  -0.435585  0  3.986001  0  0  -0.438644  0  3.996585  0  0  -0.241988  -0.433166  0  3.978675  0
C  C65  1  0.38851354  0.77127583  0.24707960  1  0  -0.353797  0  3.749553  0  0  -0.435597  0  3.986426  0  0  -0.438664  0  3.997007  0  0  -0.24206  -0.433178  0  3.979105  0
C  C66  1  0.77377887  0.02100685  0.81891959  1  0  0.038135  0  3.728548  0  0  0.045896  0  3.99373  0  0  0.048854  0  4.017241  0  0  -0.01125  0.043708  0  3.977657  0
C  C67  1  0.22621447  0.97900287  0.18108564  1  0  0.037977  0  3.728567  0  0  0.045806  0  3.993683  0  0  0.048758  0  4.017201  0  0  -0.011291  0.043624  0  3.977611  0
C  C68  1  0.59672604  0.88303078  0.81001664  1  0  -0.166402  0  3.703599  0  0  -0.207958  0  3.952459  0  0  -0.211005  0  3.966509  0  0  -0.163366  -0.205661  0  3.942762  0
C  C69  1  0.40327601  0.11697516  0.18998641  1  0  -0.166234  0  3.703611  0  0  -0.207901  0  3.952487  0  0  -0.21095  0  3.966546  0  0  -0.163361  -0.20561  0  3.942793  0
C  C70  1  0.61312483  0.74163860  0.74679053  1  0  0.150365  0  3.610974  0  0  0.09278  0  3.888568  0  0  0.100192  0  3.894245  0  0  -0.077555  0.087799  0  3.884589  0
C  C71  1  0.38689676  0.25837350  0.25320994  1  0  0.150625  0  3.610648  0  0  0.092988  0  3.888333  0  0  0.1004  0  3.894011  0  0  -0.077383  0.08801  0  3.884351  0
C  C72  1  0.71958916  0.18433795  0.01885640  1  0  -0.621149  0  3.514032  0  0  -0.667119  0  3.75692  0  0  -0.680936  0  3.766819  0  0  -0.337739  -0.657584  0  3.750333  0
C  C73  1  0.28042888  0.81567216  0.98115549  1  0  -0.62114  0  3.513921  0  0  -0.667175  0  3.756781  0  0  -0.680995  0  3.766679  0  0  -0.337738  -0.657635  0  3.750178  0
C  C74  1  0.30199372  0.34652810  0.98416990  1  0  -0.611005  0  3.520552  0  0  -0.657755  0  3.7626  0  0  -0.671367  0  3.771872  0  0  -0.335274  -0.648301  0  3.75638  0
C  C75  1  0.69800311  0.65347222  0.01581862  1  0  -0.610866  0  3.520688  0  0  -0.657576  0  3.762784  0  0  -0.671176  0  3.77206  0  0  -0.335332  -0.648136  0  3.756551  0
S  S76  1  0.97984163  0.97431311  0.86536603  1  0  -0.551867  0  2.160785  0  0  -0.506281  0  2.512567  0  0  -0.528015  0  2.51286  0  0  -0.202808  -0.490737  0  2.511837  0
S  S77  1  0.02014963  0.02569896  0.13463673  1  0  -0.55185  0  2.160652  0  0  -0.50632  0  2.512433  0  0  -0.528055  0  2.512728  0  0  -0.202838  -0.490772  0  2.511701  0
N  N78  1  0.80106878  0.99914283  0.54224590  1  0  -0.441086  0  3.016154  0  0  -0.413612  0  3.293165  0  0  -0.430551  0  3.30417  0  0  -0.350477  -0.402447  0  3.285565  0
N  N79  1  0.19891341  0.00084419  0.45775071  1  0  -0.441116  0  3.015973  0  0  -0.413614  0  3.292963  0  0  -0.430557  0  3.303971  0  0  -0.35038  -0.402444  0  3.285359  0
N  N80  1  0.89211822  0.28263514  0.51569794  1  0  -0.506241  0  2.995404  0  0  -0.451762  0  3.237437  0  0  -0.472417  0  3.2465  0  0  -0.325587  -0.438047  0  3.231147  0
N  N81  1  0.10788102  0.71734325  0.48429795  1  0  -0.506195  0  2.995308  0  0  -0.451685  0  3.237182  0  0  -0.472338  0  3.246248  0  0  -0.325603  -0.437968  0  3.230888  0
N  N82  1  0.08480166  0.48762861  0.61035509  1  0  -0.666792  0  3.127768  0  0  -0.626551  0  3.364741  0  0  -0.648739  0  3.360218  0  0  -0.579061  -0.610946  0  3.367327  0
N  N83  1  0.91520299  0.51233857  0.38963883  1  0  -0.666796  0  3.12776  0  0  -0.626664  0  3.364602  0  0  -0.648851  0  3.360081  0  0  -0.57901  -0.611055  0  3.367188  0
N  N84  1  0.95633100  0.28668679  0.78925269  1  0  -0.198442  0  3.472176  0  0  -0.107599  0  3.692274  0  0  -0.129561  0  3.717093  0  0  -0.260163  -0.092859  0  3.675146  0
N  N85  1  0.04367339  0.71332748  0.21074277  1  0  -0.198699  0  3.472199  0  0  -0.107632  0  3.69212  0  0  -0.129589  0  3.71693  0  0  -0.26027  -0.092886  0  3.674984  0
O  O86  1  0.44939882  0.60436466  0.74349563  1  0  -0.556477  0  2.019718  0  0  -0.507582  0  2.234135  0  0  -0.522007  0  2.222586  0  0  -0.414404  -0.497342  0  2.241953  0
O  O87  1  0.55062307  0.39564873  0.25650612  1  0  -0.556556  0  2.019468  0  0  -0.507755  0  2.233836  0  0  -0.522176  0  2.222286  0  0  -0.414479  -0.497516  0  2.24165  0
O  O88  1  0.88792190  0.49004473  0.87759559  1  0  -0.537911  0  2.05872  0  0  -0.4804  0  2.306023  0  0  -0.503047  0  2.300994  0  0  -0.292002  -0.464729  0  2.308889  0
O  O89  1  0.11209172  0.50998020  0.12241597  1  0  -0.537859  0  2.059789  0  0  -0.480328  0  2.307124  0  0  -0.502964  0  2.302083  0  0  -0.291912  -0.464659  0  2.309988  0
