# generated using pymatgen
data_AgH7C5N5O2
_symmetry_space_group_name_H-M   'P 1'
_cell_length_a   6.28398445
_cell_length_b   10.47544959
_cell_length_c   11.92636164
_cell_angle_alpha   89.99940399
_cell_angle_beta   89.99999621
_cell_angle_gamma   101.59261883
_symmetry_Int_Tables_number   1
_chemical_formula_structural   AgH7C5N5O2
_chemical_formula_sum   'Ag4 H28 C20 N20 O8'
_cell_volume   769.06851364
_cell_formula_units_Z   4
loop_
 _symmetry_equiv_pos_site_id
 _symmetry_equiv_pos_as_xyz
  1  'x, y, z'
loop_
 _atom_site_type_symbol
 _atom_site_label
 _atom_site_symmetry_multiplicity
 _atom_site_fract_x
 _atom_site_fract_y
 _atom_site_fract_z
 _atom_site_occupancy
 _atom_site_hle17_bader_spin_density
 _atom_site_hle17_ddec_charge
 _atom_site_hle17_ddec_spin_density
 _atom_site_hle17_ddec_sum_bond_order
 _atom_site_hle17_magmom
 _atom_site_hse06_10hf_bader_spin_density
 _atom_site_hse06_10hf_ddec_charge
 _atom_site_hse06_10hf_ddec_spin_density
 _atom_site_hse06_10hf_ddec_sum_bond_order
 _atom_site_hse06_10hf_magmom
 _atom_site_hse06_bader_spin_density
 _atom_site_hse06_ddec_charge
 _atom_site_hse06_ddec_spin_density
 _atom_site_hse06_ddec_sum_bond_order
 _atom_site_hse06_magmom
 _atom_site_pbe_bader_spin_density
 _atom_site_pbe_cm5_charge
 _atom_site_pbe_ddec_charge
 _atom_site_pbe_ddec_spin_density
 _atom_site_pbe_ddec_sum_bond_order
 _atom_site_pbe_magmom
Ag  Ag0  1  0.93128721  0.61311236  0.62379076  1  0  0.588992  0  1.402161  0  0  0.465525  0  1.834334  0  0  0.494171  0  1.788639  0  0  0.465407  0.444714  0  1.866543  0
Ag  Ag1  1  0.06871161  0.88689088  0.12379326  1  0  0.588863  0  1.402279  0  0  0.46545  0  1.834413  0  0  0.494101  0  1.78872  0  0  0.465345  0.44464  0  1.86662  0
Ag  Ag2  1  0.06863419  0.38688807  0.37622645  1  0  0.588977  0  1.402296  0  0  0.465484  0  1.834502  0  0  0.494117  0  1.788817  0  0  0.465381  0.444675  0  1.866707  0
Ag  Ag3  1  0.93135779  0.11311875  0.87622646  1  0  0.588992  0  1.402223  0  0  0.465467  0  1.834481  0  0  0.494101  0  1.788794  0  0  0.465404  0.444656  0  1.866684  0
H  H4  1  0.63111562  0.40610296  0.72810898  1  0  0.345756  0  0.88437  0  0  0.325698  0  0.950532  0  0  0.332956  0  0.944887  0  0  0.307919  0.320605  0  0.954418  0
H  H5  1  0.36889908  0.09390103  0.22812198  1  0  0.345741  0  0.884346  0  0  0.325673  0  0.950546  0  0  0.332923  0  0.944919  0  0  0.307895  0.320583  0  0.954429  0
H  H6  1  0.36890286  0.59386979  0.27189229  1  0  0.345688  0  0.88427  0  0  0.325636  0  0.950449  0  0  0.332885  0  0.94481  0  0  0.307868  0.320548  0  0.954344  0
H  H7  1  0.63109155  0.90612938  0.77189522  1  0  0.345663  0  0.884383  0  0  0.32563  0  0.950532  0  0  0.332879  0  0.944893  0  0  0.307856  0.320542  0  0.954425  0
H  H8  1  0.64147374  0.25436754  0.79217850  1  0  0.348595  0  0.888682  0  0  0.329054  0  0.955078  0  0  0.336845  0  0.948118  0  0  0.305821  0.323477  0  0.960167  0
H  H9  1  0.35853871  0.24563395  0.29219381  1  0  0.348663  0  0.888647  0  0  0.329122  0  0.955022  0  0  0.336915  0  0.948059  0  0  0.305855  0.323545  0  0.960116  0
H  H10  1  0.35857469  0.74560899  0.20781774  1  0  0.348697  0  0.888597  0  0  0.329126  0  0.955049  0  0  0.336919  0  0.948082  0  0  0.30583  0.323551  0  0.960139  0
H  H11  1  0.64142698  0.75438875  0.70782423  1  0  0.348572  0  0.888724  0  0  0.329036  0  0.955116  0  0  0.336826  0  0.948159  0  0  0.305821  0.323461  0  0.960206  0
H  H12  1  0.46498515  0.38177099  0.02305414  1  0  0.327009  0  0.93821  0  0  0.299552  0  1.015183  0  0  0.309004  0  1.007295  0  0  0.291229  0.29293  0  1.020629  0
H  H13  1  0.53501539  0.11822526  0.52306768  1  0  0.327037  0  0.938074  0  0  0.299587  0  1.015012  0  0  0.309038  0  1.007125  0  0  0.291278  0.292965  0  1.020455  0
H  H14  1  0.53507147  0.61825235  0.97693456  1  0  0.327028  0  0.93842  0  0  0.299669  0  1.015313  0  0  0.309125  0  1.007422  0  0  0.291265  0.293041  0  1.020766  0
H  H15  1  0.46493860  0.88174967  0.47694198  1  0  0.326981  0  0.938469  0  0  0.299621  0  1.015368  0  0  0.309078  0  1.007475  0  0  0.291234  0.292996  0  1.020821  0
H  H16  1  0.27469353  0.23261750  0.99544394  1  0  0.328631  0  0.939637  0  0  0.306551  0  1.011061  0  0  0.314888  0  1.003728  0  0  0.291859  0.300553  0  1.016454  0
H  H17  1  0.72531248  0.26737930  0.49545469  1  0  0.328701  0  0.939522  0  0  0.306568  0  1.011004  0  0  0.314904  0  1.003671  0  0  0.291864  0.300574  0  1.01638  0
H  H18  1  0.72537277  0.76739703  0.00454894  1  0  0.328677  0  0.939438  0  0  0.306668  0  1.010787  0  0  0.315004  0  1.003455  0  0  0.291974  0.300672  0  1.016178  0
H  H19  1  0.27462772  0.73260642  0.50455832  1  0  0.328587  0  0.939645  0  0  0.306575  0  1.011001  0  0  0.314909  0  1.00367  0  0  0.291899  0.300581  0  1.016389  0
H  H20  1  0.35405290  0.77308701  0.90537955  1  0  0.126057  0  0.955331  0  0  0.148903  0  1.00993  0  0  0.150427  0  1.009886  0  0  0.098577  0.147583  0  1.01028  0
H  H21  1  0.64594223  0.72690954  0.40537538  1  0  0.126003  0  0.955376  0  0  0.148887  0  1.009923  0  0  0.150395  0  1.009902  0  0  0.098592  0.147574  0  1.010265  0
H  H22  1  0.64593736  0.22692389  0.09461501  1  0  0.126138  0  0.955393  0  0  0.149012  0  1.009928  0  0  0.150524  0  1.009901  0  0  0.098678  0.147705  0  1.010258  0
H  H23  1  0.35404222  0.27307992  0.59460493  1  0  0.126071  0  0.955536  0  0  0.148906  0  1.010115  0  0  0.150439  0  1.010064  0  0  0.098595  0.147585  0  1.010464  0
H  H24  1  0.08023303  0.78258406  0.87346343  1  0  0.139024  0  0.93182  0  0  0.157056  0  0.998624  0  0  0.160136  0  0.996312  0  0  0.10097  0.154899  0  1.000291  0
H  H25  1  0.91976676  0.71741469  0.37346566  1  0  0.139014  0  0.931809  0  0  0.15705  0  0.998613  0  0  0.160118  0  0.996311  0  0  0.100967  0.154894  0  1.000282  0
H  H26  1  0.91975512  0.21741612  0.12652778  1  0  0.139072  0  0.931815  0  0  0.157133  0  0.998575  0  0  0.160193  0  0.996287  0  0  0.10098  0.154972  0  1.00025  0
H  H27  1  0.08022641  0.28258157  0.62653477  1  0  0.139062  0  0.931734  0  0  0.15709  0  0.998532  0  0  0.160166  0  0.996229  0  0  0.100983  0.154929  0  1.000203  0
H  H28  1  0.25990463  0.76489138  0.76327346  1  0  0.129344  0  0.961052  0  0  0.148757  0  1.024226  0  0  0.151558  0  1.022476  0  0  0.098537  0.146734  0  1.025462  0
H  H29  1  0.74010309  0.73511055  0.26327241  1  0  0.129369  0  0.961091  0  0  0.148769  0  1.024285  0  0  0.151574  0  1.022526  0  0  0.098536  0.146745  0  1.025523  0
H  H30  1  0.74008963  0.23511268  0.23672026  1  0  0.12937  0  0.961067  0  0  0.148775  0  1.024253  0  0  0.151579  0  1.022499  0  0  0.098549  0.146749  0  1.025493  0
H  H31  1  0.25991526  0.26488952  0.73671545  1  0  0.129369  0  0.9611  0  0  0.148787  0  1.024264  0  0  0.151591  0  1.022511  0  0  0.098557  0.146761  0  1.0255  0
C  C32  1  0.89983211  0.40525513  0.82157999  1  0  0.687773  0  3.844463  0  0  0.631907  0  4.12497  0  0  0.662293  0  4.129715  0  0  0.349191  0.611247  0  4.121302  0
C  C33  1  0.10018165  0.09474928  0.32158476  1  0  0.687704  0  3.844981  0  0  0.632013  0  4.125218  0  0  0.662407  0  4.129958  0  0  0.349267  0.611348  0  4.121557  0
C  C34  1  0.10020272  0.59474195  0.17842295  1  0  0.687945  0  3.84443  0  0  0.632157  0  4.124849  0  0  0.662539  0  4.129585  0  0  0.349363  0.611496  0  4.121188  0
C  C35  1  0.89980577  0.90526261  0.67842322  1  0  0.687816  0  3.844297  0  0  0.632061  0  4.124689  0  0  0.662442  0  4.129427  0  0  0.349306  0.611401  0  4.121026  0
C  C36  1  0.19481347  0.39851744  0.93368717  1  0  0.678491  0  3.839794  0  0  0.624922  0  4.11817  0  0  0.654682  0  4.122937  0  0  0.34835  0.604944  0  4.114217  0
C  C37  1  0.80518001  0.10148363  0.43369937  1  0  0.678141  0  3.839961  0  0  0.624649  0  4.118277  0  0  0.654411  0  4.123051  0  0  0.348146  0.604672  0  4.11432  0
C  C38  1  0.80522674  0.60149523  0.06630404  1  0  0.67836  0  3.84044  0  0  0.624842  0  4.118806  0  0  0.654598  0  4.12357  0  0  0.348122  0.604865  0  4.114853  0
C  C39  1  0.19476991  0.89851181  0.56631365  1  0  0.678168  0  3.840406  0  0  0.624792  0  4.118602  0  0  0.654544  0  4.123372  0  0  0.348208  0.604818  0  4.114647  0
C  C40  1  0.14933768  0.59214565  0.85918383  1  0  0.549415  0  3.74954  0  0  0.525153  0  4.018573  0  0  0.549897  0  4.025616  0  0  0.25399  0.508684  0  4.013283  0
C  C41  1  0.85065711  0.90785260  0.35918668  1  0  0.549336  0  3.749639  0  0  0.525094  0  4.018702  0  0  0.549842  0  4.025742  0  0  0.253918  0.508627  0  4.013408  0
C  C42  1  0.85067022  0.40785641  0.14081157  1  0  0.54944  0  3.749525  0  0  0.525128  0  4.018598  0  0  0.549864  0  4.025647  0  0  0.253956  0.508662  0  4.013299  0
C  C43  1  0.14932903  0.09214174  0.64081460  1  0  0.549262  0  3.749582  0  0  0.525019  0  4.018562  0  0  0.54975  0  4.025619  0  0  0.253903  0.508554  0  4.01326  0
C  C44  1  0.21658229  0.73676046  0.85014516  1  0  -0.40011  0  3.64374  0  0  -0.484485  0  3.883564  0  0  -0.488792  0  3.885722  0  0  -0.239407  -0.481155  0  3.881958  0
C  C45  1  0.78341871  0.76323867  0.35014440  1  0  -0.400076  0  3.643793  0  0  -0.484475  0  3.883612  0  0  -0.488763  0  3.885788  0  0  -0.239427  -0.48115  0  3.882002  0
C  C46  1  0.78341198  0.26324360  0.14984940  1  0  -0.40027  0  3.643919  0  0  -0.484666  0  3.883741  0  0  -0.488927  0  3.885871  0  0  -0.239509  -0.481344  0  3.882125  0
C  C47  1  0.21657990  0.23675952  0.64984681  1  0  -0.400161  0  3.643827  0  0  -0.484535  0  3.883639  0  0  -0.488832  0  3.885759  0  0  -0.239455  -0.481207  0  3.882033  0
C  C48  1  0.42990806  0.53398814  0.54157718  1  0  0.516825  0  3.944521  0  0  0.474362  0  4.237396  0  0  0.50199  0  4.234489  0  0  0.187477  0.455447  0  4.239061  0
C  C49  1  0.57009318  0.96601160  0.04156775  1  0  0.516842  0  3.944428  0  0  0.474362  0  4.237327  0  0  0.501987  0  4.234425  0  0  0.187501  0.455447  0  4.238992  0
C  C50  1  0.57002205  0.46601908  0.45841906  1  0  0.517186  0  3.944938  0  0  0.474598  0  4.237932  0  0  0.502228  0  4.235025  0  0  0.187511  0.455681  0  4.239598  0
C  C51  1  0.42997141  0.03397951  0.95841340  1  0  0.517155  0  3.944821  0  0  0.474575  0  4.23782  0  0  0.502203  0  4.234909  0  0  0.187365  0.455657  0  4.239485  0
N  N52  1  0.97314966  0.53437280  0.80077500  1  0  -0.58805  0  3.108274  0  0  -0.520987  0  3.400272  0  0  -0.548891  0  3.405007  0  0  -0.370702  -0.50219  0  3.39711  0
N  N53  1  0.02684980  0.96563126  0.30077783  1  0  -0.588055  0  3.108495  0  0  -0.521061  0  3.40045  0  0  -0.548969  0  3.405182  0  0  -0.370717  -0.502259  0  3.397289  0
N  N54  1  0.02685304  0.46562342  0.19922879  1  0  -0.588263  0  3.108201  0  0  -0.521187  0  3.400194  0  0  -0.549065  0  3.404893  0  0  -0.370807  -0.502386  0  3.397031  0
N  N55  1  0.97313753  0.03437575  0.69922848  1  0  -0.588033  0  3.108307  0  0  -0.52098  0  3.400221  0  0  -0.548868  0  3.404949  0  0  -0.370719  -0.502181  0  3.397052  0
N  N56  1  0.00762601  0.33335599  0.88627204  1  0  -0.632371  0  3.148343  0  0  -0.553106  0  3.44124  0  0  -0.583363  0  3.447054  0  0  -0.370783  -0.532131  0  3.436541  0
N  N57  1  0.99237826  0.16664295  0.38627752  1  0  -0.63218  0  3.148366  0  0  -0.553013  0  3.441195  0  0  -0.583283  0  3.447022  0  0  -0.370675  -0.532031  0  3.436493  0
N  N58  1  0.99241844  0.66664593  0.11372839  1  0  -0.632145  0  3.148647  0  0  -0.553097  0  3.441692  0  0  -0.583352  0  3.447498  0  0  -0.370651  -0.532117  0  3.436996  0
N  N59  1  0.00758095  0.83335636  0.61373129  1  0  -0.632032  0  3.148862  0  0  -0.552977  0  3.441781  0  0  -0.583221  0  3.447582  0  0  -0.370655  -0.532004  0  3.437089  0
N  N60  1  0.26444701  0.53013144  0.92603728  1  0  -0.55836  0  2.966116  0  0  -0.500646  0  3.212579  0  0  -0.525173  0  3.220294  0  0  -0.334864  -0.484301  0  3.207217  0
N  N61  1  0.73555402  0.96986400  0.42604291  1  0  -0.558123  0  2.965818  0  0  -0.500498  0  3.212305  0  0  -0.525027  0  3.220026  0  0  -0.334752  -0.484149  0  3.206936  0
N  N62  1  0.73558516  0.46987638  0.07395225  1  0  -0.558395  0  2.965934  0  0  -0.500625  0  3.212326  0  0  -0.525142  0  3.22003  0  0  -0.334914  -0.484288  0  3.206983  0
N  N63  1  0.26442307  0.03012256  0.57396004  1  0  -0.558213  0  2.966092  0  0  -0.500514  0  3.212407  0  0  -0.525018  0  3.220103  0  0  -0.334832  -0.484183  0  3.207066  0
N  N64  1  0.71224010  0.34844355  0.77344998  1  0  -0.678526  0  3.065878  0  0  -0.638252  0  3.304495  0  0  -0.659548  0  3.298355  0  0  -0.561249  -0.623276  0  3.308385  0
N  N65  1  0.28776683  0.15155886  0.27346162  1  0  -0.678495  0  3.06618  0  0  -0.638284  0  3.304755  0  0  -0.659579  0  3.298612  0  0  -0.561249  -0.623305  0  3.30865  0
N  N66  1  0.28778299  0.65153796  0.22655381  1  0  -0.678665  0  3.065859  0  0  -0.638381  0  3.304429  0  0  -0.659665  0  3.298289  0  0  -0.561292  -0.623413  0  3.308321  0
N  N67  1  0.71220094  0.84845603  0.72655978  1  0  -0.678568  0  3.065671  0  0  -0.638364  0  3.304273  0  0  -0.659649  0  3.298131  0  0  -0.561301  -0.623396  0  3.308166  0
N  N68  1  0.31676015  0.33239764  0.99198021  1  0  -0.672721  0  3.103064  0  0  -0.630981  0  3.346699  0  0  -0.653957  0  3.341083  0  0  -0.563606  -0.614974  0  3.350326  0
N  N69  1  0.68325180  0.16759558  0.49199008  1  0  -0.672746  0  3.103302  0  0  -0.630963  0  3.346981  0  0  -0.653932  0  3.341363  0  0  -0.563627  -0.614959  0  3.350598  0
N  N70  1  0.68330231  0.66761495  0.00801100  1  0  -0.67271  0  3.103562  0  0  -0.631062  0  3.346868  0  0  -0.654039  0  3.341245  0  0  -0.563596  -0.615048  0  3.350499  0
N  N71  1  0.31671239  0.83238127  0.50801790  1  0  -0.672654  0  3.103234  0  0  -0.631082  0  3.346579  0  0  -0.654062  0  3.340962  0  0  -0.56364  -0.615073  0  3.350211  0
O  O72  1  0.50592631  0.56763539  0.63727167  1  0  -0.601303  0  1.999873  0  0  -0.547388  0  2.238218  0  0  -0.569956  0  2.228811  0  0  -0.327419  -0.531687  0  2.244517  0
O  O73  1  0.49406697  0.93235676  0.13726524  1  0  -0.601431  0  1.999734  0  0  -0.547488  0  2.238083  0  0  -0.570055  0  2.228674  0  0  -0.32748  -0.531788  0  2.244387  0
O  O74  1  0.49403748  0.43240488  0.36270781  1  0  -0.601367  0  1.999776  0  0  -0.547448  0  2.238221  0  0  -0.570013  0  2.228808  0  0  -0.327349  -0.531747  0  2.244527  0
O  O75  1  0.50594912  0.06759063  0.86270165  1  0  -0.601404  0  1.999775  0  0  -0.547495  0  2.238228  0  0  -0.570057  0  2.228811  0  0  -0.327319  -0.531794  0  2.24453  0
O  O76  1  0.24698773  0.55100757  0.50394259  1  0  -0.634561  0  2.163962  0  0  -0.561654  0  2.434603  0  0  -0.589238  0  2.422885  0  0  -0.331335  -0.542161  0  2.442213  0
O  O77  1  0.75300109  0.94899013  0.00393294  1  0  -0.634402  0  2.163928  0  0  -0.561514  0  2.434587  0  0  -0.589103  0  2.422892  0  0  -0.331261  -0.542029  0  2.442215  0
O  O78  1  0.75289672  0.44895494  0.49607210  1  0  -0.634641  0  2.164209  0  0  -0.561656  0  2.434812  0  0  -0.589248  0  2.423125  0  0  -0.331297  -0.542168  0  2.442422  0
O  O79  1  0.24709477  0.05104087  0.99607000  1  0  -0.634573  0  2.16412  0  0  -0.561588  0  2.434719  0  0  -0.589177  0  2.423025  0  0  -0.331209  -0.542097  0  2.44233  0
