# generated using pymatgen
data_Zn4H44C52Cl2O13
_symmetry_space_group_name_H-M   'P 1'
_cell_length_a   15.17994849
_cell_length_b   15.17885848
_cell_length_c   19.53608836
_cell_angle_alpha   88.85459361
_cell_angle_beta   88.65758045
_cell_angle_gamma   89.81489551
_symmetry_Int_Tables_number   1
_chemical_formula_structural   Zn4H44C52Cl2O13
_chemical_formula_sum   'Zn4 H44 C52 Cl2 O13'
_cell_volume   4499.24208240
_cell_formula_units_Z   1
loop_
 _symmetry_equiv_pos_site_id
 _symmetry_equiv_pos_as_xyz
  1  'x, y, z'
loop_
 _atom_site_type_symbol
 _atom_site_label
 _atom_site_symmetry_multiplicity
 _atom_site_fract_x
 _atom_site_fract_y
 _atom_site_fract_z
 _atom_site_occupancy
 _atom_site_pbe_bader_charge
 _atom_site_pbe_bader_spin_density
 _atom_site_pbe_cm5_charge
 _atom_site_pbe_ddec_charge
 _atom_site_pbe_ddec_spin_density
 _atom_site_pbe_ddec_sum_bond_order
 _atom_site_pbe_magmom
Zn  Zn0  1  0.43274394  0.42446680  0.56436879  1  1.313641  0  0.670276  0.956787  0  2.386301  0
Zn  Zn1  1  0.41834819  0.56755798  0.44298480  1  1.310389  0  0.670986  0.956802  0  2.382689  0
Zn  Zn2  1  0.57649341  0.42605321  0.44303399  1  1.309437  0  0.671434  0.963252  0  2.372273  0
Zn  Zn3  1  0.57169818  0.58432865  0.55107725  1  1.317055  0  0.672181  0.970915  0  2.365704  0
H  H4  1  0.44924054  0.39117863  0.77079824  1  0.088185  0  0.111669  0.117071  0  0.995331  0
H  H5  1  0.83507078  0.64768072  0.43885216  1  0.096397  0  0.111008  0.116163  0  0.977693  0
H  H6  1  0.59120872  0.38566542  0.23608865  1  0.086104  0  0.110814  0.116  0  0.989451  0
H  H7  1  0.50762858  0.40019845  0.00073763  1  0.064257  0  0.103784  0.101834  0  0.995958  0
H  H8  1  0.52481593  0.66228570  0.89281039  1  0.069983  0  0.105381  0.120263  0  0.993042  0
H  H9  1  0.37217783  0.55786073  0.10284518  1  0.056915  0  0.103335  0.103586  0  0.9975  0
H  H10  1  0.45943332  0.59704616  0.00076613  1  0.053658  0  0.104892  0.106542  0  0.990519  0
H  H11  1  0.43242840  0.39368260  0.89747579  1  0.075652  0  0.104325  0.105892  0  1.000174  0
H  H12  1  0.45097222  0.69621597  0.25610323  1  0.017398  0  0.080401  0.107941  0  1.037419  0
H  H13  1  0.48065999  0.79542933  0.21149592  1  0.001432  0  0.079776  0.10205  0  1.009327  0
H  H14  1  0.56151963  0.71337501  0.22816137  1  0.055263  0  0.083224  0.109545  0  1.003565  0
H  H15  1  0.58832605  0.37309963  0.10907357  1  0.057988  0  0.103843  0.104029  0  0.992076  0
H  H16  1  0.57301035  0.83956778  0.31076260  1  -0.016373  0  0.084242  0.070402  0  0.979166  0
H  H17  1  0.54796145  0.73906092  0.35347604  1  0.024666  0  0.083421  0.071513  0  0.99713  0
H  H18  1  0.38897731  0.78019481  0.36000887  1  0.052788  0  0.09305  0.102947  0  0.995956  0
H  H19  1  0.41144081  0.87930339  0.31333426  1  -0.001676  0  0.087859  0.083137  0  0.987185  0
H  H20  1  0.74016758  0.94167307  0.72810533  1  0.006666  0  0.081517  0.105178  0  1.007601  0
H  H21  1  0.69264728  0.84175019  0.70124910  1  0.037468  0  0.078643  0.108391  0  1.023003  0
H  H22  1  0.79965929  0.87202543  0.67136382  1  0.042879  0  0.087095  0.114308  0  1.000328  0
H  H23  1  0.69021592  0.90219125  0.57941732  1  0.025726  0  0.089362  0.081664  0  0.98441  0
H  H24  1  0.73663648  0.00146865  0.60604283  1  0.042663  0  0.085844  0.073043  0  0.98109  0
H  H25  1  0.60530943  0.02735515  0.68342130  1  0.022258  0  0.092687  0.089262  0  1.011294  0
H  H26  1  0.54354414  0.85125259  0.57410594  1  0.099725  0  0.104434  0.108006  0  1.030267  0
H  H27  1  0.55860430  0.92833682  0.65808978  1  0.021799  0  0.091852  0.08961  0  0.990198  0
H  H28  1  0.65707159  0.20970569  0.75917975  1  0.015747  0  0.081511  0.104632  0  1.007503  0
H  H29  1  0.62668076  0.31204279  0.72080381  1  0.032311  0  0.08289  0.110849  0  1.003963  0
H  H30  1  0.55998344  0.26483372  0.78756801  1  0.027393  0  0.081087  0.105115  0  1.018557  0
H  H31  1  0.49153332  0.24058060  0.67243013  1  0.051249  0  0.086391  0.085871  0  0.996752  0
H  H32  1  0.52042807  0.13952609  0.71185220  1  0.020139  0  0.085516  0.073479  0  0.988822  0
H  H33  1  0.66553576  0.14444212  0.64262234  1  0.028198  0  0.092555  0.089083  0  0.994187  0
H  H34  1  0.62788690  0.23992188  0.60075213  1  0.003336  0  0.089422  0.087857  0  0.995174  0
H  H35  1  0.39464412  0.18127850  0.26580673  1  0.016652  0  0.080417  0.10282  0  1.008987  0
H  H36  1  0.42670333  0.28602515  0.29540593  1  0.033771  0  0.080875  0.108836  0  1.015331  0
H  H37  1  0.43357816  0.00320759  0.36698511  1  0.025199  0  0.098399  0.098715  0  1.036663  0
H  H38  1  0.49487795  0.22996224  0.23570225  1  0.025717  0  0.081574  0.107016  0  1.015265  0
H  H39  1  0.55720287  0.21591077  0.35387600  1  0.042709  0  0.088023  0.087233  0  0.988174  0
H  H40  1  0.52595158  0.11177990  0.32442189  1  0.011493  0  0.084655  0.072415  0  0.990331  0
H  H41  1  0.38025959  0.12806466  0.39033484  1  0.038142  0  0.09198  0.088006  0  0.987882  0
H  H42  1  0.41658768  0.22943023  0.42019307  1  0.026625  0  0.091489  0.090126  0  0.990298  0
H  H43  1  0.14436400  0.59719471  0.45826243  1  0.052453  0  0.110319  0.117659  0  0.99419  0
H  H44  1  0.16625285  0.34963169  0.56708722  1  0.077298  0  0.109406  0.116872  0  0.987718  0
H  H45  1  0.99851950  0.65984177  0.43376905  1  0.072362  0  0.107982  0.109904  0  0.988699  0
H  H46  1  0.37398477  0.56748012  0.22995265  1  0.10861  0  0.10884  0.110461  0  0.997467  0
H  H47  1  0.00359291  0.33244846  0.56832079  1  0.085414  0  0.096557  0.100114  0  1.027395  0
C  C48  1  0.48890340  0.73929613  0.48660846  1  1.540962  0  0.227286  0.609513  0  4.159471  0
C  C49  1  0.47211742  0.53206061  0.97932063  1  -0.09007  0  -0.087115  -0.132075  0  3.987313  0
C  C50  1  0.48597256  0.46286113  0.02233120  1  0.014128  0  -0.084858  -0.127208  0  3.995518  0
C  C51  1  0.51656551  0.26206296  0.51260509  1  1.544745  0  0.233405  0.62367  0  4.169807  0
C  C52  1  0.48396808  0.47854040  0.24056774  1  -0.052811  0  -0.019843  -0.051271  0  3.981559  0
C  C53  1  0.48917273  0.83692965  0.47608971  1  -0.003468  0  -0.022483  -0.100733  0  3.951015  0
C  C54  1  0.52002314  0.16323066  0.51627508  1  -0.008471  0  -0.014567  -0.129002  0  3.943103  0
C  C55  1  0.55938886  0.03019537  0.57999300  1  -0.02331  0  -0.006202  0.02132  0  3.909561  0
C  C56  1  0.56052205  0.12170165  0.57370653  1  0.0082  0  -0.008492  0.043283  0  3.930583  0
C  C57  1  0.48278035  0.11708213  0.46363827  1  -0.028401  0  -0.005642  0.050577  0  3.924637  0
C  C58  1  0.48590865  0.02318281  0.46754993  1  0.063791  0  -0.006215  0.039912  0  3.999907  0
C  C59  1  0.47948617  0.52773962  0.90484013  1  0.017653  0  -0.003406  0.142119  0  4.043925  0
C  C60  1  0.52172365  0.97999895  0.52671596  1  0.020915  0  -0.010692  0.020696  0  3.997041  0
C  C61  1  0.51995165  0.88683146  0.52921156  1  -0.145202  0  -0.079123  -0.123345  0  3.952527  0
C  C62  1  0.45910180  0.87945860  0.41477477  1  -0.08929  0  -0.004335  0.113209  0  3.946842  0
C  C63  1  0.26245479  0.48332259  0.50970886  1  1.535997  0  0.226469  0.605258  0  4.168077  0
C  C64  1  0.45678129  0.97049135  0.41338549  1  0.020619  0  -0.096379  -0.200959  0  3.978351  0
C  C65  1  0.16462262  0.47457163  0.51182482  1  0.025722  0  -0.019431  -0.038452  0  3.998688  0
C  C66  1  0.83526386  0.51827745  0.48723007  1  -0.030688  0  -0.014803  -0.074705  0  3.966123  0
C  C67  1  0.96670885  0.60151140  0.45631868  1  -0.014502  0  -0.086216  -0.132567  0  4.006815  0
C  C68  1  0.87647022  0.59471322  0.45877207  1  -0.063826  0  -0.085818  -0.095284  0  4.009915  0
C  C69  1  0.88592691  0.45071154  0.51449553  1  0.071135  0  0.021095  0.07772  0  3.98501  0
C  C70  1  0.50891072  0.60173968  0.86674208  1  -0.0027  0  -0.094919  -0.208698  0  3.942323  0
C  C71  1  0.97956814  0.45637322  0.51498269  1  0.053896  0  -0.00505  0.029237  0  3.973867  0
C  C72  1  0.02007672  0.53336618  0.48404620  1  0.025464  0  -0.003726  0.084538  0  4.009411  0
C  C73  1  0.11296863  0.53972021  0.48249448  1  -0.051506  0  -0.072461  -0.127876  0  3.920303  0
C  C74  1  0.12436836  0.39973175  0.54379522  1  -0.050884  0  -0.082948  -0.087164  0  3.979604  0
C  C75  1  0.73658902  0.51437165  0.48849372  1  1.636686  0  0.227506  0.621318  0  4.184767  0
C  C76  1  0.03418424  0.39056358  0.54460796  1  0.013499  0  -0.092825  -0.126866  0  4.002281  0
C  C77  1  0.48757832  0.48607107  0.31641957  1  1.519516  0  0.227183  0.599664  0  4.17467  0
C  C78  1  0.50500628  0.51342251  0.68407578  1  1.565056  0  0.226204  0.615944  0  4.167383  0
C  C79  1  0.49931305  0.52242087  0.76006915  1  -0.02648  0  -0.021441  -0.105057  0  3.933852  0
C  C80  1  0.46756175  0.44945050  0.79875013  1  0.024761  0  -0.077569  -0.068402  0  3.992262  0
C  C81  1  0.52042826  0.59918079  0.79571432  1  0.088989  0  0.023367  0.149739  0  4.0172  0
C  C82  1  0.45861743  0.45095023  0.86938449  1  -0.037863  0  -0.09221  -0.146889  0  3.980684  0
C  C83  1  0.43887092  0.83135248  0.35021572  1  0.035716  0  -0.164755  -0.201522  0  3.965453  0
C  C84  1  0.52156434  0.78892050  0.31770192  1  0.024348  0  -0.166147  -0.082384  0  3.962413  0
C  C85  1  0.50275927  0.74625671  0.24957386  1  -0.08393  0  -0.248411  -0.352875  0  3.987234  0
C  C86  1  0.60114549  0.98302429  0.63988080  1  -0.006626  0  -0.161865  -0.196818  0  3.978465  0
C  C87  1  0.69369645  0.94653056  0.62320263  1  -0.039786  0  -0.163974  -0.090025  0  3.960241  0
C  C88  1  0.73379115  0.89794838  0.68424208  1  -0.082003  0  -0.245883  -0.35343  0  3.985596  0
C  C89  1  0.60522388  0.17799763  0.62564005  1  0.012565  0  -0.161219  -0.190201  0  3.962687  0
C  C90  1  0.54805206  0.20063985  0.68896967  1  -0.028034  0  -0.168536  -0.096884  0  3.958327  0
C  C91  1  0.60060842  0.24942399  0.74203414  1  -0.086641  0  -0.246715  -0.351496  0  3.99085  0
C  C92  1  0.42121730  0.52120239  0.13188207  1  -0.078001  0  -0.088229  -0.135152  0  3.963865  0
C  C93  1  0.43995786  0.16411276  0.40416372  1  -0.026  0  -0.160539  -0.189331  0  3.964936  0
C  C94  1  0.49994684  0.17630636  0.34011763  1  -0.003362  0  -0.167899  -0.095164  0  3.95539  0
C  C95  1  0.45148007  0.22061095  0.28105017  1  -0.086822  0  -0.247561  -0.349958  0  3.989054  0
C  C96  1  0.42181334  0.52651693  0.20280709  1  -0.022472  0  -0.077736  -0.080941  0  3.986971  0
C  C97  1  0.54361660  0.42296281  0.20623032  1  0.064862  0  -0.07777  -0.080943  0  3.989188  0
C  C98  1  0.54159304  0.41618515  0.13552782  1  -0.089805  0  -0.08839  -0.138305  0  3.974881  0
C  C99  1  0.48192267  0.46681210  0.09690475  1  -0.002264  0  -0.005116  0.119681  0  4.042158  0
Cl  Cl100  1  0.83450434  0.35899006  0.55128414  1  -0.206402  0  -0.00527  -0.076002  0  1.493123  0
Cl  Cl101  1  0.55728159  0.69523259  0.75536443  1  -0.195791  0  -0.01352  -0.084369  0  1.495885  0
O  O102  1  0.50050969  0.50065146  0.50041636  1  -1.235052  0  -0.57227  -1.028723  0  2.536702  0
O  O103  1  0.43442652  0.54023334  0.34518247  1  -1.164361  0  -0.314033  -0.54575  0  2.335519  0
O  O104  1  0.55884774  0.56241608  0.65015265  1  -1.173674  0  -0.314362  -0.546495  0  2.390834  0
O  O105  1  0.54427109  0.43761576  0.34673758  1  -1.183446  0  -0.3158  -0.548621  0  2.351856  0
O  O106  1  0.45473427  0.45502293  0.65948362  1  -1.176885  0  -0.316325  -0.54764  0  2.340805  0
O  O107  1  0.30550642  0.43180481  0.54927846  1  -1.172049  0  -0.314789  -0.544137  0  2.332848  0
O  O108  1  0.69776209  0.57054613  0.52613538  1  -1.170344  0  -0.308766  -0.534684  0  2.308592  0
O  O109  1  0.43426929  0.69452240  0.45272353  1  -1.17815  0  -0.311909  -0.544647  0  2.37557  0
O  O110  1  0.56751324  0.30050868  0.46873364  1  -1.170212  0  -0.306608  -0.540988  0  2.337836  0
O  O111  1  0.54294496  0.70713322  0.52989653  1  -1.171211  0  -0.320276  -0.553866  0  2.347323  0
O  O112  1  0.46187644  0.29921911  0.55334175  1  -1.164273  0  -0.307442  -0.541001  0  2.340646  0
O  O113  1  0.29520402  0.54146511  0.46843737  1  -1.179322  0  -0.31712  -0.549157  0  2.342113  0
O  O114  1  0.70151391  0.45725742  0.45107739  1  -1.159997  0  -0.311729  -0.542529  0  2.338511  0
