# generated using pymatgen
data_ZnH10C10(NO3)2
_symmetry_space_group_name_H-M   'P 1'
_cell_length_a   7.92587883
_cell_length_b   10.34134297
_cell_length_c   15.16630587
_cell_angle_alpha   89.99981316
_cell_angle_beta   89.99997111
_cell_angle_gamma   91.64831105
_symmetry_Int_Tables_number   1
_chemical_formula_structural   ZnH10C10(NO3)2
_chemical_formula_sum   'Zn4 H40 C40 N8 O24'
_cell_volume   1242.58023034
_cell_formula_units_Z   4
loop_
 _symmetry_equiv_pos_site_id
 _symmetry_equiv_pos_as_xyz
  1  'x, y, z'
loop_
 _atom_site_type_symbol
 _atom_site_label
 _atom_site_symmetry_multiplicity
 _atom_site_fract_x
 _atom_site_fract_y
 _atom_site_fract_z
 _atom_site_occupancy
 _atom_site_hle17_bader_spin_density
 _atom_site_hle17_ddec_charge
 _atom_site_hle17_ddec_spin_density
 _atom_site_hle17_ddec_sum_bond_order
 _atom_site_hle17_magmom
 _atom_site_hse06_10hf_bader_spin_density
 _atom_site_hse06_10hf_ddec_charge
 _atom_site_hse06_10hf_ddec_spin_density
 _atom_site_hse06_10hf_ddec_sum_bond_order
 _atom_site_hse06_10hf_magmom
 _atom_site_hse06_bader_spin_density
 _atom_site_hse06_ddec_charge
 _atom_site_hse06_ddec_spin_density
 _atom_site_hse06_ddec_sum_bond_order
 _atom_site_hse06_magmom
 _atom_site_pbe_bader_spin_density
 _atom_site_pbe_cm5_charge
 _atom_site_pbe_ddec_charge
 _atom_site_pbe_ddec_spin_density
 _atom_site_pbe_ddec_sum_bond_order
 _atom_site_pbe_magmom
Zn  Zn0  1  0.10309480  0.40896575  0.42249200  1  0  1.143871  0  1.758625  0  0  0.97144  0  2.235352  0  0  1.022282  0  2.170417  0  0  0.682413  0.935478  0  2.28029  0
Zn  Zn1  1  0.89690665  0.09103354  0.92249206  1  0  1.143841  0  1.758676  0  0  0.971403  0  2.235407  0  0  1.022245  0  2.170473  0  0  0.6824  0.935442  0  2.280348  0
Zn  Zn2  1  0.89690708  0.59103513  0.57750769  1  0  1.143838  0  1.758626  0  0  0.971416  0  2.235354  0  0  1.02226  0  2.17042  0  0  0.682404  0.935454  0  2.280292  0
Zn  Zn3  1  0.10309389  0.90896540  0.07750829  1  0  1.143831  0  1.758661  0  0  0.971409  0  2.235391  0  0  1.022252  0  2.170457  0  0  0.682405  0.935449  0  2.280331  0
H  H4  1  0.62932985  0.51001183  0.44913641  1  0  0.145497  0  0.937048  0  0  0.149035  0  1.002668  0  0  0.153658  0  0.997105  0  0  0.139935  0.145543  0  1.006965  0
H  H5  1  0.37066951  0.98998885  0.94913572  1  0  0.145498  0  0.937067  0  0  0.14903  0  1.002684  0  0  0.153653  0  0.997121  0  0  0.139926  0.145538  0  1.006981  0
H  H6  1  0.37066821  0.48998808  0.55086526  1  0  0.145509  0  0.937059  0  0  0.149031  0  1.002674  0  0  0.153655  0  0.997111  0  0  0.139926  0.145539  0  1.006972  0
H  H7  1  0.62932981  0.01001106  0.05086397  1  0  0.14549  0  0.937079  0  0  0.14903  0  1.002687  0  0  0.153652  0  0.997126  0  0  0.139923  0.145538  0  1.006985  0
H  H8  1  0.01795833  0.69303484  0.30989803  1  0  0.139416  0  0.96069  0  0  0.143515  0  1.027927  0  0  0.147991  0  1.022717  0  0  0.136425  0.140227  0  1.031676  0
H  H9  1  0.98204236  0.80696457  0.80989824  1  0  0.139427  0  0.960694  0  0  0.143525  0  1.027934  0  0  0.148001  0  1.022726  0  0  0.136436  0.140238  0  1.031682  0
H  H10  1  0.98203968  0.30696410  0.69010166  1  0  0.139444  0  0.960708  0  0  0.143541  0  1.027936  0  0  0.148015  0  1.022733  0  0  0.136447  0.140254  0  1.031685  0
H  H11  1  0.01795817  0.19303437  0.19010013  1  0  0.139433  0  0.960722  0  0  0.143536  0  1.027948  0  0  0.148011  0  1.022742  0  0  0.136435  0.140248  0  1.031697  0
H  H12  1  0.15603769  0.12031346  0.35091721  1  0  0.063716  0  0.955722  0  0  0.072024  0  1.025836  0  0  0.073833  0  1.020899  0  0  0.127483  0.070512  0  1.029495  0
H  H13  1  0.84396259  0.37968617  0.85091729  1  0  0.063668  0  0.955754  0  0  0.07197  0  1.025875  0  0  0.073779  0  1.020939  0  0  0.127467  0.070459  0  1.029535  0
H  H14  1  0.84396289  0.87968644  0.64908315  1  0  0.063685  0  0.9557  0  0  0.071987  0  1.025824  0  0  0.073796  0  1.020887  0  0  0.127476  0.070475  0  1.029486  0
H  H15  1  0.15603673  0.62031374  0.14908306  1  0  0.063673  0  0.955726  0  0  0.071979  0  1.025846  0  0  0.073788  0  1.020909  0  0  0.127466  0.070468  0  1.029508  0
H  H16  1  0.34766796  0.09982675  0.56735686  1  0  0.099593  0  0.948962  0  0  0.116787  0  1.016444  0  0  0.11731  0  1.016888  0  0  0.104044  0.116224  0  1.016372  0
H  H17  1  0.65232881  0.40017329  0.06735602  1  0  0.099581  0  0.948984  0  0  0.116777  0  1.016453  0  0  0.117299  0  1.016896  0  0  0.104042  0.116213  0  1.01638  0
H  H18  1  0.65233265  0.90017412  0.43264283  1  0  0.099614  0  0.948952  0  0  0.116808  0  1.016435  0  0  0.117331  0  1.016878  0  0  0.104055  0.116245  0  1.016362  0
H  H19  1  0.34767054  0.59982759  0.93264433  1  0  0.099597  0  0.949008  0  0  0.116796  0  1.016472  0  0  0.117316  0  1.016916  0  0  0.104054  0.116232  0  1.016399  0
H  H20  1  0.35786408  0.92532674  0.56152327  1  0  0.112671  0  0.946043  0  0  0.134277  0  1.00481  0  0  0.13516  0  1.00456  0  0  0.109068  0.13349  0  1.005118  0
H  H21  1  0.64213437  0.57467387  0.06152184  1  0  0.112697  0  0.946016  0  0  0.134268  0  1.004816  0  0  0.13515  0  1.004567  0  0  0.109071  0.133483  0  1.005122  0
H  H22  1  0.64213775  0.07467317  0.43847708  1  0  0.11266  0  0.946061  0  0  0.134286  0  1.004806  0  0  0.135169  0  1.004556  0  0  0.10908  0.133497  0  1.005116  0
H  H23  1  0.35786628  0.42532797  0.93847785  1  0  0.112653  0  0.946073  0  0  0.134277  0  1.004814  0  0  0.13516  0  1.004562  0  0  0.109073  0.133487  0  1.005124  0
H  H24  1  0.16859486  0.99961883  0.59401366  1  0  0.094216  0  0.929314  0  0  0.117276  0  0.990159  0  0  0.116496  0  0.991795  0  0  0.102274  0.117639  0  0.989213  0
H  H25  1  0.83140100  0.50038066  0.09401300  1  0  0.094233  0  0.929324  0  0  0.117276  0  0.990182  0  0  0.116496  0  0.991816  0  0  0.102276  0.117639  0  0.989235  0
H  H26  1  0.83140576  0.00038204  0.40598669  1  0  0.094202  0  0.929337  0  0  0.117247  0  0.990203  0  0  0.116466  0  0.99184  0  0  0.102263  0.11761  0  0.989256  0
H  H27  1  0.16859832  0.49961925  0.90598669  1  0  0.09424  0  0.929324  0  0  0.117281  0  0.990182  0  0  0.1165  0  0.991818  0  0  0.102292  0.117644  0  0.989235  0
H  H28  1  0.18077525  0.91086759  0.34076949  1  0  0.1167  0  0.940252  0  0  0.13433  0  1.006234  0  0  0.13544  0  1.005761  0  0  0.111306  0.133365  0  1.006746  0
H  H29  1  0.81922423  0.58913360  0.84076825  1  0  0.116695  0  0.940203  0  0  0.134325  0  1.006188  0  0  0.135435  0  1.005716  0  0  0.111304  0.13336  0  1.006701  0
H  H30  1  0.81922407  0.08913232  0.65923152  1  0  0.116696  0  0.940194  0  0  0.134326  0  1.006185  0  0  0.135435  0  1.005712  0  0  0.111312  0.13336  0  1.006697  0
H  H31  1  0.18077508  0.41086631  0.15923078  1  0  0.116698  0  0.940249  0  0  0.134333  0  1.006223  0  0  0.135442  0  1.005751  0  0  0.111294  0.133367  0  1.006736  0
H  H32  1  0.13728364  0.82117828  0.44028757  1  0  0.116282  0  0.931971  0  0  0.133485  0  0.997465  0  0  0.134693  0  0.997141  0  0  0.106195  0.132544  0  0.997767  0
H  H33  1  0.86271568  0.67882147  0.94028678  1  0  0.116276  0  0.931987  0  0  0.133495  0  0.997463  0  0  0.134704  0  0.997138  0  0  0.106199  0.132553  0  0.997767  0
H  H34  1  0.86271571  0.17882260  0.55971278  1  0  0.116265  0  0.931997  0  0  0.13348  0  0.997484  0  0  0.134689  0  0.997159  0  0  0.106187  0.132539  0  0.997786  0
H  H35  1  0.13728363  0.32117844  0.05971226  1  0  0.116285  0  0.931956  0  0  0.133488  0  0.997453  0  0  0.134696  0  0.997128  0  0  0.106198  0.132546  0  0.997754  0
H  H36  1  0.34914120  0.85043805  0.40602603  1  0  0.096092  0  0.937207  0  0  0.117321  0  0.998783  0  0  0.117311  0  0.999856  0  0  0.102135  0.117179  0  0.998236  0
H  H37  1  0.65085820  0.64956283  0.90602536  1  0  0.096082  0  0.937168  0  0  0.11731  0  0.99875  0  0  0.1173  0  0.999823  0  0  0.102122  0.117169  0  0.998204  0
H  H38  1  0.65085811  0.14956186  0.59397366  1  0  0.096079  0  0.937195  0  0  0.117307  0  0.998776  0  0  0.117297  0  0.999849  0  0  0.10213  0.117165  0  0.998229  0
H  H39  1  0.34914116  0.35043805  0.09397433  1  0  0.096098  0  0.937197  0  0  0.117329  0  0.998771  0  0  0.117319  0  0.999844  0  0  0.102135  0.117187  0  0.998224  0
H  H40  1  0.50839940  0.70984807  0.20666714  1  0  0.127202  0  0.923224  0  0  0.134623  0  0.986072  0  0  0.139527  0  0.980556  0  0  0.11859  0.13102  0  0.990003  0
H  H41  1  0.49160023  0.79015378  0.70666686  1  0  0.127204  0  0.923219  0  0  0.134623  0  0.98607  0  0  0.139526  0  0.980554  0  0  0.118597  0.131019  0  0.990001  0
H  H42  1  0.49159869  0.29015281  0.79333387  1  0  0.127237  0  0.923297  0  0  0.13466  0  0.986135  0  0  0.139565  0  0.980616  0  0  0.118611  0.131056  0  0.990067  0
H  H43  1  0.50840287  0.20984613  0.29333283  1  0  0.127158  0  0.923319  0  0  0.134603  0  0.986141  0  0  0.139508  0  0.980622  0  0  0.118581  0.131  0  0.990074  0
C  C44  1  0.36032784  0.56618903  0.33917421  1  0  0.652701  0  3.938194  0  0  0.606007  0  4.226261  0  0  0.640263  0  4.220654  0  0  0.211093  0.582929  0  4.229045  0
C  C45  1  0.63967293  0.93381314  0.83917555  1  0  0.652742  0  3.938145  0  0  0.606062  0  4.226198  0  0  0.640318  0  4.220588  0  0  0.211123  0.582985  0  4.228984  0
C  C46  1  0.63967155  0.43381281  0.66082614  1  0  0.652735  0  3.938204  0  0  0.606065  0  4.226251  0  0  0.640324  0  4.220641  0  0  0.211092  0.582987  0  4.229037  0
C  C47  1  0.36032764  0.06618677  0.16082480  1  0  0.652784  0  3.938089  0  0  0.606097  0  4.226152  0  0  0.640353  0  4.220541  0  0  0.211119  0.58302  0  4.228937  0
C  C48  1  0.54419136  0.60681611  0.32899763  1  0  -0.089689  0  3.744045  0  0  -0.06289  0  3.983718  0  0  -0.076268  0  4.00613  0  0  -0.005944  -0.054876  0  3.969535  0
C  C49  1  0.45580817  0.89318611  0.82899713  1  0  -0.089694  0  3.744049  0  0  -0.062916  0  3.983732  0  0  -0.076293  0  4.00614  0  0  -0.005974  -0.054903  0  3.969553  0
C  C50  1  0.45580804  0.39318573  0.67100338  1  0  -0.08971  0  3.74405  0  0  -0.06295  0  3.983731  0  0  -0.076329  0  4.006141  0  0  -0.006011  -0.054938  0  3.969552  0
C  C51  1  0.54419363  0.10681283  0.17100190  1  0  -0.089675  0  3.743996  0  0  -0.062885  0  3.983679  0  0  -0.076265  0  4.006094  0  0  -0.005967  -0.054871  0  3.969498  0
C  C52  1  0.76982398  0.71381075  0.24819073  1  0  -0.083676  0  3.763108  0  0  -0.055269  0  4.000193  0  0  -0.06806  0  4.022542  0  0  -0.007094  -0.047644  0  3.985763  0
C  C53  1  0.23017552  0.78618896  0.74819184  1  0  -0.083667  0  3.763169  0  0  -0.055259  0  4.000255  0  0  -0.068049  0  4.022603  0  0  -0.007104  -0.047631  0  3.985826  0
C  C54  1  0.23017407  0.28618916  0.75180897  1  0  -0.083603  0  3.763088  0  0  -0.055194  0  4.000162  0  0  -0.067985  0  4.022509  0  0  -0.007091  -0.047571  0  3.98573  0
C  C55  1  0.76982750  0.21380901  0.25180851  1  0  -0.083725  0  3.76319  0  0  -0.055318  0  4.000288  0  0  -0.06811  0  4.022636  0  0  -0.007094  -0.04769  0  3.98586  0
C  C56  1  0.66106059  0.56794710  0.39143079  1  0  0.045297  0  3.51266  0  0  -0.006894  0  3.767771  0  0  0.006336  0  3.775007  0  0  0.065345  -0.015695  0  3.763837  0
C  C57  1  0.33894013  0.93205482  0.89143090  1  0  0.045255  0  3.512606  0  0  -0.00691  0  3.767685  0  0  0.006321  0  3.774918  0  0  0.065348  -0.01571  0  3.763754  0
C  C58  1  0.33893999  0.43205281  0.60857022  1  0  0.045212  0  3.512753  0  0  -0.006908  0  3.767777  0  0  0.006323  0  3.775011  0  0  0.065335  -0.015709  0  3.763846  0
C  C59  1  0.66106171  0.06794509  0.10856813  1  0  0.045238  0  3.512648  0  0  -0.00694  0  3.76774  0  0  0.006292  0  3.774974  0  0  0.065342  -0.015741  0  3.763808  0
C  C60  1  0.88221637  0.67461734  0.31239888  1  0  0.030774  0  3.527317  0  0  -0.024179  0  3.786325  0  0  -0.011511  0  3.793521  0  0  0.06041  -0.032216  0  3.781676  0
C  C61  1  0.11778440  0.82538399  0.81239927  1  0  0.030751  0  3.527412  0  0  -0.024208  0  3.786424  0  0  -0.01154  0  3.79362  0  0  0.060409  -0.032244  0  3.781772  0
C  C62  1  0.11778294  0.32538257  0.68760148  1  0  0.030707  0  3.527366  0  0  -0.024237  0  3.786356  0  0  -0.011569  0  3.793551  0  0  0.060404  -0.032274  0  3.781707  0
C  C63  1  0.88221740  0.17461495  0.18759976  1  0  0.030771  0  3.527428  0  0  -0.024186  0  3.78643  0  0  -0.011516  0  3.793624  0  0  0.060416  -0.032223  0  3.781778  0
C  C64  1  0.18673400  0.12452566  0.42172811  1  0  0.381899  0  3.785692  0  0  0.307985  0  4.065845  0  0  0.336385  0  4.066266  0  0  0.174135  0.288923  0  4.065136  0
C  C65  1  0.81326497  0.37547460  0.92172756  1  0  0.381989  0  3.78556  0  0  0.308066  0  4.06569  0  0  0.336465  0  4.066109  0  0  0.174121  0.289003  0  4.06498  0
C  C66  1  0.81326784  0.87547425  0.57827158  1  0  0.381991  0  3.785602  0  0  0.308096  0  4.06573  0  0  0.336496  0  4.066152  0  0  0.174175  0.289033  0  4.065021  0
C  C67  1  0.18673313  0.62452628  0.07827213  1  0  0.381957  0  3.785647  0  0  0.308052  0  4.065797  0  0  0.336452  0  4.066217  0  0  0.174175  0.288989  0  4.065088  0
C  C68  1  0.83864189  0.78871272  0.17014460  1  0  0.625178  0  3.970572  0  0  0.577211  0  4.264742  0  0  0.610088  0  4.261293  0  0  0.197336  0.554943  0  4.266416  0
C  C69  1  0.16135644  0.71128737  0.67014722  1  0  0.625188  0  3.970718  0  0  0.577214  0  4.264903  0  0  0.610091  0  4.261453  0  0  0.197296  0.55494  0  4.266587  0
C  C70  1  0.16135486  0.21128623  0.82985377  1  0  0.625203  0  3.970704  0  0  0.577235  0  4.264876  0  0  0.610113  0  4.261426  0  0  0.197337  0.554971  0  4.266542  0
C  C71  1  0.83864280  0.28871061  0.32985379  1  0  0.625284  0  3.97056  0  0  0.577321  0  4.264726  0  0  0.610198  0  4.261275  0  0  0.19734  0.55505  0  4.266403  0
C  C72  1  0.27958589  0.00934515  0.55066734  1  0  -0.16604  0  3.6457  0  0  -0.267701  0  3.890359  0  0  -0.263891  0  3.901584  0  0  -0.134912  -0.26989  0  3.882776  0
C  C73  1  0.72041090  0.49065497  0.05066826  1  0  -0.16601  0  3.645538  0  0  -0.267634  0  3.890213  0  0  -0.263827  0  3.901445  0  0  -0.134891  -0.269825  0  3.882632  0
C  C74  1  0.72041598  0.99065572  0.44933235  1  0  -0.166014  0  3.645727  0  0  -0.267671  0  3.890375  0  0  -0.263865  0  3.90161  0  0  -0.134913  -0.269858  0  3.882793  0
C  C75  1  0.27958845  0.50934591  0.94933077  1  0  -0.16603  0  3.645602  0  0  -0.267682  0  3.890255  0  0  -0.263872  0  3.901484  0  0  -0.134924  -0.26987  0  3.882676  0
C  C76  1  0.22319042  0.89199214  0.40826254  1  0  -0.176442  0  3.639924  0  0  -0.278197  0  3.888096  0  0  -0.275342  0  3.899592  0  0  -0.130741  -0.279898  0  3.880408  0
C  C77  1  0.77680894  0.60800777  0.90826193  1  0  -0.176399  0  3.639901  0  0  -0.278159  0  3.888067  0  0  -0.275303  0  3.899564  0  0  -0.130709  -0.279861  0  3.88038  0
C  C78  1  0.77680890  0.10800777  0.59173781  1  0  -0.176382  0  3.63992  0  0  -0.278146  0  3.888092  0  0  -0.275291  0  3.89959  0  0  -0.130719  -0.279848  0  3.880405  0
C  C79  1  0.22319037  0.39199214  0.09173776  1  0  -0.176478  0  3.639894  0  0  -0.278228  0  3.888062  0  0  -0.275372  0  3.899558  0  0  -0.130739  -0.279929  0  3.880375  0
C  C80  1  0.59862986  0.68001681  0.25639911  1  0  -0.03332  0  3.66595  0  0  -0.079042  0  3.916776  0  0  -0.069669  0  3.930049  0  0  -0.056669  -0.084713  0  3.908055  0
C  C81  1  0.40136964  0.81998286  0.75639945  1  0  -0.033264  0  3.665881  0  0  -0.078984  0  3.916712  0  0  -0.06961  0  3.929984  0  0  -0.056631  -0.084655  0  3.907992  0
C  C82  1  0.40136950  0.31998407  0.74360256  1  0  -0.033319  0  3.665892  0  0  -0.079052  0  3.916736  0  0  -0.069678  0  3.930007  0  0  -0.056629  -0.084723  0  3.908016  0
C  C83  1  0.59863216  0.18001608  0.24360090  1  0  -0.033209  0  3.665919  0  0  -0.078957  0  3.916745  0  0  -0.069582  0  3.930017  0  0  -0.056612  -0.084632  0  3.908027  0
N  N84  1  0.22942699  0.01264823  0.45815107  1  0  -0.083038  0  3.495987  0  0  0.022142  0  3.729739  0  0  0.002043  0  3.754734  0  0  -0.278341  0.035526  0  3.712397  0
N  N85  1  0.77057068  0.48735185  0.95815028  1  0  -0.083087  0  3.495855  0  0  0.022085  0  3.72962  0  0  0.001986  0  3.754612  0  0  -0.278347  0.035469  0  3.712279  0
N  N86  1  0.77057363  0.98735264  0.54184928  1  0  -0.083114  0  3.496041  0  0  0.022061  0  3.729796  0  0  0.001962  0  3.75479  0  0  -0.278376  0.035446  0  3.712453  0
N  N87  1  0.22942742  0.51264903  0.04184941  1  0  -0.083041  0  3.495792  0  0  0.022123  0  3.729558  0  0  0.002024  0  3.754549  0  0  -0.278369  0.035507  0  3.712217  0
N  N88  1  0.82582432  0.60345595  0.38176259  1  0  0.28351  0  3.655569  0  0  0.331594  0  3.921259  0  0  0.3286  0  3.940959  0  0  -0.112425  0.332745  0  3.908132  0
N  N89  1  0.17417637  0.89654504  0.88176282  1  0  0.283453  0  3.655492  0  0  0.331534  0  3.921175  0  0  0.328541  0  3.940874  0  0  -0.112483  0.332685  0  3.908048  0
N  N90  1  0.17417500  0.39654395  0.61823776  1  0  0.283597  0  3.655436  0  0  0.331658  0  3.921112  0  0  0.328665  0  3.94081  0  0  -0.112375  0.332807  0  3.907985  0
N  N91  1  0.82582547  0.10345486  0.11823688  1  0  0.283485  0  3.655508  0  0  0.33157  0  3.921199  0  0  0.328578  0  3.940897  0  0  -0.112474  0.33272  0  3.908072  0
O  O92  1  0.93960408  0.56841477  0.44179701  1  0  -0.588824  0  2.008346  0  0  -0.521401  0  2.306727  0  0  -0.546673  0  2.293607  0  0  -0.23469  -0.503358  0  2.315415  0
O  O93  1  0.06039646  0.93158401  0.94179785  1  0  -0.588744  0  2.008282  0  0  -0.521321  0  2.306662  0  0  -0.546595  0  2.293547  0  0  -0.234637  -0.503283  0  2.315358  0
O  O94  1  0.06039516  0.43158321  0.55820268  1  0  -0.588848  0  2.008225  0  0  -0.521422  0  2.306609  0  0  -0.546699  0  2.293495  0  0  -0.234726  -0.503375  0  2.315295  0
O  O95  1  0.93960411  0.06841590  0.05820184  1  0  -0.588776  0  2.008311  0  0  -0.521364  0  2.306707  0  0  -0.546642  0  2.293594  0  0  -0.234654  -0.503318  0  2.315392  0
O  O96  1  0.33058144  0.48660328  0.40327165  1  0  -0.64926  0  2.063249  0  0  -0.578606  0  2.33017  0  0  -0.608506  0  2.313884  0  0  -0.322582  -0.557456  0  2.340406  0
O  O97  1  0.66941885  0.01339803  0.90327259  1  0  -0.649259  0  2.063206  0  0  -0.578636  0  2.330164  0  0  -0.608535  0  2.313874  0  0  -0.322603  -0.557486  0  2.340399  0
O  O98  1  0.66941681  0.51340147  0.59673068  1  0  -0.649242  0  2.063282  0  0  -0.578631  0  2.330243  0  0  -0.608518  0  2.313921  0  0  -0.322584  -0.55748  0  2.340478  0
O  O99  1  0.33058046  0.98660188  0.09672776  1  0  -0.649303  0  2.063204  0  0  -0.578664  0  2.330135  0  0  -0.608563  0  2.313844  0  0  -0.322594  -0.557515  0  2.340373  0
O  O100  1  0.25561753  0.60975867  0.28630632  1  0  -0.600204  0  1.938549  0  0  -0.559727  0  2.163922  0  0  -0.58306  0  2.15476  0  0  -0.312332  -0.543258  0  2.169583  0
O  O101  1  0.74438201  0.89024279  0.78630773  1  0  -0.600235  0  1.938579  0  0  -0.559743  0  2.163931  0  0  -0.583077  0  2.154769  0  0  -0.312338  -0.543273  0  2.169591  0
O  O102  1  0.74438297  0.39023930  0.71369337  1  0  -0.600228  0  1.938527  0  0  -0.559741  0  2.163871  0  0  -0.583078  0  2.15471  0  0  -0.312305  -0.543272  0  2.169532  0
O  O103  1  0.25561986  0.10975809  0.21369328  1  0  -0.600232  0  1.938549  0  0  -0.559755  0  2.163921  0  0  -0.583089  0  2.154759  0  0  -0.312339  -0.543286  0  2.169582  0
O  O104  1  0.98572411  0.84317906  0.18408727  1  0  -0.663091  0  2.046309  0  0  -0.595231  0  2.316374  0  0  -0.625667  0  2.30228  0  0  -0.333018  -0.573758  0  2.325273  0
O  O105  1  0.01427547  0.65682095  0.68408873  1  0  -0.663101  0  2.04637  0  0  -0.595246  0  2.316454  0  0  -0.625683  0  2.30236  0  0  -0.333003  -0.573772  0  2.325357  0
O  O106  1  0.01427264  0.15681988  0.81591242  1  0  -0.663108  0  2.046443  0  0  -0.595247  0  2.316513  0  0  -0.625682  0  2.302418  0  0  -0.333007  -0.573776  0  2.325412  0
O  O107  1  0.98572507  0.34317799  0.31591162  1  0  -0.663168  0  2.046259  0  0  -0.595319  0  2.316335  0  0  -0.625754  0  2.302239  0  0  -0.333048  -0.573846  0  2.325237  0
O  O108  1  0.18518664  0.22821585  0.46530750  1  0  -0.550677  0  2.137759  0  0  -0.487675  0  2.411356  0  0  -0.514163  0  2.40197  0  0  -0.306003  -0.469359  0  2.417296  0
O  O109  1  0.81481228  0.27178420  0.96530783  1  0  -0.550776  0  2.137685  0  0  -0.48772  0  2.411236  0  0  -0.514208  0  2.40185  0  0  -0.306019  -0.469405  0  2.417177  0
O  O110  1  0.81481398  0.77178503  0.53469154  1  0  -0.550703  0  2.137699  0  0  -0.48771  0  2.411288  0  0  -0.514199  0  2.401902  0  0  -0.306023  -0.469394  0  2.417229  0
O  O111  1  0.18518577  0.72821571  0.03469252  1  0  -0.55069  0  2.137751  0  0  -0.487689  0  2.411344  0  0  -0.514177  0  2.401957  0  0  -0.306017  -0.469373  0  2.417285  0
O  O112  1  0.75560419  0.79150218  0.10048823  1  0  -0.590334  0  1.90478  0  0  -0.552227  0  2.127493  0  0  -0.574591  0  2.120061  0  0  -0.313435  -0.53615  0  2.132029  0
O  O113  1  0.24439552  0.70849920  0.60049083  1  0  -0.590362  0  1.904829  0  0  -0.55224  0  2.127524  0  0  -0.574606  0  2.120092  0  0  -0.313416  -0.536162  0  2.132064  0
O  O114  1  0.24439512  0.20849772  0.89951146  1  0  -0.590376  0  1.904775  0  0  -0.552275  0  2.127496  0  0  -0.57464  0  2.120063  0  0  -0.313457  -0.536199  0  2.132029  0
O  O115  1  0.75560498  0.29149877  0.39951018  1  0  -0.590376  0  1.904797  0  0  -0.552258  0  2.127487  0  0  -0.574623  0  2.120054  0  0  -0.31342  -0.536181  0  2.132023  0
