# generated using pymatgen
data_Ni3P6H44(C12O11)2
_symmetry_space_group_name_H-M   'P 1'
_cell_length_a   7.94217430
_cell_length_b   10.16653239
_cell_length_c   12.99225510
_cell_angle_alpha   66.67142817
_cell_angle_beta   85.54929488
_cell_angle_gamma   72.72390476
_symmetry_Int_Tables_number   1
_chemical_formula_structural   Ni3P6H44(C12O11)2
_chemical_formula_sum   'Ni3 P6 H44 C24 O22'
_cell_volume   918.87368653
_cell_formula_units_Z   1
loop_
 _symmetry_equiv_pos_site_id
 _symmetry_equiv_pos_as_xyz
  1  'x, y, z'
loop_
 _atom_site_type_symbol
 _atom_site_label
 _atom_site_symmetry_multiplicity
 _atom_site_fract_x
 _atom_site_fract_y
 _atom_site_fract_z
 _atom_site_occupancy
 _atom_site_hle17_ddec_charge
 _atom_site_hle17_ddec_spin_density
 _atom_site_hle17_ddec_sum_bond_order
 _atom_site_hle17_magmom
 _atom_site_hse06_10hf_ddec_charge
 _atom_site_hse06_10hf_ddec_spin_density
 _atom_site_hse06_10hf_ddec_sum_bond_order
 _atom_site_hse06_10hf_magmom
 _atom_site_hse06_ddec_charge
 _atom_site_hse06_ddec_spin_density
 _atom_site_hse06_ddec_sum_bond_order
 _atom_site_hse06_magmom
 _atom_site_pbe_cm5_charge
 _atom_site_pbe_ddec_charge
 _atom_site_pbe_ddec_spin_density
 _atom_site_pbe_ddec_sum_bond_order
 _atom_site_pbe_magmom
Ni  Ni0  1  0.99998182  0.50002168  0.49998245  1  1.112028  1.785702  1.694263  1.57  1.128382  1.847284  2.069063  1.697  1.205591  1.889379  2.007555  1.769  0.646977  1.064728  1.807257  2.116796  1.631
Ni  Ni1  1  0.52980896  0.63589987  0.39262127  1  1.107292  1.768055  1.704522  1.555  1.129903  1.841598  2.075795  1.692  1.210137  1.886948  2.013286  1.767  0.642693  1.060485  1.797645  2.128745  1.623
Ni  Ni2  1  0.46997958  0.36419060  0.60738580  1  1.107549  1.768303  1.704243  1.555  1.130158  1.841735  2.075502  1.692  1.210397  1.88707  2.012993  1.767  0.6429  1.06081  1.797805  2.128358  1.623
P  P3  1  0.44034090  0.21506708  0.88767793  1  1.505036  0.001051  4.698985  0.001  1.351073  0.002374  5.202254  0.003  1.400631  0.001701  5.163706  0.003  0.375203  1.315897  0.003142  5.228728  0.003
P  P4  1  0.55965633  0.78499483  0.11231196  1  1.504626  0.001046  4.699175  0.001  1.350588  0.002374  5.202438  0.003  1.400162  0.001698  5.163892  0.003  0.375081  1.315412  0.003139  5.228903  0.003
P  P5  1  0.09293046  0.80780151  0.31445857  1  1.530145  0.00182  4.670521  0.002  1.38293  0.004934  5.175405  0.005  1.434608  0.00354  5.135947  0.004  0.38021  1.345501  0.006302  5.202636  0.006
P  P6  1  0.90695933  0.19220407  0.68547533  1  1.529329  0.001828  4.67255  0.002  1.382446  0.004942  5.177262  0.005  1.434143  0.003549  5.137799  0.004  0.379667  1.345023  0.006307  5.204494  0.006
P  P7  1  0.34631594  0.39277260  0.36525290  1  1.530249  0.003692  4.655184  0.002  1.395875  0.007338  5.154087  0.006  1.448552  0.005285  5.115384  0.005  0.369181  1.357669  0.009531  5.180264  0.007
P  P8  1  0.65373455  0.60713962  0.63475290  1  1.530481  0.003697  4.655776  0.002  1.396099  0.007343  5.154729  0.006  1.448788  0.005295  5.116022  0.005  0.369183  1.357883  0.009541  5.180922  0.007
H  H9  1  0.58645749  0.88679359  0.28576207  1  0.420979  -0.001211  0.8451  -0.001  0.397036  -0.000211  0.916649  0.0  0.406648  -0.000309  0.906723  0.0  0.307725  0.390053  -2.1e-05  0.923476  0.0
H  H10  1  0.41328441  0.11331069  0.71434244  1  0.420841  -0.001208  0.845425  -0.001  0.396953  -0.00021  0.916872  0.0  0.406562  -0.000307  0.906959  0.0  0.307678  0.389973  -2e-05  0.923698  0.0
H  H11  1  0.75049753  0.78509968  0.36785131  1  0.438198  -0.000785  0.866097  -0.001  0.407811  -9.1e-05  0.930017  0.0  0.419388  -0.000229  0.913625  0.0  0.293984  0.399367  7.1e-05  0.94192  0.0
H  H12  1  0.24939464  0.21481315  0.63213070  1  0.437491  -0.000784  0.867049  -0.001  0.407149  -9.1e-05  0.930864  0.0  0.418711  -0.000229  0.914505  0.0  0.293734  0.398706  7.2e-05  0.942764  0.0
H  H13  1  0.84513274  0.44593917  0.36462516  1  0.457435  -0.001038  0.76082  -0.001  0.448294  -3e-05  0.799587  0.0  0.45799  -0.000227  0.790331  0.0  0.348234  0.440659  0.000186  0.806955  0.0
H  H14  1  0.15439025  0.55433576  0.63533991  1  0.457728  -0.001032  0.760443  -0.001  0.44862  -2.6e-05  0.79915  0.0  0.458321  -0.000223  0.789874  0.0  0.348181  0.440991  0.00019  0.806518  0.0
H  H15  1  0.77048498  0.37837809  0.48959102  1  0.440845  -0.001623  0.849891  -0.002  0.409414  -0.000639  0.928104  -0.001  0.42198  -0.000761  0.910024  -0.001  0.30681  0.40028  -0.000485  0.938331  0.0
H  H16  1  0.22925933  0.62189013  0.51044656  1  0.441265  -0.001619  0.849541  -0.002  0.409663  -0.000637  0.92782  -0.001  0.422207  -0.000759  0.909762  -0.001  0.306817  0.40055  -0.000482  0.938247  0.0
H  H17  1  0.35850225  0.00827440  0.94353817  1  0.44128  -6.7e-05  0.861063  0.0  0.406383  -1.6e-05  0.92993  0.0  0.418002  -1.7e-05  0.913587  0.0  0.30912  0.398146  -7e-06  0.941523  0.0
H  H18  1  0.64151962  0.99176244  0.05647196  1  0.441354  -6.7e-05  0.860967  0.0  0.406571  -1.6e-05  0.929637  0.0  0.41821  -1.7e-05  0.913267  0.0  0.309212  0.398332  -7e-06  0.941238  0.0
H  H19  1  0.22443565  0.83594660  0.14662933  1  0.442584  2e-05  0.851835  0.0  0.407407  4e-05  0.92435  0.0  0.418623  2e-05  0.908409  0.0  0.316073  0.399587  6.3e-05  0.935447  0.0
H  H20  1  0.77561055  0.16419744  0.85330156  1  0.442868  2e-05  0.851439  0.0  0.407671  3.9e-05  0.924025  0.0  0.418906  2e-05  0.908052  0.0  0.316107  0.399858  6.3e-05  0.935111  0.0
H  H21  1  0.42127168  0.57062966  0.22842652  1  0.422082  -0.000323  0.885566  0.0  0.389826  -0.000118  0.957613  0.0  0.400812  -0.000147  0.941628  0.0  0.310733  0.382079  -6.6e-05  0.968902  0.0
H  H22  1  0.57870639  0.42936176  0.77154959  1  0.421903  -0.000322  0.885977  0.0  0.389762  -0.000117  0.957768  0.0  0.400752  -0.000146  0.941778  0.0  0.310742  0.382024  -6.5e-05  0.969035  0.0
H  H23  1  0.34771026  0.41035808  0.95101582  1  0.137424  -0.000344  0.950176  0.0  0.153475  -2.8e-05  1.003321  0.0  0.155504  -1.9e-05  1.003234  0.0  0.111825  0.152059  -3.6e-05  1.003386  0.0
H  H24  1  0.65235306  0.58962543  0.04903386  1  0.137613  -0.000344  0.949757  0.0  0.153486  -2.8e-05  1.003028  0.0  0.155523  -1.9e-05  1.002943  0.0  0.111828  0.152064  -3.7e-05  1.00309  0.0
H  H25  1  0.16753491  0.36288907  0.92042827  1  0.150671  -0.000188  0.920126  0.0  0.168368  -0.000128  0.964617  0.0  0.170949  -0.000109  0.963868  0.0  0.118885  0.166534  -0.000137  0.965221  0.0
H  H26  1  0.83249427  0.63718417  0.07958813  1  0.150799  -0.000187  0.920081  0.0  0.168324  -0.000128  0.96471  0.0  0.170907  -0.00011  0.963964  0.0  0.11886  0.166495  -0.000137  0.965307  0.0
H  H27  1  0.07274924  0.18374979  0.96088510  1  0.120153  5.2e-05  0.976072  0.0  0.137093  1.2e-05  1.041074  0.0  0.139231  9e-06  1.039835  0.0  0.091669  0.13558  1.5e-05  1.041929  0.0
H  H28  1  0.92714874  0.81643588  0.03909136  1  0.120098  5.3e-05  0.975811  0.0  0.136813  1.2e-05  1.041146  0.0  0.138949  9e-06  1.039911  0.0  0.09157  0.135299  1.5e-05  1.042  0.0
H  H29  1  0.89680348  0.25263437  0.03444481  1  0.111286  0.000379  0.936746  0.001  0.13611  6.8e-05  0.992976  0.0  0.137178  4.1e-05  0.992961  0.0  0.092057  0.135285  0.000131  0.99304  0.0
H  H30  1  0.10316336  0.74719598  0.96572095  1  0.111451  0.000381  0.936449  0.001  0.136132  6.8e-05  0.992783  0.0  0.137197  4.1e-05  0.99277  0.0  0.092081  0.135316  0.000131  0.992841  0.0
H  H31  1  0.98797321  0.05817091  0.07166202  1  0.117286  0.000123  0.966192  0.0  0.138299  1.8e-05  1.0263  0.0  0.13994  1.3e-05  1.025937  0.0  0.094685  0.137094  3.6e-05  1.026601  0.0
H  H32  1  0.01222211  0.94175672  0.92826717  1  0.117068  0.000122  0.966153  0.0  0.138164  1.7e-05  1.026091  0.0  0.139807  1.3e-05  1.025722  0.0  0.094506  0.136957  3.6e-05  1.026395  0.0
H  H33  1  0.88301729  0.04511389  0.22782016  1  0.141289  0.000127  0.943375  0.0  0.156806  0.000229  0.996053  0.0  0.15911  0.000158  0.995699  0.0  0.111386  0.155067  0.000332  0.996502  0.0
H  H34  1  0.11687640  0.95506529  0.77214926  1  0.141281  0.000127  0.94353  0.0  0.156803  0.000229  0.99619  0.0  0.159112  0.000158  0.995824  0.0  0.111429  0.155065  0.000332  0.996636  0.0
H  H35  1  0.94150308  0.01193650  0.36625470  1  0.130733  -0.000448  0.985208  0.0  0.144961  -0.0001  1.045849  0.0  0.146885  -7.5e-05  1.046015  0.0  0.105985  0.143559  -0.000117  1.045799  0.0
H  H36  1  0.05854172  0.98803678  0.63375359  1  0.130676  -0.00045  0.985335  0.0  0.144878  -0.0001  1.046043  0.0  0.146806  -7.4e-05  1.046202  0.0  0.105952  0.143479  -0.000118  1.04599  0.0
H  H37  1  0.26642971  0.07592442  0.49407007  1  0.110939  0.000119  0.980093  0.0  0.131634  0.000133  1.040121  0.0  0.133309  9e-05  1.03974  0.0  0.09179  0.130299  0.000156  1.040747  0.0
H  H38  1  0.73364681  0.92406755  0.50591478  1  0.111078  0.000118  0.98002  0.0  0.131783  0.000132  1.039967  0.0  0.133461  9e-05  1.039573  0.0  0.091773  0.130433  0.000156  1.040603  0.0
H  H39  1  0.20398296  0.93253245  0.47544226  1  0.109543  0.000458  0.962459  0.001  0.129622  6.4e-05  1.024765  0.0  0.131202  2.9e-05  1.024038  0.0  0.088843  0.128509  9.7e-05  1.025353  0.0
H  H40  1  0.79619764  0.06735368  0.52461728  1  0.109445  0.000458  0.962683  0.001  0.129411  6.4e-05  1.025135  0.0  0.131  2.9e-05  1.024389  0.0  0.088759  0.128299  9.7e-05  1.025723  0.0
H  H41  1  0.04860949  0.10963862  0.45179191  1  0.098846  0.000447  0.961593  0.001  0.119575  9.2e-05  1.02499  0.0  0.12073  4.8e-05  1.024276  0.0  0.088269  0.118735  0.00013  1.025676  0.0
H  H42  1  0.95149599  0.89026309  0.54818893  1  0.098742  0.000448  0.961795  0.001  0.119342  9.3e-05  1.025369  0.0  0.120498  4.9e-05  1.024662  0.0  0.088158  0.118502  0.000131  1.026054  0.0
H  H43  1  0.59302178  0.21259129  0.33770090  1  0.1294  0.000295  0.951491  0.0  0.144283  0.000342  1.005102  0.0  0.14655  0.000229  1.004385  0.0  0.106148  0.14262  0.000474  1.005739  0.001
H  H44  1  0.40709404  0.78729090  0.66231615  1  0.129193  0.000295  0.951801  0.0  0.144171  0.000343  1.005306  0.0  0.146442  0.00023  1.004586  0.0  0.106038  0.142504  0.000475  1.005944  0.001
H  H45  1  0.46914207  0.12770325  0.44852605  1  0.141312  -0.000461  0.966021  0.0  0.154725  -0.000129  1.022915  0.0  0.157169  -0.000108  1.02239  0.0  0.109336  0.152887  -0.000149  1.023573  0.0
H  H46  1  0.53097111  0.87219470  0.55147710  1  0.141462  -0.000461  0.965672  0.0  0.154857  -0.000129  1.022616  0.0  0.157309  -0.000109  1.022071  0.0  0.10933  0.153011  -0.000149  1.023289  0.0
H  H47  1  0.64645842  0.26844066  0.18662182  1  0.099384  1.4e-05  0.969242  0.0  0.122117  1.6e-05  1.028003  0.0  0.123557  9e-06  1.027559  0.0  0.086891  0.121066  2.8e-05  1.028345  0.0
H  H48  1  0.35362034  0.73151755  0.81339474  1  0.099505  1.5e-05  0.969282  0.0  0.122314  1.6e-05  1.02788  0.0  0.123739  9e-06  1.027457  0.0  0.086982  0.121267  2.8e-05  1.028217  0.0
H  H49  1  0.49524263  0.42563268  0.08929012  1  0.107889  0.000248  0.97143  0.0  0.127661  5.8e-05  1.036608  0.0  0.129075  3.8e-05  1.036146  0.0  0.089401  0.126821  0.000114  1.036697  0.0
H  H50  1  0.50480376  0.57430405  0.91071228  1  0.10799  0.000249  0.97126  0.0  0.127818  5.8e-05  1.036378  0.0  0.129236  3.8e-05  1.035909  0.0  0.089452  0.126964  0.000114  1.036483  0.0
H  H51  1  0.60767552  0.27017367  0.05410478  1  0.111946  7.7e-05  0.983067  0.0  0.128338  1.3e-05  1.050041  0.0  0.130527  9e-06  1.049064  0.0  0.089217  0.12664  4.1e-05  1.051006  0.0
H  H52  1  0.39243693  0.72976980  0.94589688  1  0.112109  7.6e-05  0.983026  0.0  0.128512  1.4e-05  1.04995  0.0  0.130686  1e-05  1.048976  0.0  0.089266  0.126824  4.1e-05  1.050916  0.0
C  C53  1  0.28153880  0.23145586  0.08937491  1  0.025946  -0.001272  3.722859  -0.001  0.028476  -0.000297  3.973583  0.0  0.026402  -0.000514  3.99992  0.0  -0.021903  0.02982  0.000186  3.955798  0.0
C  C54  1  0.71855292  0.76846569  0.91063060  1  0.026531  -0.00127  3.722267  -0.001  0.028819  -0.000294  3.972947  0.0  0.026773  -0.000508  3.999282  0.0  -0.021677  0.03015  0.000187  3.955168  0.0
C  C55  1  0.14747149  0.16073268  0.12686448  1  0.051021  0.007869  3.716243  0.009  0.053743  0.001381  3.979965  0.002  0.054016  0.000867  4.00533  0.001  -0.018172  0.053556  0.002491  3.962576  0.003
C  C56  1  0.85255634  0.83926904  0.87311215  1  0.050529  0.007886  3.716081  0.009  0.053287  0.001381  3.979668  0.002  0.053548  0.000868  4.005036  0.001  -0.018251  0.053111  0.002494  3.962272  0.003
C  C57  1  0.12708281  0.09407822  0.24327393  1  0.015761  -0.006308  3.729276  -0.004  0.022825  -0.000619  3.976827  0.0  0.02039  -0.000706  4.003858  0.0  -0.022146  0.024611  -0.000167  3.957981  0.0
C  C58  1  0.87303497  0.90585992  0.75670598  1  0.015649  -0.00631  3.730314  -0.004  0.022866  -0.000616  3.977492  0.0  0.020452  -0.000703  4.004529  0.0  -0.022161  0.02464  -0.000165  3.958639  0.0
C  C59  1  0.22839605  0.10956864  0.32005865  1  0.066217  0.012873  3.683224  0.015  0.070299  0.002308  3.938465  0.003  0.070516  0.001345  3.963095  0.002  -0.013062  0.070749  0.002689  3.921031  0.003
C  C60  1  0.77170700  0.89034930  0.67995432  1  0.066445  0.012885  3.683098  0.015  0.07075  0.002306  3.937986  0.003  0.070923  0.001341  3.962674  0.002  -0.012893  0.071225  0.00269  3.920512  0.003
C  C61  1  0.36209388  0.18053242  0.28155304  1  0.029739  -0.003213  3.709546  -0.003  0.035581  -0.000333  3.955218  0.0  0.034355  -0.000531  3.980208  0.0  -0.016862  0.036251  4.9e-05  3.938036  0.0
C  C62  1  0.63807257  0.81930662  0.71847920  1  0.029633  -0.003211  3.709628  -0.003  0.03523  -0.00033  3.955421  0.0  0.034027  -0.000523  3.980434  0.0  -0.017045  0.035896  5e-05  3.93821  0.0
C  C63  1  0.39516703  0.23469616  0.16609385  1  0.058193  0.005099  3.68787  0.006  0.066109  0.001027  3.942257  0.001  0.066763  0.000706  3.966621  0.001  -0.013986  0.065625  0.001958  3.925668  0.002
C  C64  1  0.60489783  0.76523454  0.83392254  1  0.058134  0.005103  3.688225  0.006  0.066275  0.001026  3.942538  0.001  0.066905  0.000704  3.966916  0.001  -0.013973  0.0658  0.001961  3.925934  0.002
C  C65  1  0.29705854  0.31531412  0.96539113  1  -0.47635  0.003496  3.719507  0.005  -0.495831  0.001883  3.956906  0.002  -0.504964  0.001282  3.965526  0.002  -0.160317  -0.489309  0.002525  3.951061  0.003
C  C66  1  0.70297288  0.68470125  0.03463659  1  -0.476675  0.003495  3.719461  0.005  -0.495746  0.001883  3.956689  0.002  -0.504903  0.001282  3.965336  0.002  -0.160288  -0.489218  0.002525  3.95083  0.003
C  C67  1  0.02154296  0.16346152  0.04446074  1  -0.333945  -0.000846  3.709988  -0.001  -0.416178  -2.8e-05  3.957243  0.0  -0.418339  -3e-05  3.966238  0.0  -0.251633  -0.414382  -1.9e-05  3.950993  0.0
C  C68  1  0.97849444  0.83651517  0.95554997  1  -0.333785  -0.000852  3.709018  -0.001  -0.415739  -2.7e-05  3.956376  0.0  -0.41789  -3.2e-05  3.965385  0.0  -0.2515  -0.413958  -1.9e-05  3.950109  0.0
C  C69  1  0.99513839  0.00593187  0.28751082  1  -0.48437  0.005559  3.71116  0.007  -0.507865  0.003079  3.947161  0.004  -0.517242  0.002043  3.955863  0.003  -0.168505  -0.500875  0.004231  3.941226  0.005
C  C70  1  0.00482393  0.99411214  0.71245009  1  -0.484175  0.005566  3.712181  0.007  -0.507809  0.003082  3.948234  0.004  -0.517188  0.002045  3.956913  0.003  -0.168521  -0.500815  0.004237  3.942298  0.005
C  C71  1  0.18649934  0.05359938  0.44186055  1  -0.324655  -0.001091  3.722216  -0.001  -0.406067  8.2e-05  3.966932  0.0  -0.407948  2.3e-05  3.976447  0.0  -0.247917  -0.404563  0.000149  3.960151  0.0
C  C72  1  0.81362323  0.94632057  0.55814621  1  -0.324602  -0.001096  3.722556  -0.001  -0.40593  8.2e-05  3.967199  0.0  -0.407809  2e-05  3.976736  0.0  -0.247691  -0.404428  0.000149  3.960431  0.0
C  C73  1  0.45826944  0.21019214  0.36216933  1  -0.468574  0.007018  3.69791  0.009  -0.492952  0.003709  3.934316  0.005  -0.50286  0.002456  3.943244  0.003  -0.163544  -0.485433  0.005161  3.928194  0.006
C  C74  1  0.54184004  0.78971356  0.63784012  1  -0.468738  0.00703  3.698156  0.009  -0.493187  0.003713  3.93446  0.005  -0.503117  0.00246  3.943417  0.003  -0.163474  -0.485649  0.005167  3.928322  0.006
C  C75  1  0.54390686  0.30282730  0.12174526  1  -0.336041  -0.00047  3.740338  0.0  -0.41956  4.6e-05  3.988501  0.0  -0.421997  2.2e-05  3.997491  0.0  -0.25042  -0.41756  9.8e-05  3.982228  0.0
C  C76  1  0.45617839  0.69711435  0.87825831  1  -0.336397  -0.000472  3.740807  0.0  -0.420082  4.6e-05  3.988821  0.0  -0.422489  2.1e-05  3.997825  0.0  -0.250593  -0.418086  9.9e-05  3.982558  0.0
O  O77  1  0.61651193  0.82036939  0.36495272  1  -0.794746  0.044239  1.894069  0.076  -0.770079  0.029603  2.111087  0.051  -0.800679  0.02145  2.083292  0.04  -0.557707  -0.746337  0.036568  2.130627  0.06
O  O78  1  0.38336823  0.17959461  0.63511209  1  -0.794052  0.044222  1.894373  0.076  -0.769418  0.029586  2.111412  0.051  -0.800005  0.021432  2.083627  0.04  -0.557617  -0.745756  0.036552  2.131073  0.06
O  O79  1  0.62310773  0.12884467  0.94648528  1  -0.83996  0.000395  1.960472  0.001  -0.750841  0.00034  2.188684  0.001  -0.778076  0.000161  2.171881  0.0  -0.35382  -0.731783  0.000546  2.200304  0.001
O  O80  1  0.37690876  0.87127415  0.05345862  1  -0.83982  0.000392  1.960574  0.001  -0.750547  0.000338  2.188566  0.001  -0.777822  0.00016  2.171907  0.0  -0.35386  -0.731493  0.000544  2.200186  0.001
O  O81  1  0.79425076  0.47090766  0.42781294  1  -0.800742  0.056254  2.052256  0.096  -0.778662  0.04462  2.298103  0.075  -0.81286  0.03425  2.264095  0.06  -0.526677  -0.751414  0.05379  2.320283  0.086
O  O82  1  0.20558939  0.52928676  0.57223843  1  -0.801664  0.056235  2.051277  0.096  -0.779646  0.044604  2.297201  0.075  -0.813817  0.034235  2.263269  0.06  -0.526792  -0.75241  0.053775  2.319473  0.086
O  O83  1  0.34949207  0.10425729  0.87164318  1  -0.753027  -0.000584  2.006801  0.0  -0.676747  -0.000469  2.230856  0.0  -0.698095  -0.000459  2.206107  0.0  -0.377012  -0.661638  -0.000374  2.247898  0.0
O  O84  1  0.65054741  0.89578726  0.12835064  1  -0.753053  -0.000583  2.007155  0.0  -0.676672  -0.000469  2.230974  0.0  -0.698064  -0.000457  2.206215  0.0  -0.376965  -0.66158  -0.000373  2.248026  0.0
O  O85  1  0.44735999  0.33677776  0.77161581  1  -0.8704  0.029557  2.091811  0.052  -0.812241  0.0201  2.378843  0.034  -0.845624  0.014882  2.355413  0.027  -0.372478  -0.786548  0.024535  2.394815  0.04
O  O86  1  0.55254996  0.66330782  0.22836587  1  -0.870282  0.029541  2.091564  0.052  -0.812167  0.020101  2.378755  0.034  -0.84554  0.014883  2.355319  0.027  -0.37238  -0.786464  0.024537  2.394733  0.04
O  O87  1  0.95872507  0.72225148  0.36908339  1  -0.840063  0.036645  2.003728  0.063  -0.783415  0.023456  2.27593  0.04  -0.818078  0.016578  2.255871  0.03  -0.359591  -0.756563  0.03021  2.289131  0.049
O  O88  1  0.04113336  0.27773574  0.63077070  1  -0.839556  0.036692  2.00444  0.063  -0.783038  0.023482  2.276624  0.04  -0.817709  0.016595  2.256582  0.03  -0.359277  -0.756154  0.030247  2.2898  0.049
O  O89  1  0.12760051  0.80189191  0.19530116  1  -0.735634  -0.000254  2.068571  0.0  -0.66044  -0.000156  2.297873  0.0  -0.682372  -0.000286  2.273127  0.0  -0.373464  -0.644811  5.9e-05  2.315058  0.001
O  O90  1  0.87245818  0.19815784  0.80461544  1  -0.735511  -0.000258  2.068764  0.0  -0.660685  -0.000159  2.29823  0.0  -0.682616  -0.000286  2.27343  0.0  -0.37346  -0.645084  5.6e-05  2.315443  0.001
O  O91  1  0.26144424  0.74565653  0.39096901  1  -0.863464  0.032968  2.04295  0.059  -0.805556  0.021  2.324539  0.038  -0.840983  0.014787  2.304361  0.028  -0.36357  -0.777702  0.026843  2.337713  0.045
O  O92  1  0.73837856  0.25437103  0.60905702  1  -0.863195  0.03297  2.042969  0.059  -0.805393  0.020999  2.324314  0.038  -0.840884  0.014787  2.304187  0.028  -0.36357  -0.777534  0.026843  2.337447  0.045
O  O93  1  0.16144322  0.39644827  0.40583814  1  -0.834407  0.036744  1.971025  0.064  -0.790229  0.022126  2.255721  0.038  -0.824661  0.015806  2.235524  0.029  -0.369597  -0.763567  0.028083  2.269083  0.046
O  O94  1  0.83859638  0.60346211  0.59415261  1  -0.834679  0.036793  1.972018  0.064  -0.790389  0.02216  2.25659  0.038  -0.824811  0.015831  2.236335  0.029  -0.369561  -0.763721  0.028122  2.269955  0.046
O  O95  1  0.46394108  0.42945121  0.43460563  1  -0.874971  0.067736  2.105123  0.115  -0.837117  0.044896  2.415984  0.075  -0.880712  0.033329  2.397924  0.058  -0.373326  -0.801833  0.055292  2.426943  0.088
O  O96  1  0.53602658  0.57051511  0.56543252  1  -0.874853  0.067748  2.105362  0.115  -0.837095  0.044916  2.416384  0.075  -0.880717  0.033345  2.398372  0.058  -0.373406  -0.801814  0.055315  2.427353  0.088
O  O97  1  0.34253009  0.50470654  0.23895752  1  -0.725924  0.00406  2.02428  0.007  -0.656483  0.002658  2.240973  0.005  -0.678009  0.00159  2.217397  0.003  -0.383991  -0.641165  0.003856  2.257648  0.006
O  O98  1  0.65756215  0.49520521  0.76103478  1  -0.725678  0.004066  2.024585  0.007  -0.656343  0.002661  2.241066  0.005  -0.677896  0.00159  2.217527  0.003  -0.383963  -0.641033  0.003861  2.257736  0.006
