# generated using pymatgen
data_Zn4H15C30I3O13
_symmetry_space_group_name_H-M   'P 1'
_cell_length_a   18.53512951
_cell_length_b   18.53587272
_cell_length_c   18.42820894
_cell_angle_alpha   119.69795384
_cell_angle_beta   120.25926230
_cell_angle_gamma   90.36757700
_symmetry_Int_Tables_number   1
_chemical_formula_structural   Zn4H15C30I3O13
_chemical_formula_sum   'Zn8 H30 C60 I6 O26'
_cell_volume   4465.14050544
_cell_formula_units_Z   2
loop_
 _symmetry_equiv_pos_site_id
 _symmetry_equiv_pos_as_xyz
  1  'x, y, z'
loop_
 _atom_site_type_symbol
 _atom_site_label
 _atom_site_symmetry_multiplicity
 _atom_site_fract_x
 _atom_site_fract_y
 _atom_site_fract_z
 _atom_site_occupancy
 _atom_site_pbe_bader_charge
 _atom_site_pbe_bader_spin_density
 _atom_site_pbe_cm5_charge
 _atom_site_pbe_ddec_charge
 _atom_site_pbe_ddec_spin_density
 _atom_site_pbe_ddec_sum_bond_order
 _atom_site_pbe_magmom
Zn  Zn0  1  0.86568921  0.45730704  0.90722787  1  1.30559  0  0.672946  0.971939  0  2.35978  0
Zn  Zn1  1  0.45477765  0.86724670  0.90864837  1  1.307319  0  0.671744  0.960336  0  2.375677  0
Zn  Zn2  1  0.04141411  0.45386149  0.90865186  1  1.311979  0  0.671717  0.960203  0  2.375492  0
Zn  Zn3  1  0.03965962  0.62839542  0.07683076  1  1.317314  0  0.669524  0.962606  0  2.348385  0
Zn  Zn4  1  0.44846005  0.03718185  0.07686281  1  1.319636  0  0.669537  0.962519  0  2.348607  0
Zn  Zn5  1  0.44991826  0.04152325  0.90721317  1  1.311302  0  0.672912  0.972  0  2.359751  0
Zn  Zn6  1  0.03933203  0.45385820  0.07901941  1  1.315848  0  0.669681  0.958308  0  2.371456  0
Zn  Zn7  1  0.62516877  0.03969337  0.07902503  1  1.313064  0  0.669655  0.958328  0  2.371406  0
H  H8  1  0.68788890  0.59402448  0.93589509  1  0.076817  0  0.103844  0.112493  0  1.001205  0
H  H9  1  0.34268100  0.96688366  0.59525261  1  0.05907  0  0.099407  0.110345  0  0.977956  0
H  H10  1  0.62836610  0.25257290  0.59525623  1  0.059772  0  0.099396  0.11038  0  0.977929  0
H  H11  1  0.62520218  0.34616131  0.59038094  1  0.074203  0  0.099571  0.110478  0  0.977633  0
H  H12  1  0.24421629  0.96515582  0.59038749  1  0.054645  0  0.09951  0.110408  0  0.977568  0
H  H13  1  0.31959405  0.64761425  0.06182699  1  0.08552  0  0.110132  0.113434  0  0.982764  0
H  H14  1  0.41423319  0.74224642  0.06188345  1  0.08463  0  0.110039  0.113321  0  0.982666  0
H  H15  1  0.34165445  0.24772046  0.93558715  1  0.077754  0  0.103844  0.112518  0  1.001198  0
H  H16  1  0.59147010  0.68663531  0.93377295  1  0.09136  0  0.110862  0.117256  0  0.985033  0
H  H17  1  0.24694753  0.34204587  0.93346796  1  0.083892  0  0.110929  0.117022  0  0.985709  0
H  H18  1  0.83627597  0.94478816  0.04576034  1  0.057114  0  0.09479  0.114902  0  0.997887  0
H  H19  1  0.10131891  0.20989405  0.04642976  1  0.05135  0  0.095012  0.115084  0  0.997828  0
H  H20  1  0.97686149  0.87623724  0.14853711  1  0.114833  0  0.106497  0.112598  0  0.963979  0
H  H21  1  0.27270940  0.17211075  0.14906081  1  0.090357  0  0.106464  0.112441  0  0.963975  0
H  H22  1  0.90890752  0.30013784  0.58767837  1  0.086105  0  0.107708  0.115607  0  0.990984  0
H  H23  1  0.28754346  0.67875758  0.58765638  1  0.091149  0  0.107691  0.115542  0  0.991099  0
H  H24  1  0.81135984  0.20027034  0.39666289  1  0.102885  0  0.106644  0.113494  0  0.995377  0
H  H25  1  0.19638856  0.58530225  0.39664446  1  0.074202  0  0.106626  0.113521  0  0.995545  0
H  H26  1  0.52888927  0.15152155  0.40122517  1  0.048087  0  0.098358  0.107986  0  0.980845  0
H  H27  1  0.24969170  0.87234075  0.40121812  1  0.0412  0  0.098365  0.107998  0  0.980875  0
H  H28  1  0.16553016  0.89145398  0.96164194  1  0.118074  0  0.082339  0.09692  0  1.052119  0
H  H29  1  0.07012052  0.79605759  0.96151029  1  0.116758  0  0.082301  0.096912  0  1.052164  0
H  H30  1  0.77034032  0.05194980  0.91822667  1  0.043442  0  0.099971  0.10881  0  0.97857  0
H  H31  1  0.52626411  0.24521381  0.39641595  1  0.05077  0  0.097759  0.107185  0  0.981898  0
H  H32  1  0.86626811  0.14786674  0.91821670  1  0.040797  0  0.099936  0.108785  0  0.978549  0
H  H33  1  0.84401345  0.11489769  0.05525945  1  0.073979  0  0.100218  0.112405  0  0.98109  0
H  H34  1  0.94035778  0.21122624  0.05525119  1  0.086714  0  0.10021  0.112417  0  0.981055  0
H  H35  1  0.88010508  0.97288535  0.17140516  1  0.054196  0  0.104734  0.125773  0  0.96331  0
H  H36  1  0.19899408  0.29177183  0.17190903  1  0.078388  0  0.105046  0.125875  0  0.96359  0
H  H37  1  0.15118998  0.87014312  0.39642064  1  0.06396  0  0.097759  0.107107  0  0.981976  0
C  C38  1  0.13607735  0.63705336  0.26848951  1  1.547135  0  0.227413  0.610597  0  4.1721  0
C  C39  1  0.20125144  0.31282046  0.00598301  1  -0.007205  0  -0.010125  -0.072032  0  3.971195  0
C  C40  1  0.37006143  0.85533035  0.00122247  1  1.585085  0  0.228379  0.613819  0  4.182628  0
C  C41  1  0.13865783  0.36303145  0.99813125  1  1.545071  0  0.228218  0.608738  0  4.18051  0
C  C42  1  0.63509007  0.85947942  0.99809241  1  1.567908  0  0.228364  0.609287  0  4.180506  0
C  C43  1  0.85935310  0.63847080  0.99929342  1  1.570729  0  0.226501  0.608269  0  4.169291  0
C  C44  1  0.36079152  0.13989970  0.99929019  1  1.540818  0  0.226722  0.608541  0  4.169192  0
C  C45  1  0.83474031  0.78465136  0.04325610  1  -0.029266  0  -0.013499  0.024103  0  3.905554  0
C  C46  1  0.69314740  0.80473652  0.00596929  1  -0.021756  0  -0.010125  -0.072122  0  3.97193  0
C  C47  1  0.25870548  0.20862177  0.04342376  1  0.005183  0  -0.013314  0.024243  0  3.905565  0
C  C48  1  0.80373104  0.69599708  0.00424662  1  0.0268  0  -0.009721  -0.058446  0  3.949731  0
C  C49  1  0.30823060  0.20047979  0.00424871  1  0.014906  0  -0.010079  -0.058659  0  3.950283  0
C  C50  1  0.71478996  0.66297400  0.96693175  1  -0.026003  0  -0.07988  -0.094258  0  3.953013  0
C  C51  1  0.30382903  0.25197165  0.96675439  1  -0.037593  0  -0.079635  -0.094105  0  3.953315  0
C  C52  1  0.78178507  0.83782371  0.04647080  1  -0.013203  0  -0.000871  0.076  0  3.892425  0
C  C53  1  0.20878493  0.26482121  0.04666297  1  -0.0143  0  -0.000998  0.075772  0  3.892911  0
C  C54  1  0.85281550  0.91833052  0.09171570  1  0.026117  0  -0.153422  -0.229349  0  3.874473  0
C  C55  1  0.17371858  0.23926525  0.09220285  1  -0.01477  0  -0.153634  -0.229066  0  3.874642  0
C  C56  1  0.63145539  0.13242562  0.26851190  1  1.547244  0  0.22745  0.610619  0  4.172283  0
C  C57  1  0.91003333  0.85636258  0.08156283  1  -0.154053  0  -0.087334  -0.025598  0  3.703969  0
C  C58  1  0.22549917  0.17185819  0.08204205  1  -0.130609  0  -0.087407  -0.02584  0  3.703223  0
C  C59  1  0.70904226  0.27738055  0.54793411  1  -0.018467  0  -0.001885  0.065267  0  3.881024  0
C  C60  1  0.27056139  0.83887850  0.54792425  1  0.006706  0  -0.001788  0.065292  0  3.881134  0
C  C61  1  0.80142892  0.30751867  0.60407735  1  0.011524  0  -0.014152  -0.081153  0  3.980949  0
C  C62  1  0.29657009  0.80263575  0.60406754  1  -0.043406  0  -0.014251  -0.081367  0  3.981084  0
C  C63  1  0.83693565  0.27801527  0.54641192  1  -0.063885  0  -0.082665  -0.09749  0  3.977448  0
C  C64  1  0.26840314  0.70946634  0.54639401  1  0.06136  0  -0.082619  -0.09732  0  3.977663  0
C  C65  1  0.78223196  0.22191795  0.43929272  1  -0.059832  0  -0.083099  -0.097164  0  3.979959  0
C  C66  1  0.21737748  0.65705510  0.43927669  1  -0.030115  0  -0.08297  -0.097229  0  3.980123  0
C  C67  1  0.68863249  0.19167255  0.38292194  1  0.031724  0  -0.012907  -0.080092  0  3.978978  0
C  C68  1  0.19124739  0.69428505  0.38290135  1  -0.070241  0  -0.012966  -0.079853  0  3.978724  0
C  C69  1  0.85965534  0.36633397  0.71835184  1  1.538967  0  0.229151  0.611155  0  4.173849  0
C  C70  1  0.35202156  0.85868736  0.71834414  1  1.53687  0  0.229119  0.611308  0  4.174046  0
C  C71  1  0.65416723  0.22111164  0.44047260  1  -0.009127  0  -0.002968  0.062687  0  3.879845  0
C  C72  1  0.66074011  0.71520781  0.96637789  1  0.00067  0  -0.075379  -0.086406  0  3.952443  0
C  C73  1  0.21936713  0.78629838  0.44046072  1  -0.010692  0  -0.003192  0.062359  0  3.879939  0
C  C74  1  0.56951337  0.21720877  0.43464172  1  -0.000114  0  -0.150717  -0.198149  0  3.887322  0
C  C75  1  0.21742606  0.86512379  0.43463832  1  -0.052058  0  -0.150709  -0.19804  0  3.887309  0
C  C76  1  0.63166872  0.28062585  0.55620866  1  -0.05684  0  -0.150221  -0.198933  0  3.883592  0
C  C77  1  0.27558116  0.92452474  0.55620753  1  0.011343  0  -0.150113  -0.198741  0  3.883451  0
C  C78  1  0.25106204  0.30548408  0.96620518  1  0.001935  0  -0.075595  -0.08626  0  3.952759  0
C  C79  1  0.17467495  0.73682059  0.96469090  1  -0.076663  0  -0.01235  0.040812  0  3.924844  0
C  C80  1  0.22791377  0.79005326  0.96473118  1  0.022001  0  -0.012536  0.04049  0  3.924944  0
C  C81  1  0.20540058  0.68615190  0.00181079  1  0.063984  0  -0.006914  -0.04951  0  3.962373  0
C  C82  1  0.31570433  0.79643537  0.00187280  1  0.034378  0  -0.006809  -0.049639  0  3.962619  0
C  C83  1  0.29297529  0.68855088  0.03521302  1  0.008743  0  -0.076847  -0.095258  0  3.957412  0
C  C84  1  0.34667613  0.74224194  0.03524429  1  -0.08535  0  -0.076836  -0.094971  0  3.957199  0
C  C85  1  0.15542910  0.82087596  0.91554889  1  -0.183499  0  -0.101616  -0.054863  0  3.696763  0
C  C86  1  0.09468037  0.76012643  0.91548637  1  -0.142963  0  -0.101732  -0.055032  0  3.697106  0
C  C87  1  0.81365882  0.23811383  0.99848129  1  0.007567  0  -0.006305  0.06229  0  3.899699  0
C  C88  1  0.76036472  0.18482679  0.99848299  1  0.040989  0  -0.006411  0.062271  0  3.899731  0
C  C89  1  0.80065981  0.31395063  0.00396094  1  7.8e-05  0  -0.015268  -0.089676  0  3.947268  0
C  C90  1  0.69000575  0.20330768  0.00396438  1  -0.005827  0  -0.01532  -0.089785  0  3.947359  0
C  C91  1  0.73203489  0.33688180  0.01474844  1  -0.212298  0  -0.048642  0.002343  0  3.849729  0
C  C92  1  0.67786193  0.28271320  0.01474854  1  -0.13308  0  -0.04862  0.002493  0  3.849907  0
C  C93  1  0.85774440  0.36415114  0.99679297  1  1.590853  0  0.225642  0.622228  0  4.171302  0
C  C94  1  0.63264083  0.13905782  0.99680015  1  1.572523  0  0.225772  0.622325  0  4.171324  0
C  C95  1  0.80955191  0.11913964  0.98927119  1  0.003746  0  -0.147226  -0.195745  0  3.866457  0
C  C96  1  0.87012644  0.17970417  0.98926633  1  -0.071896  0  -0.147146  -0.195678  0  3.866365  0
C  C97  1  0.14584868  0.63112946  0.00113586  1  1.581391  0  0.228266  0.613458  0  4.18243  0
I  I98  1  0.12260375  0.79457621  0.77240527  1  0.038655  0  0.00736  -0.076617  0  1.362707  0
I  I99  1  0.13506601  0.03599574  0.96143233  1  0.013019  0  0.021435  -0.101845  0  1.417356  0
I  I100  1  0.92496507  0.82582090  0.96063767  1  0.015615  0  0.021432  -0.101942  0  1.4187  0
I  I101  1  0.97792277  0.64982612  0.77221242  1  0.033904  0  0.007511  -0.076453  0  1.363324  0
I  I102  1  0.71890183  0.45897998  0.04087491  1  0.133303  0  0.058294  -0.025919  0  1.513729  0
I  I103  1  0.58187721  0.32196462  0.04086036  1  0.132538  0  0.058331  -0.025882  0  1.513622  0
O  O104  1  0.99607349  0.49834499  0.99307221  1  -1.220333  0  -0.571578  -1.028783  0  2.528166  0
O  O105  1  0.37039446  0.93470702  0.04120577  1  -1.164927  0  -0.311211  -0.542287  0  2.31526  0
O  O106  1  0.10641853  0.67076887  0.04108056  1  -1.165086  0  -0.311153  -0.542275  0  2.314848  0
O  O107  1  0.11330713  0.55367584  0.22457473  1  -1.17614  0  -0.315655  -0.546775  0  2.344016  0
O  O108  1  0.67090724  0.11123756  0.22457979  1  -1.179096  0  -0.31554  -0.546661  0  2.344155  0
O  O109  1  0.94364608  0.38909196  0.76298630  1  -1.182197  0  -0.315152  -0.548379  0  2.346265  0
O  O110  1  0.37389026  0.81933506  0.76298303  1  -1.183999  0  -0.315118  -0.548433  0  2.346308  0
O  O111  1  0.49472984  0.99699943  0.99307448  1  -1.220623  0  -0.571574  -1.028801  0  2.528167  0
O  O112  1  0.11606990  0.67657089  0.22398961  1  -1.15756  0  -0.312907  -0.543441  0  2.31858  0
O  O113  1  0.54743763  0.10797648  0.22402594  1  -1.153567  0  -0.313097  -0.543547  0  2.318693  0
O  O114  1  0.81984727  0.38861531  0.76199018  1  -1.157367  0  -0.309921  -0.538778  0  2.333815  0
O  O115  1  0.37337925  0.94212504  0.76197497  1  -1.155487  0  -0.309888  -0.53883  0  2.334075  0
O  O116  1  0.94121532  0.38248081  0.05666777  1  -1.160462  0  -0.308766  -0.534748  0  2.30146  0
O  O117  1  0.67419058  0.11547662  0.05668626  1  -1.153172  0  -0.308767  -0.53472  0  2.301662  0
O  O118  1  0.13829191  0.54994309  0.95930290  1  -1.166766  0  -0.312204  -0.54019  0  2.319179  0
O  O119  1  0.40938078  0.82103731  0.95933626  1  -1.167421  0  -0.312309  -0.540489  0  2.319201  0
O  O120  1  0.11363638  0.38227702  0.05682985  1  -1.164014  0  -0.312049  -0.541973  0  2.321227  0
O  O121  1  0.67454045  0.94319051  0.05672767  1  -1.168076  0  -0.312055  -0.542232  0  2.3215  0
O  O122  1  0.94285671  0.67801612  0.05341847  1  -1.166618  0  -0.309357  -0.539226  0  2.333841  0
O  O123  1  0.37539136  0.11053546  0.05343279  1  -1.162707  0  -0.309355  -0.539177  0  2.334125  0
O  O124  1  0.11363151  0.38025444  0.93202517  1  -1.152397  0  -0.310568  -0.534412  0  2.333511  0
O  O125  1  0.55175386  0.81839705  0.93203578  1  -1.178601  0  -0.310734  -0.534702  0  2.333361  0
O  O126  1  0.81921756  0.55520471  0.94187688  1  -1.17664  0  -0.312961  -0.547773  0  2.345952  0
O  O127  1  0.81842297  0.38015351  0.92947547  1  -1.176377  0  -0.312561  -0.545355  0  2.36972  0
O  O128  1  0.38663916  0.12260941  0.94186128  1  -1.152182  0  -0.313128  -0.548084  0  2.345861  0
O  O129  1  0.54931799  0.11105104  0.92947406  1  -1.168529  0  -0.312615  -0.54546  0  2.369605  0
