# generated using pymatgen
data_FeP2H11C10N2O7
_symmetry_space_group_name_H-M   'P 1'
_cell_length_a   6.46417885
_cell_length_b   10.46376200
_cell_length_c   10.57550405
_cell_angle_alpha   113.38395673
_cell_angle_beta   90.00025947
_cell_angle_gamma   89.99971382
_symmetry_Int_Tables_number   1
_chemical_formula_structural   FeP2H11C10N2O7
_chemical_formula_sum   'Fe2 P4 H22 C20 N4 O14'
_cell_volume   656.57067024
_cell_formula_units_Z   2
loop_
 _symmetry_equiv_pos_site_id
 _symmetry_equiv_pos_as_xyz
  1  'x, y, z'
loop_
 _atom_site_type_symbol
 _atom_site_label
 _atom_site_symmetry_multiplicity
 _atom_site_fract_x
 _atom_site_fract_y
 _atom_site_fract_z
 _atom_site_occupancy
 _atom_site_pbe_cm5_charge
 _atom_site_pbe_ddec_charge
 _atom_site_pbe_ddec_spin_density
 _atom_site_pbe_ddec_sum_bond_order
 _atom_site_pbe_magmom
Fe  Fe0  1  0.74999867  0.83990311  0.31150675  1  0.917826  1.32406  4.516986  2.673987  4.036
Fe  Fe1  1  0.24999962  0.16008359  0.68850044  1  0.917951  1.324284  -4.51697  2.673764  -4.036
P  P2  1  0.74999987  0.07060753  0.63408687  1  0.314829  1.279884  -0.006517  5.348447  -0.006
P  P3  1  0.24999842  0.92936027  0.36593929  1  0.315252  1.279654  0.006506  5.347  0.006
P  P4  1  0.74999861  0.62735951  0.48337933  1  0.455177  1.566151  0.008099  5.370696  0.01
P  P5  1  0.25000277  0.37264283  0.51662841  1  0.455179  1.565987  -0.008099  5.370826  -0.01
H  H6  1  0.75000107  0.95209481  0.66630967  1  0.091988  -0.113978  -0.001181  0.98445  -0.002
H  H7  1  0.25000031  0.04791712  0.33366310  1  0.091865  -0.113825  0.001182  0.983786  0.002
H  H8  1  0.06053321  0.62077273  0.57443906  1  0.308253  0.40283  -2.1e-05  0.938553  0.0
H  H9  1  0.56053373  0.37923426  0.42556243  1  0.308242  0.402778  2.1e-05  0.938606  0.0
H  H10  1  0.93947435  0.37923073  0.42555588  1  0.308277  0.402872  2.1e-05  0.938466  0.0
H  H11  1  0.43946765  0.62077334  0.57443794  1  0.308257  0.402832  -2.1e-05  0.938541  0.0
H  H12  1  0.74999952  0.66623161  0.77111738  1  0.107229  0.115104  0.000407  1.067108  0.001
H  H13  1  0.25000186  0.33375924  0.22889335  1  0.107304  0.11544  -0.000407  1.066765  -0.001
H  H14  1  0.75000046  0.27373477  0.17779846  1  0.109979  0.121135  0.000435  1.002865  0.001
H  H15  1  0.24999783  0.72625614  0.82220095  1  0.109956  0.121102  -0.000435  1.002837  -0.001
H  H16  1  0.74999692  0.14238126  0.33185133  1  0.125571  0.111838  0.000733  0.998864  0.002
H  H17  1  0.24999982  0.85761900  0.66815464  1  0.125557  0.111756  -0.000733  0.999066  -0.002
H  H18  1  0.75000096  0.51037623  0.15239724  1  0.117995  0.093363  0.000596  1.013543  0.002
H  H19  1  0.24999578  0.48962298  0.84761208  1  0.117992  0.093308  -0.000596  1.013841  -0.002
H  H20  1  0.75000198  0.87639352  0.83000105  1  0.109728  0.12208  0.000483  1.02693  0.001
H  H21  1  0.25000095  0.12361506  0.17001106  1  0.109702  0.122044  -0.000484  1.026826  -0.001
H  H22  1  0.75000066  0.13458109  0.91975269  1  0.109716  0.10539  5e-05  1.026047  0.0
H  H23  1  0.24999762  0.86541288  0.08025928  1  0.109707  0.105479  -5e-05  1.025963  0.0
H  H24  1  0.74999982  0.32978476  0.90612350  1  0.10885  0.120063  0.000442  1.026754  0.001
H  H25  1  0.25000001  0.67023847  0.09388214  1  0.108759  0.119941  -0.000442  1.026719  -0.001
H  H26  1  0.75000189  0.40988877  0.71505640  1  0.117899  0.125135  1e-05  0.96759  0.0
H  H27  1  0.25000103  0.59011982  0.28495476  1  0.11792  0.125163  -1e-05  0.967367  0.0
C  C28  1  0.74999997  0.62801979  0.85279874  1  -0.079489  -0.161203  0.001581  3.917518  0.002
C  C29  1  0.24999986  0.37197222  0.14719071  1  -0.079642  -0.161766  -0.001579  3.917484  -0.002
C  C30  1  0.74999920  0.16035475  0.13317552  1  -0.078595  -0.116059  0.002446  3.925454  0.004
C  C31  1  0.24999908  0.83964563  0.86681063  1  -0.078453  -0.115763  -0.002447  3.925247  -0.004
C  C32  1  0.74999981  0.08928445  0.22012733  1  0.060533  0.125432  0.000486  3.890445  0.0
C  C33  1  0.24999847  0.91072528  0.77986538  1  0.06045  0.125453  -0.000486  3.890637  0.0
C  C34  1  0.74999856  0.72144013  0.99109715  1  0.1225  0.167595  0.001287  3.990325  0.002
C  C35  1  0.24999973  0.27855195  0.00888003  1  0.122458  0.167746  -0.001287  3.990927  -0.002
C  C36  1  0.75000051  0.53907591  0.06397631  1  0.052739  0.097962  0.00107  3.949782  0.001
C  C37  1  0.24999777  0.46090986  0.93600971  1  0.052675  0.097882  -0.001071  3.950097  -0.001
C  C38  1  0.74999904  0.93840633  0.94043225  1  -0.077473  -0.155162  0.002083  3.932142  0.003
C  C39  1  0.25000079  0.06160549  0.05956128  1  -0.077209  -0.154722  -0.002084  3.932021  -0.003
C  C40  1  0.74999750  0.87384636  0.03375099  1  0.124033  0.170148  0.001178  3.99876  0.002
C  C41  1  0.24999923  0.12616756  0.96624054  1  0.123857  0.169773  -0.001177  3.999502  -0.002
C  C42  1  0.74999959  0.08307016  0.99120295  1  -0.068358  -0.028185  -0.000842  3.964114  -0.001
C  C43  1  0.24999715  0.91693535  0.00879754  1  -0.068522  -0.028672  0.000843  3.964251  0.001
C  C44  1  0.75000101  0.44039648  0.92885467  1  -0.076972  -0.110529  0.002146  3.937294  0.003
C  C45  1  0.24999882  0.55960703  0.07113084  1  -0.076907  -0.110184  -0.002144  3.936464  -0.003
C  C46  1  0.75000043  0.48557913  0.82145541  1  -0.054508  0.003378  -0.000368  3.900763  -0.001
C  C47  1  0.24999940  0.51441911  0.17854029  1  -0.054623  0.003192  0.000366  3.899996  0.001
N  N48  1  0.75000007  0.67614809  0.09431444  1  -0.307413  -0.279682  0.041817  3.484822  0.067
N  N49  1  0.24999821  0.32383671  0.90565890  1  -0.307174  -0.279542  -0.0418  3.48538  -0.067
N  N50  1  0.74999616  0.95005677  0.17094095  1  -0.311315  -0.294843  0.04727  3.520209  0.076
N  N51  1  0.25000058  0.04995502  0.82905731  1  -0.311281  -0.294846  -0.047291  3.520361  -0.076
O  O52  1  0.75000106  0.68410644  0.37141638  1  -0.368737  -0.790171  0.065344  2.347672  0.102
O  O53  1  0.24999877  0.31588864  0.62858374  1  -0.368653  -0.790048  -0.065308  2.347501  -0.102
O  O54  1  0.75000105  0.01523061  0.47589148  1  -0.358781  -0.712257  0.067559  2.339859  0.106
O  O55  1  0.25000032  0.98481941  0.52417491  1  -0.358969  -0.712206  -0.067614  2.339537  -0.106
O  O56  1  0.94225775  0.15739318  0.70069521  1  -0.370452  -0.739581  -0.064656  2.362454  -0.105
O  O57  1  0.44230137  0.84258165  0.29930118  1  -0.370414  -0.739491  0.064663  2.362653  0.105
O  O58  1  0.05769567  0.84258418  0.29930259  1  -0.370397  -0.739458  0.064661  2.362695  0.105
O  O59  1  0.55774023  0.15739049  0.70069645  1  -0.370477  -0.739587  -0.064656  2.362465  -0.105
O  O60  1  0.75000059  0.46758565  0.42542033  1  -0.366085  -0.793133  0.004015  2.194615  0.008
O  O61  1  0.25000234  0.53241779  0.57457744  1  -0.366089  -0.793117  -0.004012  2.194652  -0.008
O  O62  1  0.94105471  0.68799902  0.58183475  1  -0.387275  -0.710044  0.002127  2.239317  0.005
O  O63  1  0.44106172  0.31200082  0.41816874  1  -0.387323  -0.710023  -0.002126  2.239368  -0.005
O  O64  1  0.05894977  0.31199922  0.41816095  1  -0.387315  -0.710098  -0.002126  2.239304  -0.005
O  O65  1  0.55894430  0.68800052  0.58183292  1  -0.387301  -0.710061  0.002127  2.239344  0.005
