# generated using pymatgen
data_CuH44C34(NO)4
_symmetry_space_group_name_H-M   'P 1'
_cell_length_a   11.36714932
_cell_length_b   13.64651080
_cell_length_c   14.12978514
_cell_angle_alpha   77.75592283
_cell_angle_beta   70.10317531
_cell_angle_gamma   68.68310730
_symmetry_Int_Tables_number   1
_chemical_formula_structural   CuH44C34(NO)4
_chemical_formula_sum   'Cu2 H88 C68 N8 O8'
_cell_volume   1910.20410966
_cell_formula_units_Z   2
loop_
 _symmetry_equiv_pos_site_id
 _symmetry_equiv_pos_as_xyz
  1  'x, y, z'
loop_
 _atom_site_type_symbol
 _atom_site_label
 _atom_site_symmetry_multiplicity
 _atom_site_fract_x
 _atom_site_fract_y
 _atom_site_fract_z
 _atom_site_occupancy
 _atom_site_pbe_bader_charge
 _atom_site_pbe_bader_spin_density
 _atom_site_pbe_cm5_charge
 _atom_site_pbe_ddec_charge
 _atom_site_pbe_ddec_spin_density
 _atom_site_pbe_ddec_sum_bond_order
 _atom_site_pbe_magmom
Cu  Cu0  1  0.90526035  0.97159304  0.94525850  1  1.046484  -0.53356  0.747609  0.692406  -0.731196  2.461472  -0.532
Cu  Cu1  1  0.09473751  0.02841050  0.05474709  1  1.046397  0.533582  0.747655  0.692433  0.73122  2.461745  0.532
H  H2  1  0.64097648  0.98687921  0.21072309  1  0.112831  -0.007939  0.126524  0.102715  -0.004385  0.953191  -0.004
H  H3  1  0.35903142  0.01311796  0.78928592  1  0.112899  0.007938  0.126548  0.102761  0.004385  0.953199  0.004
H  H4  1  0.80027029  0.81265793  0.03893257  1  0.628956  0.000383  0.305929  0.308039  0.000166  1.030245  0.0
H  H5  1  0.19972655  0.18734337  0.96106312  1  0.629085  -0.000383  0.305976  0.308113  -0.000166  1.030174  0.0
H  H6  1  0.55248206  0.15351851  0.26881221  1  0.048587  -0.000522  0.096677  0.09109  -0.000285  1.022368  0.0
H  H7  1  0.44752242  0.84648021  0.73119886  1  0.04833  0.000522  0.096727  0.091094  0.000285  1.022495  0.0
H  H8  1  0.52629947  0.22660353  0.40606733  1  0.031371  3.3e-05  0.08192  0.11223  3.4e-05  1.017154  0.0
H  H9  1  0.47371116  0.77339847  0.59393432  1  0.031277  -3.3e-05  0.08193  0.11227  -3.3e-05  1.017203  0.0
H  H10  1  0.47318706  0.35267928  0.45034200  1  0.013096  -0.000138  0.083232  0.116382  -6.6e-05  1.014437  0.0
H  H11  1  0.52682325  0.64732350  0.54965958  1  0.01313  0.000138  0.083229  0.116371  6.6e-05  1.014503  0.0
H  H12  1  0.64256669  0.29331277  0.38510585  1  0.040005  -1.4e-05  0.082396  0.116554  -1.9e-05  1.037409  0.0
H  H13  1  0.35744108  0.70669165  0.61489187  1  0.040122  1.4e-05  0.082406  0.116569  1.9e-05  1.037378  0.0
H  H14  1  0.35161046  0.41048283  0.21970251  1  -0.002345  -7e-06  0.079555  0.10608  -8e-06  1.047655  0.0
H  H15  1  0.64838772  0.58951048  0.78030075  1  -0.002082  7e-06  0.079556  0.106128  9e-06  1.04757  0.0
H  H16  1  0.30003170  0.42157443  0.35197312  1  0.016508  -8e-05  0.080235  0.107732  -3.6e-05  1.034315  0.0
H  H17  1  0.69997493  0.57841885  0.64803134  1  0.016776  8e-05  0.080243  0.107737  3.6e-05  1.034294  0.0
H  H18  1  0.35468244  0.29580178  0.30690908  1  0.03694  1e-05  0.084676  0.116766  1.8e-05  1.008255  0.0
H  H19  1  0.64532826  0.70419070  0.69309653  1  0.037089  -1e-05  0.08463  0.116747  -1.8e-05  1.008314  0.0
H  H20  1  0.50910450  0.51556443  0.20183379  1  0.008251  -4e-05  0.081983  0.111448  -2.4e-05  1.048184  0.0
H  H21  1  0.49089518  0.48443682  0.79816537  1  0.008243  4e-05  0.081969  0.111424  2.4e-05  1.048217  0.0
H  H22  1  0.63010706  0.46373284  0.26822902  1  0.010037  -1e-06  0.0872  0.122049  2e-06  1.008939  0.0
H  H23  1  0.36989107  0.53626997  0.73177239  1  0.010054  1e-06  0.087201  0.122034  -2e-06  1.008913  0.0
H  H24  1  0.46061453  0.51487925  0.33501829  1  0.008741  3e-06  0.085244  0.117679  6e-06  1.010936  0.0
H  H25  1  0.53938769  0.48512037  0.66498474  1  0.008798  -3e-06  0.085251  0.117693  -6e-06  1.010917  0.0
H  H26  1  0.68912014  0.41457813  0.10682651  1  0.055072  -0.000654  0.090822  0.083412  -0.000304  1.075408  0.0
H  H27  1  0.31086953  0.58543415  0.89317538  1  0.055138  0.000653  0.090812  0.083419  0.000304  1.075458  0.0
H  H28  1  0.85181231  0.39889925  0.95611635  1  -0.003552  1.2e-05  0.084633  0.041543  4.9e-05  1.035133  0.0
H  H29  1  0.14818079  0.60110911  0.04388324  1  -0.00345  -1.2e-05  0.084641  0.041542  -4.9e-05  1.03512  0.0
H  H30  1  0.97882955  0.27383049  0.95399018  1  0.071694  -0.000425  0.108531  0.096397  -0.000274  1.015007  0.0
H  H31  1  0.02117010  0.72617788  0.04600831  1  0.071674  0.000425  0.108538  0.096394  0.000274  1.014929  0.0
H  H32  1  0.97713506  0.32532142  0.69750155  1  0.03952  -0.000116  0.099624  0.112188  -8.6e-05  1.012148  0.0
H  H33  1  0.02286655  0.67467976  0.30250347  1  0.039641  0.000116  0.09963  0.112218  8.6e-05  1.012093  0.0
H  H34  1  0.07001304  0.30162432  0.78388095  1  0.061318  1.2e-05  0.10198  0.119514  9e-06  0.998764  0.0
H  H35  1  0.92998635  0.69837770  0.21612027  1  0.061317  -1.2e-05  0.101971  0.119549  -9e-06  0.998719  0.0
H  H36  1  0.94730535  0.42767131  0.77213536  1  -0.010011  -5.1e-05  0.080345  0.073807  -3e-05  1.038564  0.0
H  H37  1  0.05269092  0.57233147  0.22786798  1  -0.009964  5.1e-05  0.080365  0.073884  3e-05  1.038478  0.0
H  H38  1  0.75686907  0.36276680  0.75430530  1  0.020056  2.1e-05  0.104116  0.083258  1.2e-05  1.00569  0.0
H  H39  1  0.24312972  0.63722967  0.24569717  1  0.020009  -2.1e-05  0.104118  0.083233  -1.2e-05  1.005632  0.0
H  H40  1  0.69540407  0.42612282  0.86638836  1  0.003943  9e-06  0.09128  0.058609  1e-05  1.013479  0.0
H  H41  1  0.30459310  0.57387295  0.13360832  1  0.004038  -9e-06  0.091283  0.058606  -1e-05  1.013334  0.0
H  H42  1  0.78043592  0.15034877  0.79493088  1  0.106555  3.7e-05  0.098015  0.095638  5.2e-05  1.045004  0.0
H  H43  1  0.21957378  0.84963908  0.20506672  1  0.106647  -3.7e-05  0.098008  0.095703  -5.2e-05  1.044929  0.0
H  H44  1  0.63342361  0.03978228  0.87352603  1  0.058456  0.000204  0.096739  0.09089  0.000157  1.010419  0.0
H  H45  1  0.36658074  0.96020957  0.12646802  1  0.058532  -0.000205  0.096791  0.090984  -0.000157  1.010325  0.0
H  H46  1  0.41689512  0.11127126  0.99949273  1  0.077716  3e-06  0.099416  0.102377  -1.2e-05  1.015662  0.0
H  H47  1  0.58310984  0.88871431  0.00049813  1  0.077899  -3e-06  0.099329  0.102338  1.2e-05  1.015702  0.0
H  H48  1  0.90935150  0.01805631  0.34371174  1  0.086726  0.007533  0.124302  0.100693  0.004171  0.960296  0.003
H  H49  1  0.09065011  0.98194251  0.65629232  1  0.086409  -0.007531  0.124295  0.100732  -0.00417  0.96035  -0.003
H  H50  1  0.03850967  0.84709562  0.17182070  1  0.626006  2.3e-05  0.301764  0.298081  1.7e-05  1.032052  0.001
H  H51  1  0.96149534  0.15290638  0.82818109  1  0.625993  -2.3e-05  0.301749  0.298043  -1.7e-05  1.031963  -0.001
H  H52  1  0.87947051  0.15955026  0.42199821  1  0.034642  0.000531  0.09679  0.094152  0.00033  1.033502  0.0
H  H53  1  0.12052821  0.84045809  0.57800124  1  0.034461  -0.000531  0.096792  0.094194  -0.00033  1.033416  0.0
H  H54  1  0.97706092  0.40675991  0.53569149  1  0.016947  6e-06  0.083233  0.11275  7e-06  1.029067  0.0
H  H55  1  0.02294722  0.59324366  0.46431126  1  0.017042  -6e-06  0.083202  0.112696  -7e-06  1.029155  0.0
H  H56  1  0.07777970  0.28835508  0.47709278  1  0.021564  -7.1e-05  0.086079  0.120573  -5.2e-05  0.998294  0.0
H  H57  1  0.92222185  0.71164382  0.52290491  1  0.021576  7e-05  0.086086  0.120599  5.2e-05  0.998198  0.0
H  H58  1  0.05402745  0.41268691  0.40320226  1  0.001364  2.6e-05  0.083398  0.113373  2e-05  1.029771  0.0
H  H59  1  0.94597817  0.58731118  0.59679729  1  0.001333  -2.6e-05  0.083388  0.113373  -2e-05  1.029764  0.0
H  H60  1  0.75265114  0.50574406  0.51017596  1  0.00044  -5e-06  0.081759  0.109568  -2e-06  1.039935  0.0
H  H61  1  0.24734756  0.49426668  0.48982162  1  0.000523  5e-06  0.081717  0.109521  2e-06  1.040089  0.0
H  H62  1  0.82366028  0.51736709  0.37733781  1  0.028429  1.8e-05  0.085138  0.119488  1.2e-05  1.013189  0.0
H  H63  1  0.17634873  0.48263185  0.62265639  1  0.028572  -1.8e-05  0.08516  0.119522  -1.2e-05  1.013252  0.0
H  H64  1  0.69367051  0.46123123  0.43083419  1  0.031082  2e-06  0.086062  0.119564  1e-06  1.015214  0.0
H  H65  1  0.30633442  0.53877324  0.56916006  1  0.031047  -2e-06  0.086043  0.119546  -1e-06  1.015231  0.0
H  H66  1  0.78584783  0.33315431  0.61165556  1  0.01421  7e-06  0.083251  0.111962  5e-06  1.038506  0.0
H  H67  1  0.21414595  0.66684768  0.38834792  1  0.014397  -7e-06  0.083217  0.111912  -5e-06  1.038486  0.0
H  H68  1  0.73220796  0.27993015  0.53599191  1  0.019568  -0.0  0.086963  0.120038  0.0  1.007618  0.0
H  H69  1  0.26779453  0.72007580  0.46400981  1  0.019481  0.0  0.086971  0.12007  -0.0  1.007516  0.0
H  H70  1  0.88855841  0.21298593  0.55904094  1  0.013298  -0.000124  0.085689  0.118328  -8.9e-05  1.004213  0.0
H  H71  1  0.11143475  0.78701762  0.44096382  1  0.013284  0.000124  0.085684  0.118317  8.9e-05  1.004195  0.0
H  H72  1  0.98558311  0.43363672  0.25884733  1  0.029445  0.000864  0.091367  0.081433  0.000442  1.061526  0.0
H  H73  1  0.01441904  0.56636534  0.74115028  1  0.029433  -0.000864  0.091404  0.08154  -0.000443  1.061515  0.0
H  H74  1  0.00493232  0.39041997  0.02772033  1  0.047251  0.000114  0.104095  0.079189  0.000107  1.024941  0.0
H  H75  1  0.99506110  0.60958288  0.97227813  1  0.047212  -0.000115  0.104089  0.079076  -0.000107  1.025055  0.0
H  H76  1  0.06513077  0.45280283  0.09051516  1  -0.006247  0.000189  0.08547  0.043578  7.3e-05  1.030482  0.0
H  H77  1  0.93488046  0.54718585  0.90947902  1  -0.006514  -0.00019  0.085468  0.043536  -7.4e-05  1.030499  0.0
H  H78  1  0.32614441  0.34977873  0.85993412  1  0.061698  7.5e-05  0.102444  0.122662  5.4e-05  0.994977  0.0
H  H79  1  0.67384991  0.65021473  0.14005743  1  0.061721  -7.5e-05  0.102394  0.122623  -5.4e-05  0.99494  0.0
H  H80  1  0.22149687  0.46961571  0.91554457  1  0.014438  0.000155  0.082113  0.079606  8.5e-05  1.037469  0.0
H  H81  1  0.77849869  0.53038169  0.08444799  1  0.014361  -0.000155  0.082134  0.079633  -8.5e-05  1.037601  0.0
H  H82  1  0.15368126  0.39289324  0.87421138  1  0.023849  1e-05  0.096687  0.105016  0.0  1.013364  0.0
H  H83  1  0.84631127  0.60710011  0.12578847  1  0.024036  -1e-05  0.096726  0.10508  -0.0  1.013401  0.0
H  H84  1  0.28223000  0.26148833  0.13006543  1  0.0582  1e-05  0.104624  0.089792  -8e-06  0.977352  0.0
H  H85  1  0.71776870  0.73850826  0.86992783  1  0.058217  -1e-05  0.104641  0.089811  8e-06  0.9773  0.0
H  H86  1  0.29785675  0.38836681  0.07815515  1  0.018088  0.000184  0.084673  0.047325  9.2e-05  1.016669  0.0
H  H87  1  0.70214634  0.61163053  0.92184100  1  0.017999  -0.000184  0.084687  0.047337  -9.2e-05  1.016696  0.0
H  H88  1  0.50058787  0.40027437  0.97458936  1  0.010658  3e-05  0.09251  0.088886  2.1e-05  1.029603  0.0
H  H89  1  0.49941181  0.59971273  0.02540549  1  0.010321  -3e-05  0.09255  0.088991  -2.1e-05  1.029398  0.0
C  C90  1  0.80032976  0.16062365  0.04886413  1  0.662123  0.000765  0.084052  0.253138  -0.001001  4.083421  0.003
C  C91  1  0.19966799  0.83938003  0.95113084  1  0.661788  -0.000766  0.084045  0.253093  0.001001  4.083273  -0.003
C  C92  1  0.70981696  0.12047408  0.13126320  1  0.011505  -0.011022  -0.031823  -0.057409  -0.007258  4.071226  -0.008
C  C93  1  0.29019299  0.87952721  0.86873241  1  0.011693  0.011017  -0.031798  -0.057376  0.007255  4.07113  0.008
C  C94  1  0.70764118  0.01382174  0.14212642  1  0.562123  0.0054  0.057845  0.046607  0.002813  3.93914  0.002
C  C95  1  0.29235507  0.98618107  0.85787480  1  0.562106  -0.0054  0.057865  0.046635  -0.002813  3.939336  -0.002
C  C96  1  0.61854530  0.18725402  0.20557441  1  -0.116708  0.004278  -0.091191  -0.160349  0.002834  3.981601  0.003
C  C97  1  0.38146629  0.81273852  0.79442599  1  -0.117024  -0.004276  -0.091249  -0.16035  -0.002833  3.981855  -0.003
C  C98  1  0.61078714  0.29233708  0.20127278  1  0.062332  -0.008231  -0.023432  0.040996  -0.005555  3.913306  -0.005
C  C99  1  0.38921509  0.70766488  0.79873261  1  0.062511  0.008222  -0.023443  0.041015  0.005549  3.913288  0.005
C  C100  1  0.51412554  0.35974744  0.28689452  1  0.058055  -2.6e-05  -0.012496  0.243817  -3.2e-05  3.798074  0.0
C  C101  1  0.48586952  0.64025844  0.71311351  1  0.05852  2.6e-05  -0.012442  0.243727  3.2e-05  3.798149  0.0
C  C102  1  0.54061134  0.30457226  0.38817606  1  -0.085815  -0.000362  -0.245325  -0.416293  -0.000251  3.90482  0.0
C  C103  1  0.45939523  0.69543053  0.61182585  1  -0.086124  0.000362  -0.245411  -0.416394  0.000251  3.904943  0.0
C  C104  1  0.37186308  0.37255860  0.29171410  1  -0.064084  -0.000381  -0.244284  -0.409525  -0.000281  3.897708  0.0
C  C105  1  0.62813604  0.62743707  0.70828985  1  -0.064939  0.000381  -0.244252  -0.409546  0.000281  3.897804  0.0
C  C106  1  0.52978465  0.46959257  0.27144442  1  -0.03392  -7.2e-05  -0.245229  -0.415448  -4.8e-05  3.898235  0.0
C  C107  1  0.47021535  0.53041024  0.72855647  1  -0.033908  7.2e-05  -0.245225  -0.415355  4.8e-05  3.898127  0.0
C  C108  1  0.69458377  0.33185442  0.11546839  1  -0.107812  0.002491  -0.094484  -0.163335  0.001649  3.974612  0.002
C  C109  1  0.30541091  0.66815469  0.88453344  1  -0.10766  -0.002491  -0.094453  -0.163238  -0.001649  3.97473  -0.002
C  C110  1  0.78606485  0.26943012  0.03981580  1  -0.004761  -0.014412  -0.028413  -0.006835  -0.010167  3.950632  -0.011
C  C111  1  0.21393451  0.73057664  0.96018520  1  -0.004711  0.014401  -0.028403  -0.006881  0.01016  3.95082  0.011
C  C112  1  0.87688164  0.31320628  0.95059923  1  0.28491  5.5e-05  -0.070867  -0.090233  -0.000113  3.917072  0.0
C  C113  1  0.12311806  0.68679731  0.04940230  1  0.284802  -5.4e-05  -0.070867  -0.090114  0.000113  3.916968  0.0
C  C114  1  0.97220589  0.34107270  0.77198596  1  0.264031  -0.000246  -0.146548  -0.269545  -0.000188  3.951538  0.0
C  C115  1  0.02779384  0.65892849  0.22801815  1  0.26385  0.000246  -0.146585  -0.269704  0.000188  3.951478  0.0
C  C116  1  0.74331398  0.34779397  0.83634779  1  0.328374  -1.2e-05  -0.063066  -0.101065  6e-06  3.920949  0.0
C  C117  1  0.25669103  0.65220095  0.16365184  1  0.328477  1.2e-05  -0.063027  -0.100838  -6e-06  3.920724  0.0
C  C118  1  0.65266497  0.28139539  0.88219484  1  -0.020699  0.000267  -0.014736  0.099539  0.000168  3.979311  0.0
C  C119  1  0.34733939  0.71859644  0.11780062  1  -0.020702  -0.000267  -0.014804  0.099376  -0.000168  3.979301  0.0
C  C120  1  0.68737303  0.18075097  0.85212729  1  -0.121069  -5e-06  -0.101145  -0.151013  0.000114  3.997721  0.0
C  C121  1  0.31263443  0.81924010  0.14786534  1  -0.121752  5e-06  -0.101195  -0.15124  -0.000114  3.997925  0.0
C  C122  1  0.60399244  0.11909359  0.89579463  1  -0.088483  0.000509  -0.097868  -0.089509  0.000488  4.070404  0.0
C  C123  1  0.39601252  0.88089906  0.10419839  1  -0.088334  -0.000509  -0.097964  -0.089525  -0.000488  4.070582  0.0
C  C124  1  0.48283773  0.15886100  0.96676822  1  -0.016072  0.000232  -0.09404  -0.129485  0.000158  3.967033  0.0
C  C125  1  0.51716038  0.84113005  0.03322629  1  -0.01635  -0.000232  -0.093964  -0.129514  -0.000158  3.967253  0.0
C  C126  1  0.02680541  0.20713780  0.16864352  1  0.665833  0.000773  0.090305  0.269965  0.002164  4.068905  -0.001
C  C127  1  0.97316309  0.79288069  0.83136796  1  0.665578  -0.000774  0.09026  0.269913  -0.002163  4.069297  0.001
C  C128  1  0.96951348  0.15412482  0.26188527  1  0.026858  0.004469  -0.038589  -0.069315  0.002885  4.079783  0.004
C  C129  1  0.03046376  0.84588347  0.73812084  1  0.027168  -0.00447  -0.038469  -0.069258  -0.002886  4.079714  -0.004
C  C130  1  0.95874782  0.05094515  0.26936111  1  0.565657  -0.003531  0.051339  0.036744  -0.001641  3.955916  0.0
C  C131  1  0.04124337  0.94906090  0.73063380  1  0.56559  0.003529  0.051301  0.036691  0.001638  3.955577  0.0
C  C132  1  0.92162098  0.20326809  0.35238649  1  -0.091052  -0.001672  -0.09682  -0.173217  -0.001114  4.009448  -0.001
C  C133  1  0.07838152  0.79673787  0.64761451  1  -0.090886  0.001673  -0.096792  -0.172383  0.001114  4.009927  0.001
C  C134  1  0.92762456  0.30249779  0.35462822  1  -0.000155  -8.5e-05  -0.028466  0.030926  -8e-05  3.939933  0.0
C  C135  1  0.07238203  0.69749789  0.64537366  1  2.2e-05  8.7e-05  -0.028529  0.02823  8.1e-05  3.94358  0.0
C  C136  1  0.88319568  0.35553562  0.45159679  1  0.077722  -1e-05  -0.01383  0.242825  -4e-06  3.805897  0.0
C  C137  1  0.11681216  0.64445693  0.54840324  1  0.077525  1e-05  -0.013867  0.243683  4e-06  3.805953  0.0
C  C138  1  0.00518079  0.36644270  0.46792595  1  -0.040771  1.1e-05  -0.243537  -0.415215  -0.0  3.897456  0.0
C  C139  1  0.99482393  0.63355769  0.53207836  1  -0.040574  -1.1e-05  -0.243472  -0.41514  0.0  3.897342  0.0
C  C140  1  0.78252222  0.46635448  0.44154605  1  -0.072858  4.3e-05  -0.242038  -0.412762  3.3e-05  3.895145  0.0
C  C141  1  0.21748530  0.53364358  0.55845511  1  -0.073169  -4.3e-05  -0.241989  -0.412666  -3.3e-05  3.895182  0.0
C  C142  1  0.81905204  0.29108435  0.54436874  1  -0.053705  -3.9e-05  -0.241867  -0.412074  -5.1e-05  3.914257  0.0
C  C143  1  0.18094740  0.70891523  0.45563789  1  -0.053708  3.9e-05  -0.241856  -0.412078  5.1e-05  3.914055  0.0
C  C144  1  0.98123681  0.35446435  0.26112890  1  -0.127676  -0.000363  -0.092722  -0.157879  -0.000284  3.986884  0.0
C  C145  1  0.01876602  0.64553136  0.73887189  1  -0.127743  0.000363  -0.092823  -0.157391  0.000284  3.987613  0.0
C  C146  1  0.02884626  0.31055850  0.17015707  1  0.03623  0.009414  -0.031155  -0.025853  0.006946  3.971123  0.008
C  C147  1  0.97113596  0.68944664  0.82984757  1  0.036132  -0.009419  -0.031047  -0.025631  -0.006949  3.970592  -0.008
C  C148  1  0.07339101  0.37463417  0.07252668  1  0.324008  -0.000167  -0.067055  -0.083972  1.3e-05  3.95389  0.0
C  C149  1  0.92660646  0.62536318  0.92746961  1  0.324304  0.000167  -0.067076  -0.083736  -1.3e-05  3.9539  0.0
C  C150  1  0.22837538  0.38781903  0.90955718  1  0.249135  0.000103  -0.148038  -0.263952  0.00011  3.945622  0.0
C  C151  1  0.77162367  0.61217437  0.09043944  1  0.249037  -0.000103  -0.148021  -0.263916  -0.00011  3.945725  0.0
C  C152  1  0.30557639  0.31105213  0.05834012  1  0.271378  1.5e-05  -0.06607  -0.102836  1e-05  3.942706  0.0
C  C153  1  0.69442200  0.68894525  0.94165379  1  0.271493  -1.5e-05  -0.066164  -0.102911  -1e-05  3.942898  0.0
C  C154  1  0.44300460  0.26183316  0.99313435  1  0.018126  0.000273  -0.013336  0.10147  0.000164  3.98261  0.0
C  C155  1  0.55699693  0.73815633  0.00685882  1  0.017915  -0.000272  -0.013165  0.101528  -0.000164  3.982849  0.0
C  C156  1  0.52978968  0.32099836  0.95193206  1  -0.062359  1.2e-05  -0.093451  -0.190565  -5e-06  3.970316  0.0
C  C157  1  0.47021464  0.67899116  0.04805892  1  -0.061548  -1.2e-05  -0.093456  -0.190466  5e-06  3.969991  0.0
N  N158  1  0.77692926  0.94721582  0.07502309  1  -0.625553  -0.079441  -0.280736  -0.065877  -0.057297  3.569709  -0.071
N  N159  1  0.22306641  0.05278380  0.92498033  1  -0.625405  0.079439  -0.280805  -0.066018  0.057294  3.569671  0.071
N  N160  1  0.87552593  0.29847622  0.85068642  1  -0.984462  -0.000137  -0.330933  -0.074376  -9.5e-05  3.44672  0.0
N  N161  1  0.12447597  0.70152420  0.14931583  1  -0.984672  0.000137  -0.330942  -0.074545  9.5e-05  3.446767  0.0
N  N162  1  0.00398841  0.99142397  0.19592700  1  -0.647884  0.070696  -0.285631  -0.07861  0.05135  3.588034  0.063
N  N163  1  0.99601001  0.00858515  0.80407451  1  -0.64762  -0.070689  -0.28571  -0.078807  -0.051347  3.587911  -0.063
N  N164  1  0.20593247  0.32530545  0.00770214  1  -1.000004  0.002588  -0.337434  -0.089191  0.001853  3.468372  0.002
N  N165  1  0.79406532  0.67469111  0.99229422  1  -0.99985  -0.00259  -0.337423  -0.089333  -0.001854  3.468511  -0.002
O  O166  1  0.89854126  0.10171104  0.98203921  1  -1.130098  -0.115666  -0.344634  -0.539169  -0.07844  2.576465  -0.104
O  O167  1  0.10146685  0.89829728  0.01796261  1  -1.129902  0.11564  -0.344633  -0.53915  0.07842  2.576387  0.104
O  O168  1  0.75901211  0.84870427  0.10298159  1  -0.735495  -0.0224  -0.272423  -0.345929  -0.015053  2.266643  -0.018
O  O169  1  0.24097598  0.15130489  0.89701710  1  -0.735756  0.022396  -0.272444  -0.345945  0.01505  2.266479  0.018
O  O170  1  0.07544973  0.16632086  0.08196067  1  -1.123325  0.109252  -0.336896  -0.511204  0.074119  2.545449  0.1
O  O171  1  0.92452095  0.83368270  0.91804534  1  -1.123227  -0.109222  -0.336876  -0.511088  -0.074101  2.545724  -0.1
O  O172  1  0.97771031  0.89597452  0.22583583  1  -0.745436  0.018018  -0.280084  -0.348885  0.012036  2.268194  0.014
O  O173  1  0.02229184  0.10402756  0.77416037  1  -0.745484  -0.018017  -0.279982  -0.34871  -0.012035  2.268338  -0.014
