# generated using pymatgen
data_AlH8C13NClO5
_symmetry_space_group_name_H-M   'P 1'
_cell_length_a   6.61751390
_cell_length_b   11.18533537
_cell_length_c   15.22623419
_cell_angle_alpha   84.46140579
_cell_angle_beta   78.50398438
_cell_angle_gamma   71.83392402
_symmetry_Int_Tables_number   1
_chemical_formula_structural   AlH8C13NClO5
_chemical_formula_sum   'Al2 H16 C26 N2 Cl2 O10'
_cell_volume   1048.65891574
_cell_formula_units_Z   2
loop_
 _symmetry_equiv_pos_site_id
 _symmetry_equiv_pos_as_xyz
  1  'x, y, z'
loop_
 _atom_site_type_symbol
 _atom_site_label
 _atom_site_symmetry_multiplicity
 _atom_site_fract_x
 _atom_site_fract_y
 _atom_site_fract_z
 _atom_site_occupancy
 _atom_site_pbe_bader_charge
 _atom_site_pbe_bader_spin_density
 _atom_site_pbe_cm5_charge
 _atom_site_pbe_ddec_charge
 _atom_site_pbe_ddec_spin_density
 _atom_site_pbe_ddec_sum_bond_order
 _atom_site_pbe_magmom
Al  Al0  1  0.49751407  0.50507768  0.50229677  1  2.502506  0  0.390055  1.6375  0  2.576383  0
Al  Al1  1  0.00099174  0.50019426  0.50222850  1  2.502423  0  0.389459  1.632585  0  2.585734  0
H  H2  1  0.31005592  0.35159936  0.55349607  1  0.65328  0  0.336983  0.412937  0  0.89445  0
H  H3  1  0.70105204  0.65298932  0.45294391  1  0.609649  0  0.346172  0.422396  0  0.873536  0
H  H4  1  0.86661758  0.44967507  0.94984163  1  0.038174  0  0.096697  0.103441  0  1.023434  0
H  H5  1  0.19288955  0.44427603  0.05468906  1  0.041799  0  0.09864  0.105736  0  1.021849  0
H  H6  1  0.63076256  0.56897685  0.23687767  1  0.102581  0  0.104987  0.107322  0  1.017484  0
H  H7  1  0.72864764  0.57836374  0.07021219  1  0.065737  0  0.094805  0.098283  0  1.026376  0
H  H8  1  0.29312756  0.57636684  0.76442034  1  0.090637  0  0.10753  0.109166  0  1.010111  0
H  H9  1  0.18996695  0.58051408  0.93104457  1  0.034057  0  0.094301  0.097791  0  1.027399  0
H  H10  1  0.20016246  0.23612431  0.37352930  1  0.070982  0  0.104844  0.110041  0  1.042452  0
H  H11  1  0.52423206  0.11878347  0.27248257  1  0.055444  0  0.10638  0.105412  0  0.98266  0
H  H12  1  0.41718917  0.76773784  0.37623201  1  0.108378  0  0.10704  0.109902  0  1.035547  0
H  H13  1  0.63315810  0.88335893  0.27336862  1  0.085885  0  0.105798  0.10354  0  0.984135  0
H  H14  1  0.05756925  0.46308657  0.71109108  1  0.501575  0  0.30754  0.31987  0  0.971957  0
H  H15  1  0.12638011  0.42970794  0.81727056  1  0.429833  0  0.302517  0.297086  0  0.968231  0
H  H16  1  0.99751329  0.44242928  0.29307150  1  0.500924  0  0.309695  0.320364  0  0.969721  0
H  H17  1  0.95414684  0.42100450  0.18675015  1  0.433163  0  0.303566  0.29763  0  0.96667  0
C  C18  1  0.85987250  0.27675935  0.49543087  1  1.607946  0  0.27222  0.662869  0  4.090044  0
C  C19  1  0.68031588  0.50916823  0.66432668  1  1.476074  0  0.257697  0.64933  0  4.097275  0
C  C20  1  0.13359427  0.72889309  0.50644703  1  1.608862  0  0.271922  0.663  0  4.092838  0
C  C21  1  0.31486914  0.50030869  0.33929388  1  1.538286  0  0.255058  0.639107  0  4.098971  0
C  C22  1  0.63350617  0.51293110  0.76282589  1  0.052932  0  -0.036018  -0.179624  0  3.94174  0
C  C23  1  0.36029068  0.50171753  0.24074500  1  -0.016551  0  -0.039376  -0.189831  0  3.949341  0
C  C24  1  0.80112922  0.47998729  0.81503760  1  0.471009  0  0.113977  0.319961  0  4.066582  0
C  C25  1  0.73912116  0.47952111  0.90947862  1  -0.035319  0  -0.106845  -0.260026  0  3.922304  0
C  C26  1  0.22918634  0.46845436  0.18882610  1  0.48686  0  0.114977  0.321294  0  4.067331  0
C  C27  1  0.28926596  0.47307759  0.09428406  1  -0.018603  0  -0.108478  -0.263958  0  3.92504  0
C  C28  1  0.53859044  0.54007765  0.19557181  1  -0.037394  0  -0.091144  -0.077256  0  4.057696  0
C  C29  1  0.59429172  0.54395254  0.10309845  1  -0.114204  0  -0.118025  -0.194525  0  4.041404  0
C  C30  1  0.41668829  0.54732417  0.80652772  1  -0.097658  0  -0.089303  -0.073473  0  4.047795  0
C  C31  1  0.35936140  0.54797629  0.89907722  1  0.033372  0  -0.118841  -0.195333  0  4.041153  0
C  C32  1  0.52339757  0.51205178  0.95192234  1  -0.046592  0  -0.005101  0.100282  0  4.028715  0
C  C33  1  0.46802877  0.50934273  0.05089107  1  -0.011278  0  -0.001973  0.107904  0  4.024348  0
C  C34  1  0.92963821  0.13567615  0.49662912  1  0.039123  0  -0.008499  -0.127384  0  3.922605  0
C  C35  1  0.12072789  0.06987806  0.43749872  1  0.015735  0  0.000567  0.06617  0  3.958468  0
C  C36  1  0.80955035  0.07011424  0.55554244  1  0.107014  0  0.015493  0.067527  0  4.031968  0
C  C37  1  0.24694864  0.13381253  0.37566638  1  -0.002731  0  -0.088777  -0.126151  0  3.959605  0
C  C38  1  0.42902736  0.06776627  0.31880909  1  -0.004323  0  -0.08862  -0.076002  0  4.02442  0
C  C39  1  0.06044448  0.87002865  0.50175651  1  0.057773  0  -0.009968  -0.128779  0  3.924467  0
C  C40  1  0.87614821  0.93607542  0.55861845  1  0.084134  0  0.014466  0.064872  0  4.04705  0
C  C41  1  0.18564779  0.93476248  0.43936758  1  -0.021033  0  0.001355  0.071511  0  3.959574  0
C  C42  1  0.37094765  0.86992619  0.37787126  1  -0.051498  0  -0.092627  -0.138977  0  3.969681  0
C  C43  1  0.49081022  0.93491080  0.31954590  1  -0.084085  0  -0.088971  -0.076507  0  4.034316  0
N  N44  1  0.01486008  0.44335998  0.77754246  1  -1.262373  0  -0.589448  -0.606556  0  3.344935  0
N  N45  1  0.05413059  0.43008624  0.22637241  1  -1.265858  0  -0.585411  -0.603009  0  3.354786  0
Cl  Cl46  1  0.73142146  0.85759334  0.63636774  1  -0.168354  0  0.014568  -0.033462  0  1.564909  0
Cl  Cl47  1  0.58458731  0.14828952  0.63025278  1  -0.178212  0  0.020126  -0.040227  0  1.578428  0
O  O48  1  0.67247741  0.33422124  0.47890567  1  -1.257711  0  -0.231912  -0.584869  0  2.346358  0
O  O49  1  0.86358196  0.52087283  0.62403064  1  -1.271992  0  -0.242702  -0.612468  0  2.396032  0
O  O50  1  0.00541881  0.67257856  0.49108653  1  -1.260386  0  -0.228886  -0.591044  0  2.369859  0
O  O51  1  0.44619450  0.52672439  0.38005615  1  -1.270945  0  -0.246954  -0.608683  0  2.364222  0
O  O52  1  0.32221841  0.67587179  0.52331645  1  -1.257631  0  -0.227763  -0.577033  0  2.335973  0
O  O53  1  0.14249078  0.47415395  0.38001410  1  -1.275318  0  -0.242056  -0.604153  0  2.382762  0
O  O54  1  0.99441352  0.32855794  0.51083121  1  -1.253116  0  -0.227035  -0.58033  0  2.347246  0
O  O55  1  0.53895317  0.49229706  0.62470246  1  -1.267726  0  -0.243566  -0.606647  0  2.359841  0
O  O56  1  0.26436465  0.44225151  0.54200920  1  -1.45971  0  -0.449949  -0.981851  0  2.202745  0
O  O57  1  0.73720351  0.56207534  0.46184944  1  -1.41555  0  -0.451187  -0.986671  0  2.188238  0
