# generated using pymatgen
data_CdH6C5N2O5
_symmetry_space_group_name_H-M   'P 1'
_cell_length_a   7.72552885
_cell_length_b   7.54454452
_cell_length_c   14.05540322
_cell_angle_alpha   90.00003184
_cell_angle_beta   89.99999717
_cell_angle_gamma   90.00006996
_symmetry_Int_Tables_number   1
_chemical_formula_structural   CdH6C5N2O5
_chemical_formula_sum   'Cd4 H24 C20 N8 O20'
_cell_volume   819.22755805
_cell_formula_units_Z   4
loop_
 _symmetry_equiv_pos_site_id
 _symmetry_equiv_pos_as_xyz
  1  'x, y, z'
loop_
 _atom_site_type_symbol
 _atom_site_label
 _atom_site_symmetry_multiplicity
 _atom_site_fract_x
 _atom_site_fract_y
 _atom_site_fract_z
 _atom_site_occupancy
 _atom_site_hle17_bader_spin_density
 _atom_site_hle17_ddec_charge
 _atom_site_hle17_ddec_spin_density
 _atom_site_hle17_ddec_sum_bond_order
 _atom_site_hle17_magmom
 _atom_site_hse06_10hf_bader_spin_density
 _atom_site_hse06_10hf_ddec_charge
 _atom_site_hse06_10hf_ddec_spin_density
 _atom_site_hse06_10hf_ddec_sum_bond_order
 _atom_site_hse06_10hf_magmom
 _atom_site_hse06_bader_spin_density
 _atom_site_hse06_ddec_charge
 _atom_site_hse06_ddec_spin_density
 _atom_site_hse06_ddec_sum_bond_order
 _atom_site_hse06_magmom
 _atom_site_pbe_bader_spin_density
 _atom_site_pbe_cm5_charge
 _atom_site_pbe_ddec_charge
 _atom_site_pbe_ddec_spin_density
 _atom_site_pbe_ddec_sum_bond_order
 _atom_site_pbe_magmom
Cd  Cd0  1  0.99825802  0.24999864  0.32394305  1  0  1.170172  0  1.623312  0  0  0.986733  0  2.069063  0  0  1.039667  0  2.017372  0  0  0.770066  0.948925  0  2.104619  0
Cd  Cd1  1  0.49825601  0.24999958  0.17605687  1  0  1.170182  0  1.623291  0  0  0.986747  0  2.06905  0  0  1.039684  0  2.017357  0  0  0.770078  0.948939  0  2.104604  0
Cd  Cd2  1  0.50174345  0.75000095  0.82394302  1  0  1.170205  0  1.623372  0  0  0.986772  0  2.069142  0  0  1.039706  0  2.017448  0  0  0.770081  0.948961  0  2.104696  0
Cd  Cd3  1  0.00174014  0.74999924  0.67605685  1  0  1.170199  0  1.623325  0  0  0.986758  0  2.069085  0  0  1.039694  0  2.017393  0  0  0.77009  0.948952  0  2.104638  0
H  H4  1  0.95479085  0.90698059  0.25709270  1  0  0.342386  0  0.914991  0  0  0.326466  0  0.97602  0  0  0.333594  0  0.970793  0  0  0.28593  0.32134  0  0.979805  0
H  H5  1  0.45479142  0.90698160  0.24290742  1  0  0.342378  0  0.915024  0  0  0.326437  0  0.976085  0  0  0.333565  0  0.970858  0  0  0.285921  0.321311  0  0.979865  0
H  H6  1  0.95479066  0.59301995  0.25709337  1  0  0.342395  0  0.914978  0  0  0.326479  0  0.976004  0  0  0.333607  0  0.970776  0  0  0.28593  0.321352  0  0.979789  0
H  H7  1  0.54520952  0.40698089  0.75709252  1  0  0.342373  0  0.915005  0  0  0.326425  0  0.976076  0  0  0.333554  0  0.970847  0  0  0.285906  0.321298  0  0.979858  0
H  H8  1  0.04520861  0.09301862  0.74290720  1  0  0.342385  0  0.914981  0  0  0.326459  0  0.976024  0  0  0.333586  0  0.970798  0  0  0.285935  0.321333  0  0.979808  0
H  H9  1  0.54520933  0.09301893  0.75709247  1  0  0.342371  0  0.915005  0  0  0.326425  0  0.976069  0  0  0.333553  0  0.970843  0  0  0.285905  0.321299  0  0.979851  0
H  H10  1  0.04520880  0.40698190  0.74290724  1  0  0.342373  0  0.915016  0  0  0.326441  0  0.976068  0  0  0.333568  0  0.970842  0  0  0.285918  0.321314  0  0.97985  0
H  H11  1  0.45479123  0.59301964  0.24290737  1  0  0.342391  0  0.914971  0  0  0.32645  0  0.976037  0  0  0.333579  0  0.970808  0  0  0.285923  0.321324  0  0.97982  0
H  H12  1  0.92390623  0.90549214  0.37285530  1  0  0.348784  0  0.902588  0  0  0.333731  0  0.964421  0  0  0.340378  0  0.959652  0  0  0.290476  0.328954  0  0.967871  0
H  H13  1  0.42390680  0.90549038  0.12714482  1  0  0.348619  0  0.902705  0  0  0.333587  0  0.964508  0  0  0.340234  0  0.959739  0  0  0.290418  0.328809  0  0.967957  0
H  H14  1  0.92390604  0.59450848  0.37285525  1  0  0.348783  0  0.90259  0  0  0.333731  0  0.964424  0  0  0.340378  0  0.959654  0  0  0.290472  0.328953  0  0.967873  0
H  H15  1  0.57609543  0.40549115  0.87285512  1  0  0.348707  0  0.902693  0  0  0.333679  0  0.964493  0  0  0.340325  0  0.959714  0  0  0.290456  0.3289  0  0.967943  0
H  H16  1  0.07609323  0.09450839  0.62714460  1  0  0.348627  0  0.902747  0  0  0.333593  0  0.96455  0  0  0.34024  0  0.959781  0  0  0.290427  0.328814  0  0.967995  0
H  H17  1  0.57609524  0.09450883  0.87285507  1  0  0.348711  0  0.902687  0  0  0.333682  0  0.964488  0  0  0.340327  0  0.959709  0  0  0.290459  0.328903  0  0.967939  0
H  H18  1  0.07609341  0.40549204  0.62714393  1  0  0.348678  0  0.902741  0  0  0.333643  0  0.964533  0  0  0.340291  0  0.959764  0  0  0.290443  0.328864  0  0.96798  0
H  H19  1  0.42390791  0.59450938  0.12714478  1  0  0.348633  0  0.902738  0  0  0.333601  0  0.964537  0  0  0.340248  0  0.959769  0  0  0.290427  0.32882  0  0.967984  0
H  H20  1  0.12205433  0.90649897  0.32976228  1  0  0.339232  0  0.913177  0  0  0.32293  0  0.975539  0  0  0.329925  0  0.970671  0  0  0.286428  0.31787  0  0.979132  0
H  H21  1  0.62205505  0.90650052  0.17023857  1  0  0.339226  0  0.913182  0  0  0.322938  0  0.975528  0  0  0.329934  0  0.970659  0  0  0.286426  0.317877  0  0.97912  0
H  H22  1  0.12205414  0.59350062  0.32976224  1  0  0.339241  0  0.91317  0  0  0.32294  0  0.975532  0  0  0.329935  0  0.970664  0  0  0.28643  0.317879  0  0.979125  0
H  H23  1  0.37794718  0.40649968  0.82976280  1  0  0.33921  0  0.913163  0  0  0.322917  0  0.975517  0  0  0.329911  0  0.970653  0  0  0.286424  0.317857  0  0.979109  0
H  H24  1  0.87794513  0.09350156  0.67023761  1  0  0.339211  0  0.913186  0  0  0.322903  0  0.975559  0  0  0.3299  0  0.970685  0  0  0.286413  0.317844  0  0.979152  0
H  H25  1  0.37794570  0.09350001  0.82976204  1  0  0.339191  0  0.913176  0  0  0.3229  0  0.975529  0  0  0.329894  0  0.970664  0  0  0.286412  0.31784  0  0.979123  0
H  H26  1  0.87794532  0.40649858  0.67023766  1  0  0.339223  0  0.913189  0  0  0.322913  0  0.975566  0  0  0.329909  0  0.970693  0  0  0.286416  0.317853  0  0.979157  0
H  H27  1  0.62205486  0.59349952  0.17023852  1  0  0.339225  0  0.913173  0  0  0.322938  0  0.975516  0  0  0.329933  0  0.970647  0  0  0.286433  0.317878  0  0.979107  0
C  C28  1  0.61559166  0.25000110  0.40484931  1  0  0.193474  0  3.8919  0  0  0.173311  0  4.158706  0  0  0.183096  0  4.177642  0  0  0.094217  0.166509  0  4.145909  0
C  C29  1  0.11558835  0.24999931  0.09514779  1  0  0.193399  0  3.891697  0  0  0.173249  0  4.158508  0  0  0.183024  0  4.177461  0  0  0.094151  0.166454  0  4.145698  0
C  C30  1  0.88441628  0.74999725  0.90485425  1  0  0.193324  0  3.891535  0  0  0.173126  0  4.158371  0  0  0.182898  0  4.177327  0  0  0.094004  0.166331  0  4.145562  0
C  C31  1  0.38440909  0.75000208  0.59514845  1  0  0.193405  0  3.891789  0  0  0.173339  0  4.158528  0  0  0.183122  0  4.177465  0  0  0.094202  0.166537  0  4.145729  0
C  C32  1  0.72245166  0.25000121  0.49037087  1  0  0.187005  0  3.914389  0  0  0.167559  0  4.189548  0  0  0.177725  0  4.206465  0  0  0.093035  0.160674  0  4.177962  0
C  C33  1  0.22245094  0.24999933  0.00962693  1  0  0.187189  0  3.914058  0  0  0.167681  0  4.189287  0  0  0.17785  0  4.206202  0  0  0.093085  0.160795  0  4.177699  0
C  C34  1  0.77754981  0.74999855  0.99037510  1  0  0.187363  0  3.913815  0  0  0.167856  0  4.189023  0  0  0.178027  0  4.205934  0  0  0.093181  0.160968  0  4.177439  0
C  C35  1  0.27754650  0.74999932  0.50962761  1  0  0.187144  0  3.914193  0  0  0.167581  0  4.189467  0  0  0.177747  0  4.206383  0  0  0.093058  0.160697  0  4.177881  0
C  C36  1  0.60511471  0.25000118  0.57252148  1  0  0.206383  0  3.845683  0  0  0.179627  0  4.132073  0  0  0.192004  0  4.144366  0  0  0.105015  0.171374  0  4.123419  0
C  C37  1  0.10511399  0.24999973  0.92747610  1  0  0.206136  0  3.845675  0  0  0.179431  0  4.132077  0  0  0.191807  0  4.144367  0  0  0.104926  0.171178  0  4.123426  0
C  C38  1  0.89488547  0.74999815  0.07252594  1  0  0.206006  0  3.845591  0  0  0.179361  0  4.131944  0  0  0.19174  0  4.144229  0  0  0.10485  0.171107  0  4.123295  0
C  C39  1  0.39488086  0.74999803  0.42747628  1  0  0.206355  0  3.845665  0  0  0.179628  0  4.132065  0  0  0.192007  0  4.144353  0  0  0.104972  0.171374  0  4.123413  0
C  C40  1  0.42337052  0.25000105  0.53725676  1  0  0.191028  0  3.888817  0  0  0.166819  0  4.186314  0  0  0.176674  0  4.201519  0  0  0.101792  0.1602  0  4.17586  0
C  C41  1  0.92336994  0.24999892  0.96274009  1  0  0.191073  0  3.888866  0  0  0.166897  0  4.186284  0  0  0.17675  0  4.201489  0  0  0.101816  0.160277  0  4.175833  0
C  C42  1  0.07662692  0.74999895  0.03725625  1  0  0.1911  0  3.88898  0  0  0.166886  0  4.186421  0  0  0.176741  0  4.201626  0  0  0.101817  0.160268  0  4.175967  0
C  C43  1  0.57662505  0.74999815  0.46274100  1  0  0.190878  0  3.888987  0  0  0.166702  0  4.186432  0  0  0.176555  0  4.201637  0  0  0.101728  0.160085  0  4.175977  0
C  C44  1  0.43209613  0.25000100  0.43136581  1  0  0.205492  0  3.881963  0  0  0.184473  0  4.163764  0  0  0.195845  0  4.179194  0  0  0.100923  0.176736  0  4.153262  0
C  C45  1  0.93209168  0.24999980  0.06863127  1  0  0.205546  0  3.881675  0  0  0.184542  0  4.163441  0  0  0.195917  0  4.178873  0  0  0.100978  0.176805  0  4.152941  0
C  C46  1  0.06791166  0.74999808  0.93136791  1  0  0.20553  0  3.881798  0  0  0.184567  0  4.163539  0  0  0.195942  0  4.178972  0  0  0.100957  0.176829  0  4.153038  0
C  C47  1  0.56790461  0.74999953  0.56863195  1  0  0.205588  0  3.881771  0  0  0.184545  0  4.163549  0  0  0.19592  0  4.178977  0  0  0.100946  0.176808  0  4.153047  0
N  N48  1  0.00024522  0.95779689  0.32017523  1  0  -0.896324  0  2.910675  0  0  -0.842877  0  3.136623  0  0  -0.867816  0  3.121918  0  0  -0.786876  -0.825365  0  3.146798  0
N  N49  1  0.50024594  0.95779712  0.17982564  1  0  -0.896151  0  2.910777  0  0  -0.84272  0  3.136744  0  0  -0.867659  0  3.12204  0  0  -0.786815  -0.825214  0  3.146931  0
N  N50  1  0.00024497  0.54220255  0.32017517  1  0  -0.89633  0  2.910644  0  0  -0.842892  0  3.136597  0  0  -0.867831  0  3.121891  0  0  -0.786868  -0.825376  0  3.146764  0
N  N51  1  0.49975506  0.45779775  0.82017503  1  0  -0.896233  0  2.910797  0  0  -0.842809  0  3.136776  0  0  -0.867741  0  3.122068  0  0  -0.786844  -0.825295  0  3.146949  0
N  N52  1  0.99975294  0.04220232  0.67982466  1  0  -0.896152  0  2.910779  0  0  -0.842718  0  3.136748  0  0  -0.867656  0  3.122045  0  0  -0.786827  -0.825211  0  3.146935  0
N  N53  1  0.49975480  0.04220208  0.82017497  1  0  -0.896211  0  2.91079  0  0  -0.842784  0  3.136769  0  0  -0.867717  0  3.122061  0  0  -0.786829  -0.825276  0  3.146955  0
N  N54  1  0.99975319  0.45779798  0.67982401  1  0  -0.8962  0  2.91081  0  0  -0.842756  0  3.136776  0  0  -0.867695  0  3.122071  0  0  -0.786832  -0.825251  0  3.14697  0
N  N55  1  0.50024699  0.54220278  0.17982486  1  0  -0.896175  0  2.910772  0  0  -0.84274  0  3.136732  0  0  -0.867682  0  3.122031  0  0  -0.78683  -0.825223  0  3.146895  0
O  O56  1  0.67567816  0.25000109  0.32107299  1  0  -0.520977  0  2.137849  0  0  -0.4438  0  2.381718  0  0  -0.470594  0  2.3792  0  0  -0.287754  -0.424988  0  2.38297  0
O  O57  1  0.17567486  0.25000071  0.17892553  1  0  -0.520941  0  2.137828  0  0  -0.443747  0  2.381682  0  0  -0.470538  0  2.379167  0  0  -0.287705  -0.424935  0  2.382927  0
O  O58  1  0.82432978  0.74999849  0.82107721  1  0  -0.520927  0  2.137911  0  0  -0.443701  0  2.381729  0  0  -0.470497  0  2.379224  0  0  -0.287599  -0.424888  0  2.382973  0
O  O59  1  0.32432388  0.74999679  0.67892549  1  0  -0.520959  0  2.137844  0  0  -0.443815  0  2.381679  0  0  -0.470614  0  2.379168  0  0  -0.287741  -0.425001  0  2.382926  0
O  O60  1  0.88545151  0.25000131  0.49180305  1  0  -0.477276  0  2.000582  0  0  -0.421398  0  2.223945  0  0  -0.442336  0  2.221382  0  0  -0.285425  -0.40672  0  2.225344  0
O  O61  1  0.38545079  0.25000075  0.00819759  1  0  -0.477359  0  2.000426  0  0  -0.42146  0  2.223807  0  0  -0.442401  0  2.221246  0  0  -0.285462  -0.406782  0  2.225204  0
O  O62  1  0.61455126  0.74999845  0.99180373  1  0  -0.477411  0  2.000304  0  0  -0.421549  0  2.223713  0  0  -0.442488  0  2.221151  0  0  -0.285517  -0.406872  0  2.225113  0
O  O63  1  0.11454795  0.74999789  0.50819684  1  0  -0.477334  0  2.00057  0  0  -0.421441  0  2.223978  0  0  -0.442378  0  2.221417  0  0  -0.285442  -0.406763  0  2.225374  0
O  O64  1  0.65211732  0.25000125  0.65838313  1  0  -0.486083  0  2.048189  0  0  -0.429227  0  2.252095  0  0  -0.446358  0  2.248815  0  0  -0.272073  -0.417149  0  2.254091  0
O  O65  1  0.15211271  0.25000104  0.84161445  1  0  -0.48585  0  2.048061  0  0  -0.429116  0  2.252043  0  0  -0.446244  0  2.248764  0  0  -0.272021  -0.417035  0  2.254039  0
O  O66  1  0.84788804  0.74999949  0.15838758  1  0  -0.48589  0  2.04806  0  0  -0.429198  0  2.25206  0  0  -0.446326  0  2.24878  0  0  -0.271989  -0.417118  0  2.254055  0
O  O67  1  0.34788343  0.74999795  0.34161464  1  0  -0.486014  0  2.048189  0  0  -0.429203  0  2.252114  0  0  -0.446333  0  2.248831  0  0  -0.272041  -0.417127  0  2.254109  0
O  O68  1  0.29143651  0.25000099  0.58820799  1  0  -0.444267  0  1.988518  0  0  -0.406352  0  2.203746  0  0  -0.419484  0  2.201378  0  0  -0.283958  -0.397113  0  2.205211  0
O  O69  1  0.79143593  0.24999882  0.91178816  1  0  -0.44428  0  1.988661  0  0  -0.406369  0  2.203861  0  0  -0.419501  0  2.201489  0  0  -0.283964  -0.39713  0  2.205328  0
O  O70  1  0.20855705  0.74999906  0.08821102  1  0  -0.444279  0  1.988635  0  0  -0.40634  0  2.203861  0  0  -0.419471  0  2.201488  0  0  -0.283957  -0.397106  0  2.205331  0
O  O71  1  0.70855777  0.74999954  0.41178978  1  0  -0.444246  0  1.988674  0  0  -0.406307  0  2.203881  0  0  -0.419436  0  2.201509  0  0  -0.283924  -0.397074  0  2.20535  0
O  O72  1  0.31083324  0.25000090  0.37212881  1  0  -0.493124  0  2.047108  0  0  -0.438215  0  2.290053  0  0  -0.458376  0  2.285056  0  0  -0.287742  -0.424012  0  2.293195  0
O  O73  1  0.81083137  0.25000108  0.12787041  1  0  -0.49322  0  2.046973  0  0  -0.438326  0  2.289939  0  0  -0.458483  0  2.28494  0  0  -0.287791  -0.424121  0  2.293084  0
O  O74  1  0.18917455  0.74999813  0.87213162  1  0  -0.493145  0  2.04712  0  0  -0.438282  0  2.290111  0  0  -0.458439  0  2.285113  0  0  -0.287727  -0.424075  0  2.293253  0
O  O75  1  0.68916492  0.74999831  0.62787109  1  0  -0.493173  0  2.047082  0  0  -0.438254  0  2.290046  0  0  -0.458416  0  2.285049  0  0  -0.28774  -0.424049  0  2.293186  0
