# generated using pymatgen
data_ZnH26C30(NO)10
_symmetry_space_group_name_H-M   'P 1'
_cell_length_a   7.58035445
_cell_length_b   9.07963330
_cell_length_c   11.30582969
_cell_angle_alpha   97.35475830
_cell_angle_beta   105.79648194
_cell_angle_gamma   95.24793976
_symmetry_Int_Tables_number   1
_chemical_formula_structural   ZnH26C30(NO)10
_chemical_formula_sum   'Zn1 H26 C30 N10 O10'
_cell_volume   736.06371230
_cell_formula_units_Z   1
loop_
 _symmetry_equiv_pos_site_id
 _symmetry_equiv_pos_as_xyz
  1  'x, y, z'
loop_
 _atom_site_type_symbol
 _atom_site_label
 _atom_site_symmetry_multiplicity
 _atom_site_fract_x
 _atom_site_fract_y
 _atom_site_fract_z
 _atom_site_occupancy
 _atom_site_pbe_bader_spin_density
 _atom_site_pbe_cm5_charge
 _atom_site_pbe_ddec_charge
 _atom_site_pbe_ddec_spin_density
 _atom_site_pbe_ddec_sum_bond_order
 _atom_site_pbe_magmom
Zn  Zn0  1  0.49999051  0.49999936  0.00000163  1  0  0.675967  0.888799  0  2.24528  0
H  H1  1  0.92758885  0.17326172  0.71203636  1  0  0.337621  0.321177  0  0.892605  0
H  H2  1  0.07249597  0.82670637  0.28797053  1  0  0.33751  0.321105  0  0.892548  0
H  H3  1  0.70584352  0.71916628  0.63142815  1  0  0.298902  0.291273  0  1.013216  0
H  H4  1  0.29412587  0.28083265  0.36855662  1  0  0.298952  0.291475  0  1.013039  0
H  H5  1  0.65736729  0.48373673  0.42261134  1  0  0.105399  0.122663  0  1.032614  0
H  H6  1  0.34259971  0.51625997  0.57739142  1  0  0.105408  0.122732  0  1.032674  0
H  H7  1  0.87378915  0.62972808  0.90259246  1  0  0.147053  0.125993  0  1.020286  0
H  H8  1  0.12616305  0.37024937  0.09739556  1  0  0.146991  0.125994  0  1.020147  0
H  H9  1  0.46379139  0.85966349  0.00090481  1  0  0.13551  0.101514  0  1.039986  0
H  H10  1  0.53620327  0.14034687  0.99910329  1  0  0.135553  0.101661  0  1.039805  0
H  H11  1  0.04304202  0.84069908  0.83753743  1  0  0.133354  0.148952  0  1.013771  0
H  H12  1  0.95693780  0.15926089  0.16246101  1  0  0.133396  0.148955  0  1.013652  0
H  H13  1  0.01106640  0.02745201  0.89372854  1  0  0.127211  0.119696  0  0.99985  0
H  H14  1  0.98893019  0.97251492  0.10626739  1  0  0.12722  0.119649  0  0.999772  0
H  H15  1  0.54049077  0.71131826  0.36084336  1  0  0.11261  0.137227  0  1.01342  0
H  H16  1  0.45950024  0.28870983  0.63913861  1  0  0.112548  0.137097  0  1.013608  0
H  H17  1  0.51213555  0.87341234  0.19986011  1  0  0.096488  0.097164  0  1.068397  0
H  H18  1  0.48789250  0.12662259  0.80013301  1  0  0.096527  0.097217  0  1.068249  0
H  H19  1  0.67165790  0.13581688  0.24910164  1  0  0.097404  0.098757  0  1.029013  0
H  H20  1  0.32843656  0.86420090  0.75089881  1  0  0.097466  0.098789  0  1.029004  0
H  H21  1  0.85771252  0.24448948  0.46560249  1  0  0.101362  0.116044  0  1.066225  0
H  H22  1  0.14239719  0.75549757  0.53440247  1  0  0.101353  0.116195  0  1.065935  0
H  H23  1  0.77305529  0.35909836  0.01347474  1  0  0.279009  0.360877  0  0.993  0
H  H24  1  0.22694226  0.64091328  0.98653842  1  0  0.279028  0.360796  0  0.993101  0
H  H25  1  0.72216124  0.37458462  0.86233831  1  0  0.284303  0.386802  0  0.950219  0
H  H26  1  0.27782758  0.62541826  0.13767172  1  0  0.284304  0.386765  0  0.95023  0
C  C27  1  0.18488785  0.53457007  0.76783894  1  0  0.204898  0.582969  0  4.207117  0
C  C28  1  0.81509306  0.46543415  0.23216876  1  0  0.205082  0.583218  0  4.207029  0
C  C29  1  0.08872256  0.50767287  0.62890822  1  0  -0.013736  -0.044697  0  3.933149  0
C  C30  1  0.91124931  0.49233386  0.37109701  1  0  -0.013842  -0.044869  0  3.933806  0
C  C31  1  0.89512750  0.49939903  0.58400181  1  0  -0.020221  -0.075427  0  3.990777  0
C  C32  1  0.10484301  0.50060775  0.41600316  1  0  -0.020201  -0.075566  0  3.991085  0
C  C33  1  0.80810560  0.49443722  0.45670068  1  0  -0.0855  -0.13078  0  3.945791  0
C  C34  1  0.19186494  0.50556945  0.54330252  1  0  -0.085531  -0.130852  0  3.945707  0
C  C35  1  0.77775696  0.48345345  0.67062440  1  0  0.208585  0.57875  0  4.22346  0
C  C36  1  0.22221016  0.51655693  0.32938191  1  0  0.208714  0.57925  0  4.222879  0
C  C37  1  0.78637722  0.71305230  0.92028435  1  0  0.173142  0.115729  0  3.872416  0
C  C38  1  0.21358755  0.28693261  0.07970658  1  0  0.173327  0.11573  0  3.872612  0
C  C39  1  0.58156638  0.83493355  0.96835518  1  0  0.150949  0.148536  0  3.955694  0
C  C40  1  0.41841824  0.16506794  0.03164686  1  0  0.150921  0.14831  0  3.955748  0
C  C41  1  0.94073764  0.91966885  0.83870394  1  0  -0.031599  -0.200423  0  3.906706  0
C  C42  1  0.05925018  0.08030160  0.16128787  1  0  -0.031696  -0.20035  0  3.906521  0
C  C43  1  0.85172376  0.94094111  0.70855778  1  0  0.258646  0.36176  0  3.905343  0
C  C44  1  0.14828560  0.05903962  0.29143443  1  0  0.258846  0.362043  0  3.90513  0
C  C45  1  0.70716053  0.89084631  0.50652793  1  0  0.098756  0.137381  0  4.015386  0
C  C46  1  0.29283874  0.10916405  0.49346424  1  0  0.098779  0.137317  0  4.015166  0
C  C47  1  0.60590960  0.82701784  0.38522953  1  0  -0.085821  -0.144163  0  3.93866  0
C  C48  1  0.39409561  0.17300660  0.61475850  1  0  -0.085768  -0.144014  0  3.93861  0
C  C49  1  0.59363282  0.91912198  0.29469272  1  0  -0.097635  -0.08438  0  3.999341  0
C  C50  1  0.40640037  0.08090484  0.70529999  1  0  -0.097691  -0.084657  0  3.998942  0
C  C51  1  0.68293242  0.06783566  0.32290553  1  0  -0.099937  -0.08619  0  4.011126  0
C  C52  1  0.31712195  0.93218164  0.67709420  1  0  -0.099953  -0.085707  0  4.010557  0
C  C53  1  0.78594542  0.13110691  0.44340652  1  0  -0.099999  -0.168064  0  3.988557  0
C  C54  1  0.21411166  0.86889821  0.55659827  1  0  -0.099939  -0.168627  0  3.988455  0
C  C55  1  0.79259037  0.04101385  0.53475496  1  0  0.097664  0.143706  0  4.037549  0
C  C56  1  0.20744261  0.95898754  0.46524404  1  0  0.097478  0.143868  0  4.037556  0
N  N57  1  0.64251979  0.69779800  0.96594606  1  0  -0.330905  -0.298047  0  3.473123  0
N  N58  1  0.35745271  0.30219837  0.03405507  1  0  -0.330961  -0.297964  0  3.47344  0
N  N59  1  0.67985020  0.93432441  0.92715903  1  0  -0.225787  -0.272594  0  3.134907  0
N  N60  1  0.32013695  0.06566870  0.07283587  1  0  -0.22567  -0.272383  0  3.135007  0
N  N61  1  0.81030220  0.85465904  0.89707127  1  0  -0.142125  0.13866  0  3.773733  0
N  N62  1  0.18967170  0.14532305  0.10291683  1  0  -0.142386  0.138412  0  3.77386  0
N  N63  1  0.87895438  0.06796658  0.66199251  1  0  -0.352127  -0.289111  0  3.56281  0
N  N64  1  0.12108638  0.93201990  0.33800703  1  0  -0.352081  -0.28914  0  3.562779  0
N  N65  1  0.74906482  0.83318460  0.61748430  1  0  -0.340856  -0.287798  0  3.530932  0
N  N66  1  0.25092208  0.16681250  0.38250195  1  0  -0.340927  -0.288109  0  3.530803  0
O  O67  1  0.31770126  0.46232537  0.80839097  1  0  -0.311741  -0.54089  0  2.272499  0
O  O68  1  0.68227786  0.53767651  0.19161358  1  0  -0.311796  -0.540957  0  2.272431  0
O  O69  1  0.12617155  0.63377389  0.83351465  1  0  -0.329923  -0.588853  0  2.219872  0
O  O70  1  0.87382095  0.36623342  0.16649726  1  0  -0.330017  -0.589025  0  2.219773  0
O  O71  1  0.80601470  0.38148454  0.73832294  1  0  -0.32031  -0.571805  0  2.16339  0
O  O72  1  0.19395423  0.61852813  0.26168564  1  0  -0.320329  -0.572015  0  2.16335  0
O  O73  1  0.65477297  0.57126240  0.66828112  1  0  -0.318734  -0.539337  0  2.203806  0
O  O74  1  0.34519898  0.42875108  0.33172456  1  0  -0.318805  -0.539549  0  2.20341  0
O  O75  1  0.67302197  0.35847007  0.93423415  1  0  -0.579825  -0.757384  0  2.1656  0
O  O76  1  0.32697276  0.64153497  0.06577893  1  0  -0.579863  -0.75728  0  2.165726  0
