# generated using pymatgen
data_GdPH15C7NO7
_symmetry_space_group_name_H-M   'P 1'
_cell_length_a   5.35647318
_cell_length_b   12.69994138
_cell_length_c   19.94037302
_cell_angle_alpha   90.00059948
_cell_angle_beta   89.25927736
_cell_angle_gamma   89.99699063
_symmetry_Int_Tables_number   1
_chemical_formula_structural   GdPH15C7NO7
_chemical_formula_sum   'Gd4 P4 H60 C28 N4 O28'
_cell_volume   1356.36830983
_cell_formula_units_Z   4
loop_
 _symmetry_equiv_pos_site_id
 _symmetry_equiv_pos_as_xyz
  1  'x, y, z'
loop_
 _atom_site_type_symbol
 _atom_site_label
 _atom_site_symmetry_multiplicity
 _atom_site_fract_x
 _atom_site_fract_y
 _atom_site_fract_z
 _atom_site_occupancy
 _atom_site_pbe_bader_charge
 _atom_site_pbe_bader_spin_density
 _atom_site_pbe_cm5_charge
 _atom_site_pbe_ddec_charge
 _atom_site_pbe_ddec_spin_density
 _atom_site_pbe_ddec_sum_bond_order
 _atom_site_pbe_magmom
Gd  Gd0  1  0.87460413  0.64170882  0.52492034  1  2.176077  0  1.501105  2.105364  0  2.169375  0
Gd  Gd1  1  0.12532745  0.14171699  0.97508443  1  2.176073  0  1.501063  2.105031  0  2.169761  0
Gd  Gd2  1  0.12540328  0.35829135  0.47507503  1  2.17606  0  1.501119  2.105374  0  2.169413  0
Gd  Gd3  1  0.87463071  0.85828712  0.02492131  1  2.175941  0  1.501129  2.105202  0  2.169572  0
P  P4  1  0.61731845  0.52350378  0.40843911  1  3.320248  0  0.325908  1.34155  0  5.377597  0
P  P5  1  0.38267362  0.02350703  0.09156253  1  3.320428  0  0.325905  1.341416  0  5.377603  0
P  P6  1  0.38268924  0.47650269  0.59156280  1  3.320652  0  0.325903  1.341578  0  5.37778  0
P  P7  1  0.61730804  0.97648999  0.90844656  1  3.320723  0  0.325726  1.341477  0  5.378352  0
H  H8  1  0.92120293  0.57731043  0.32270514  1  0.022258  0  0.101349  0.087718  0  1.028654  0
H  H9  1  0.78292305  0.45553640  0.30692609  1  0.109063  0  0.122624  0.139828  0  1.007325  0
H  H10  1  0.74672008  0.72954321  0.26180833  1  0.018484  0  0.088172  0.055778  0  1.002045  0
H  H11  1  0.54007308  0.72289076  0.33245507  1  0.069943  0  0.100916  0.08429  0  1.005858  0
H  H12  1  0.37191264  0.83175924  0.23891825  1  -0.001002  0  0.093664  0.089282  0  1.024876  0
H  H13  1  0.17241830  0.72432948  0.25781986  1  0.014071  0  0.085233  0.073115  0  1.027791  0
H  H14  1  0.56426241  0.73652065  0.14539718  1  0.096436  0  0.114927  0.101918  0  0.992724  0
H  H15  1  0.21039656  0.55476472  0.18028932  1  0.047367  0  0.090122  0.084345  0  0.999715  0
H  H16  1  0.42491762  0.55986670  0.11117709  1  0.020613  0  0.092636  0.091801  0  0.995379  0
H  H17  1  0.59932188  0.46064625  0.20788114  1  0.008141  0  0.101966  0.077884  0  0.997593  0
H  H18  1  0.78098954  0.57393999  0.18722635  1  0.022414  0  0.089915  0.057032  0  0.990237  0
H  H19  1  0.28213517  0.67857116  0.42913655  1  0.648323  0  0.299309  0.414735  0  0.919295  0
H  H20  1  0.04475227  0.67739533  0.38219261  1  0.593949  0  0.311077  0.387245  0  0.931202  0
H  H21  1  0.69064194  0.84728221  0.47918213  1  0.60978  0  0.336006  0.420517  0  0.859475  0
H  H22  1  0.48639580  0.79991051  0.53103569  1  0.664227  0  0.295821  0.398728  0  0.942833  0
H  H23  1  0.07881228  0.07731190  0.17730336  1  0.021876  0  0.101341  0.087681  0  1.02855  0
H  H24  1  0.21714872  0.95554770  0.19307823  1  0.109252  0  0.122653  0.139813  0  1.007358  0
H  H25  1  0.25329593  0.22954746  0.23820012  1  0.018294  0  0.088197  0.055837  0  1.002218  0
H  H26  1  0.45992440  0.22290379  0.16754853  1  0.07003  0  0.100944  0.084327  0  1.00595  0
H  H27  1  0.62809646  0.33176308  0.26108704  1  -0.001089  0  0.093649  0.089321  0  1.024969  0
H  H28  1  0.82758380  0.22433988  0.24217929  1  0.014208  0  0.085255  0.073142  0  1.02792  0
H  H29  1  0.43576957  0.23653387  0.35461105  1  0.095413  0  0.114901  0.101993  0  0.992448  0
H  H30  1  0.78965361  0.05476922  0.31971041  1  0.047046  0  0.090197  0.084561  0  0.999956  0
H  H31  1  0.57516169  0.05987123  0.38882309  1  0.020825  0  0.092673  0.091947  0  0.995297  0
H  H32  1  0.40075030  0.96065285  0.29211872  1  0.008408  0  0.102008  0.077893  0  0.99755  0
H  H33  1  0.21907252  0.07394688  0.31277574  1  0.022635  0  0.089931  0.056962  0  0.990418  0
H  H34  1  0.71784531  0.17858283  0.07086840  1  0.648111  0  0.299307  0.41474  0  0.919285  0
H  H35  1  0.95522626  0.17740825  0.11781331  1  0.594394  0  0.311058  0.387225  0  0.931215  0
H  H36  1  0.30930923  0.34727175  0.02082250  1  0.612272  0  0.335994  0.420489  0  0.859517  0
H  H37  1  0.51356369  0.29990495  0.96896192  1  0.664352  0  0.29576  0.398576  0  0.942963  0
H  H38  1  0.07878993  0.42269052  0.67728853  1  0.021823  0  0.101311  0.087594  0  1.028549  0
H  H39  1  0.21706722  0.54446692  0.69307055  1  0.109015  0  0.122597  0.139757  0  1.007415  0
H  H40  1  0.25325889  0.27045775  0.73818866  1  0.018449  0  0.088119  0.055742  0  1.001999  0
H  H41  1  0.45990614  0.27710862  0.66754092  1  0.0698  0  0.100922  0.084242  0  1.005957  0
H  H42  1  0.62806050  0.16824014  0.76107966  1  -0.000937  0  0.09367  0.089328  0  1.024713  0
H  H43  1  0.82756091  0.27567069  0.74217613  1  0.014222  0  0.085279  0.073164  0  1.027714  0
H  H44  1  0.43571175  0.26347008  0.85460426  1  0.096266  0  0.114945  0.10196  0  0.992661  0
H  H45  1  0.78956630  0.44523624  0.81971247  1  0.047422  0  0.090066  0.084336  0  0.999861  0
H  H46  1  0.57504350  0.44012875  0.88882417  1  0.020422  0  0.092675  0.091901  0  0.99542  0
H  H47  1  0.40065426  0.53934998  0.79211983  1  0.008234  0  0.101975  0.077869  0  0.997528  0
H  H48  1  0.21898558  0.42605782  0.81277109  1  0.022292  0  0.089916  0.056991  0  0.990333  0
H  H49  1  0.71789002  0.32143138  0.57086259  1  0.648479  0  0.299394  0.414868  0  0.919114  0
H  H50  1  0.95527640  0.32259067  0.61780758  1  0.594131  0  0.31107  0.38729  0  0.931165  0
H  H51  1  0.30939082  0.15272426  0.52081661  1  0.609869  0  0.33603  0.420584  0  0.859375  0
H  H52  1  0.51362662  0.20009596  0.46895939  1  0.664022  0  0.295726  0.398529  0  0.943093  0
H  H53  1  0.92119060  0.92268984  0.82270300  1  0.021865  0  0.101319  0.087726  0  1.028562  0
H  H54  1  0.78287598  0.04445798  0.80692291  1  0.108998  0  0.122584  0.139785  0  1.007327  0
H  H55  1  0.74673634  0.77044720  0.76180063  1  0.018151  0  0.088115  0.055743  0  1.002162  0
H  H56  1  0.54007644  0.77709796  0.83245077  1  0.070066  0  0.100956  0.084345  0  1.005915  0
H  H57  1  0.37194111  0.66823551  0.73890724  1  -0.001072  0  0.093613  0.089263  0  1.024928  0
H  H58  1  0.17242113  0.77565556  0.75781856  1  0.01411  0  0.085271  0.073189  0  1.02774  0
H  H59  1  0.56425165  0.76347496  0.64538904  1  0.09643  0  0.114909  0.101997  0  0.992528  0
H  H60  1  0.21035931  0.94523331  0.68029308  1  0.0471  0  0.090185  0.084608  0  0.999897  0
H  H61  1  0.42487023  0.94013131  0.61117916  1  0.020652  0  0.09266  0.091957  0  0.995433  0
H  H62  1  0.59928149  0.03934259  0.70788403  1  0.00844  0  0.10199  0.07789  0  0.99769  0
H  H63  1  0.78095988  0.92604857  0.68722450  1  0.022598  0  0.089934  0.057025  0  0.990425  0
H  H64  1  0.28216797  0.82141026  0.92913358  1  0.648245  0  0.299245  0.414701  0  0.919341  0
H  H65  1  0.04477416  0.82258562  0.88219553  1  0.594257  0  0.311151  0.387363  0  0.931084  0
H  H66  1  0.69069671  0.65271818  0.97919446  1  0.60985  0  0.336093  0.420501  0  0.859525  0
H  H67  1  0.48643433  0.70009995  0.03104137  1  0.664411  0  0.295803  0.398542  0  0.943014  0
C  C68  1  0.73705349  0.53625784  0.32264429  1  -0.202523  0  -0.064062  -0.359799  0  3.946356  0
C  C69  1  0.56298267  0.69861442  0.27992341  1  0.289236  0  -0.074596  -0.064468  0  3.93096  0
C  C70  1  0.35718469  0.74570859  0.23722392  1  0.022399  0  -0.163005  -0.172169  0  3.937016  0
C  C71  1  0.38287653  0.70802414  0.16485321  1  0.011934  0  -0.087189  -0.117687  0  3.870427  0
C  C72  1  0.39063020  0.58705576  0.16277266  1  -0.051444  0  -0.15867  -0.173795  0  3.920619  0
C  C73  1  0.59748404  0.54707895  0.20786647  1  0.313265  0  -0.067101  -0.045742  0  3.930981  0
C  C74  1  0.18758740  0.75113626  0.11801250  1  1.480969  0  0.209282  0.598156  0  4.137858  0
C  C75  1  0.26298168  0.03626805  0.17736560  1  -0.202196  0  -0.064203  -0.359708  0  3.946315  0
C  C76  1  0.43702359  0.19862715  0.22008008  1  0.287444  0  -0.074653  -0.064619  0  3.931468  0
C  C77  1  0.64282715  0.24571530  0.26277758  1  0.024128  0  -0.163096  -0.172276  0  3.93725  0
C  C78  1  0.61717682  0.20803327  0.33515153  1  0.012644  0  -0.087202  -0.117873  0  3.870372  0
C  C79  1  0.60942389  0.08706509  0.33722441  1  -0.051585  0  -0.158879  -0.174394  0  3.921423  0
C  C80  1  0.40258047  0.04708720  0.29213992  1  0.313109  0  -0.066995  -0.04536  0  3.930619  0
C  C81  1  0.81243942  0.25113178  0.38199379  1  1.481281  0  0.209409  0.598656  0  4.137563  0
C  C82  1  0.26294424  0.46374784  0.67735245  1  -0.202087  0  -0.063985  -0.35956  0  3.946438  0
C  C83  1  0.43700735  0.30138418  0.72007423  1  0.289526  0  -0.074558  -0.064397  0  3.931159  0
C  C84  1  0.64278435  0.25429473  0.76277544  1  0.021975  0  -0.162967  -0.172117  0  3.937309  0
C  C85  1  0.61710305  0.29197604  0.83514128  1  0.011831  0  -0.087223  -0.117697  0  3.87067  0
C  C86  1  0.60935328  0.41294441  0.83722891  1  -0.051106  0  -0.158691  -0.17407  0  3.9208  0
C  C87  1  0.40247942  0.45291728  0.79213281  1  0.312916  0  -0.067085  -0.045491  0  3.930529  0
C  C88  1  0.81239944  0.24886942  0.88199063  1  1.481658  0  0.209296  0.598301  0  4.137881  0
C  C89  1  0.73702396  0.96373212  0.82264482  1  -0.202264  0  -0.064145  -0.359957  0  3.946275  0
C  C90  1  0.56297737  0.80137539  0.77991872  1  0.289167  0  -0.07464  -0.06459  0  3.931579  0
C  C91  1  0.35719443  0.75428566  0.73722101  1  0.022608  0  -0.163105  -0.172325  0  3.937342  0
C  C92  1  0.38284824  0.79196848  0.66484811  1  0.012148  0  -0.087069  -0.117571  0  3.870171  0
C  C93  1  0.39059048  0.91294296  0.66277307  1  -0.051342  0  -0.158859  -0.174461  0  3.921011  0
C  C94  1  0.59746611  0.95291297  0.70786354  1  0.312963  0  -0.06704  -0.045511  0  3.930742  0
C  C95  1  0.18756269  0.74886997  0.61800804  1  1.480432  0  0.209335  0.598211  0  4.137408  0
N  N96  1  0.55990942  0.58335012  0.27694714  1  -1.054911  0  -0.341661  -0.103485  0  3.498629  0
N  N97  1  0.44012730  0.08335574  0.22305418  1  -1.054906  0  -0.341524  -0.10333  0  3.498512  0
N  N98  1  0.44007177  0.41665005  0.72304837  1  -1.054769  0  -0.341636  -0.103598  0  3.498818  0
N  N99  1  0.55986634  0.91663971  0.77694402  1  -1.054801  0  -0.341537  -0.103344  0  3.498306  0
O  O100  1  0.55459354  0.63380517  0.43773848  1  -1.464727  0  -0.424228  -0.855607  0  2.242428  0
O  O101  1  0.84079275  0.48634806  0.45147258  1  -1.460986  0  -0.529302  -0.95894  0  2.426474  0
O  O102  1  0.40173961  0.44556946  0.40867858  1  -1.456049  0  -0.466734  -0.833852  0  2.233003  0
O  O103  1  0.99505225  0.79971323  0.13896604  1  -1.18174  0  -0.355329  -0.600002  0  2.179222  0
O  O104  1  0.22288580  0.73907866  0.05406841  1  -1.172646  0  -0.365755  -0.638479  0  2.259986  0
O  O105  1  0.10086492  0.70268810  0.42554606  1  -1.246995  0  -0.632709  -0.839375  0  2.012761  0
O  O106  1  0.67323512  0.81305816  0.52257200  1  -1.265993  0  -0.629751  -0.845841  0  2.01697  0
O  O107  1  0.44539044  0.13380666  0.06226058  1  -1.464652  0  -0.424238  -0.855663  0  2.242486  0
O  O108  1  0.15919605  0.98635916  0.04852585  1  -1.461209  0  -0.529307  -0.958917  0  2.426356  0
O  O109  1  0.59825452  0.94556258  0.09131201  1  -1.456044  0  -0.46671  -0.833811  0  2.23311  0
O  O110  1  0.00496816  0.29970014  0.36104062  1  -1.181943  0  -0.355438  -0.600284  0  2.179173  0
O  O111  1  0.77714466  0.23907982  0.44592927  1  -1.172635  0  -0.365684  -0.638562  0  2.25993  0
O  O112  1  0.89910427  0.20269367  0.07445394  1  -1.247324  0  -0.63265  -0.839281  0  2.012887  0
O  O113  1  0.32671446  0.31305821  0.97742862  1  -1.268684  0  -0.629673  -0.845646  0  2.017028  0
O  O114  1  0.44543724  0.36620366  0.56226074  1  -1.46489  0  -0.42431  -0.855637  0  2.242268  0
O  O115  1  0.15921056  0.51364897  0.54852425  1  -1.461229  0  -0.529227  -0.958947  0  2.426381  0
O  O116  1  0.59824086  0.55444488  0.59131994  1  -1.456235  0  -0.466738  -0.83392  0  2.233076  0
O  O117  1  0.00493025  0.20029324  0.86103954  1  -1.182067  0  -0.355394  -0.60009  0  2.179148  0
O  O118  1  0.77708170  0.26091600  0.94592188  1  -1.172629  0  -0.365729  -0.638509  0  2.260478  0
O  O119  1  0.89915143  0.29731129  0.57445095  1  -1.247361  0  -0.632796  -0.839598  0  2.012533  0
O  O120  1  0.32679079  0.18694516  0.47742414  1  -1.26597  0  -0.629686  -0.845753  0  2.017067  0
O  O121  1  0.55456954  0.86618957  0.93773765  1  -1.464922  0  -0.424149  -0.855506  0  2.242385  0
O  O122  1  0.84078454  0.01364810  0.95147216  1  -1.461021  0  -0.529259  -0.958833  0  2.426449  0
O  O123  1  0.40175727  0.05442342  0.90868845  1  -1.456042  0  -0.466516  -0.833704  0  2.233373  0
O  O124  1  0.99503629  0.70029688  0.63895924  1  -1.181842  0  -0.355308  -0.600022  0  2.179287  0
O  O125  1  0.22287339  0.76092271  0.55406073  1  -1.172362  0  -0.365799  -0.638598  0  2.259449  0
O  O126  1  0.10088564  0.79730572  0.92554421  1  -1.24716  0  -0.632692  -0.83945  0  2.012759  0
O  O127  1  0.67328175  0.68694433  0.02258218  1  -1.266251  0  -0.629819  -0.845607  0  2.017249  0
