# generated using pymatgen
data_Zn4H21C30N3O13
_symmetry_space_group_name_H-M   'P 1'
_cell_length_a   18.39409102
_cell_length_b   18.41395364
_cell_length_c   18.43094681
_cell_angle_alpha   119.69717835
_cell_angle_beta   90.63495831
_cell_angle_gamma   119.73642056
_symmetry_Int_Tables_number   1
_chemical_formula_structural   Zn4H21C30N3O13
_chemical_formula_sum   'Zn8 H42 C60 N6 O26'
_cell_volume   4427.34028392
_cell_formula_units_Z   2
loop_
 _symmetry_equiv_pos_site_id
 _symmetry_equiv_pos_as_xyz
  1  'x, y, z'
loop_
 _atom_site_type_symbol
 _atom_site_label
 _atom_site_symmetry_multiplicity
 _atom_site_fract_x
 _atom_site_fract_y
 _atom_site_fract_z
 _atom_site_occupancy
 _atom_site_pbe_bader_charge
 _atom_site_pbe_bader_spin_density
 _atom_site_pbe_cm5_charge
 _atom_site_pbe_ddec_charge
 _atom_site_pbe_ddec_spin_density
 _atom_site_pbe_ddec_sum_bond_order
 _atom_site_pbe_magmom
Zn  Zn0  1  0.95468192  0.41289161  0.86918139  1  1.303928  0  0.667802  0.955984  0  2.382627  0
Zn  Zn1  1  0.12830354  0.58338718  0.04164164  1  1.314352  0  0.668721  0.950607  0  2.408993  0
Zn  Zn2  1  0.95502344  0.41217035  0.04333204  1  1.316736  0  0.671331  0.961296  0  2.394698  0
Zn  Zn3  1  0.95507555  0.58504461  0.04563977  1  1.303488  0  0.667595  0.946712  0  2.396887  0
Zn  Zn4  1  0.54606748  0.58549002  0.63412478  1  1.294941  0  0.669255  0.961385  0  2.376727  0
Zn  Zn5  1  0.54722597  0.58437310  0.45882882  1  1.309808  0  0.667515  0.948154  0  2.39242  0
Zn  Zn6  1  0.37173849  0.41122004  0.45857401  1  1.318233  0  0.671159  0.959208  0  2.391937  0
Zn  Zn7  1  0.54396391  0.41095913  0.45981399  1  1.300902  0  0.664869  0.947324  0  2.405275  0
H  H8  1  0.61018758  0.45785189  0.78278029  1  0.04914  0  0.097321  0.095466  0  0.996198  0
H  H9  1  0.41326497  0.09163717  0.30056824  1  0.087367  0  0.105088  0.111539  0  0.997476  0
H  H10  1  0.12671287  0.09740776  0.33373306  1  0.077532  0  0.099973  0.116034  0  0.979186  0
H  H11  1  0.12987910  0.09335350  0.23525170  1  0.04513  0  0.10199  0.121757  0  0.970789  0
H  H12  1  0.03357166  0.90671235  0.24291200  1  0.043327  0  0.108666  0.06429  0  0.944807  0
H  H13  1  0.08941551  0.40378686  0.22445298  1  0.070033  0  0.107154  0.113535  0  0.993588  0
H  H14  1  0.18840128  0.40505506  0.31883263  1  0.081691  0  0.107547  0.114942  0  0.995563  0
H  H15  1  0.47853077  0.69554586  0.31651550  1  0.06081  0  0.100872  0.11854  0  0.979078  0
H  H16  1  0.45610892  0.58265934  0.21819433  1  0.058136  0  0.101994  0.121005  0  0.972291  0
H  H17  1  0.82718195  0.66824664  0.77737204  1  0.093629  0  0.102449  0.098178  0  0.98352  0
H  H18  1  0.46992365  0.62275884  0.87590878  1  0.045604  0  0.098661  0.109173  0  0.97957  0
H  H19  1  0.64591552  0.90334570  0.53503674  1  0.057074  0  0.110895  0.073512  0  0.941846  0
H  H20  1  0.46772288  0.71717013  0.87351062  1  0.056269  0  0.097975  0.107783  0  0.980239  0
H  H21  1  0.37343082  0.62253502  0.97155974  1  0.076049  0  0.09494  0.108662  0  1.007214  0
H  H22  1  0.36990637  0.71584552  0.96842474  1  0.07032  0  0.098076  0.108467  0  0.978795  0
H  H23  1  0.89127321  0.54242397  0.72330897  1  0.06851  0  0.101319  0.090003  0  0.989562  0
H  H24  1  0.67647376  0.33495909  0.73120358  1  0.083845  0  0.099418  0.085058  0  0.991048  0
H  H25  1  0.70927170  0.90658582  0.82127947  1  0.083286  0  0.106458  0.112716  0  0.995085  0
H  H26  1  0.67720081  0.07911694  0.62494995  1  0.385168  0  0.277886  0.258706  0  0.982681  0
H  H27  1  0.77808191  0.18078230  0.66177067  1  0.426512  0  0.279471  0.274334  0  0.980172  0
H  H28  1  0.65849587  0.26370635  0.21174555  1  0.444926  0  0.313762  0.308549  0  0.936029  0
H  H29  1  0.61457079  0.31795051  0.28795031  1  0.495595  0  0.300497  0.314781  0  0.986099  0
H  H30  1  0.84027801  0.08610403  0.62239051  1  0.082599  0  0.112108  0.075422  0  0.937907  0
H  H31  1  0.76786705  0.69036726  0.94265683  1  0.392304  0  0.293613  0.287083  0  0.956436  0
H  H32  1  0.79621469  0.63271649  0.97181857  1  0.424546  0  0.286982  0.283829  0  0.979515  0
H  H33  1  0.04243187  0.91717721  0.08881243  1  0.383219  0  0.278511  0.2628  0  0.978193  0
H  H34  1  0.97547061  0.81462014  0.08600936  1  0.413651  0  0.275648  0.26974  0  0.998431  0
H  H35  1  0.37748788  0.69948669  0.22941923  1  0.069774  0  0.109408  0.065632  0  0.940374  0
H  H36  1  0.35070013  0.51361383  0.07638252  1  0.391105  0  0.27894  0.261753  0  0.976554  0
H  H37  1  0.31228893  0.57540984  0.07253944  1  0.417443  0  0.278271  0.271272  0  0.989147  0
H  H38  1  0.08586949  0.37824196  0.68017551  1  0.067773  0  0.106754  0.114052  0  0.994587  0
H  H39  1  0.18225040  0.37961261  0.58653730  1  0.079242  0  0.106614  0.113945  0  0.995032  0
H  H40  1  0.71807481  0.37004335  0.59844476  1  0.080644  0  0.101226  0.091269  0  0.989478  0
H  H41  1  0.75532738  0.34651875  0.15509111  1  0.078244  0  0.103717  0.119164  0  1.005319  0
H  H42  1  0.80310859  0.09717442  0.91423158  1  0.060768  0  0.106665  0.113146  0  0.995973  0
H  H43  1  0.70795086  0.80827790  0.47914043  1  0.378362  0  0.279097  0.270479  0  0.991867  0
H  H44  1  0.80957056  0.91104336  0.53947755  1  0.368531  0  0.277737  0.257212  0  0.983942  0
H  H45  1  0.71644782  0.68949997  0.32173890  1  0.045618  0  0.097014  0.109782  0  0.98252  0
H  H46  1  0.80603889  0.73770019  0.40918935  1  0.063484  0  0.094342  0.10423  0  0.984704  0
H  H47  1  0.81323339  0.69571939  0.22646365  1  0.044748  0  0.093742  0.102312  0  0.98507  0
H  H48  1  0.90293432  0.74530800  0.31472750  1  0.04157  0  0.092553  0.098864  0  0.988717  0
H  H49  1  0.31750070  0.90121746  0.20092733  1  0.081619  0  0.105811  0.112519  0  0.995617  0
C  C50  1  0.13699276  0.77357098  0.13178063  1  1.588426  0  0.227296  0.609516  0  4.170562  0
C  C51  1  0.72742745  0.94718611  0.78994287  1  -0.027889  0  -0.083007  -0.096913  0  3.972269  0
C  C52  1  0.69660115  0.88914350  0.69627083  1  -0.04772  0  -0.014836  -0.061015  0  3.974634  0
C  C53  1  0.86120716  0.22278146  0.86026931  1  1.516315  0  0.227024  0.6094  0  4.167083  0
C  C54  1  0.72102704  0.94416001  0.65889109  1  -0.061927  0  -0.012709  -0.023444  0  3.902152  0
C  C55  1  0.71357543  0.93464085  0.57098712  1  0.367672  0  0.012648  0.112131  0  3.865234  0
C  C56  1  0.77438246  0.05604937  0.63010754  1  0.366615  0  0.012362  0.112849  0  3.863058  0
C  C57  1  0.79683101  0.57945804  0.24649087  1  -0.015521  0  -0.024827  0.019245  0  3.922316  0
C  C58  1  0.80287612  0.49719135  0.19403465  1  -0.004458  0  -0.015884  -0.05617  0  4.028865  0
C  C59  1  0.75165340  0.41150516  0.19581573  1  0.024403  0  -0.102344  -0.232281  0  3.936408  0
C  C60  1  0.69563437  0.40553276  0.24782000  1  0.451039  0  0.11143  0.308734  0  4.070755  0
C  C61  1  0.79427053  0.59384198  0.76714917  1  -0.050508  0  -0.072963  -0.118128  0  3.601889  0
C  C62  1  0.69097615  0.49115060  0.30250269  1  -0.020061  0  -0.031615  -0.213424  0  3.938581  0
C  C63  1  0.74277634  0.57528961  0.29843840  1  -0.012144  0  -0.007088  0.077215  0  3.924316  0
C  C64  1  0.76995861  0.68308640  0.33719237  1  -0.039965  0  -0.152508  -0.196939  0  3.881611  0
C  C65  1  0.13676186  0.49499397  0.86066366  1  1.567146  0  0.226795  0.609187  0  4.176272  0
C  C66  1  0.83113054  0.68749831  0.27771718  1  -0.003574  0  -0.153406  -0.191802  0  3.901497  0
C  C67  1  0.15799455  0.94398265  0.21351946  1  -0.034503  0  -0.011096  -0.027858  0  3.859173  0
C  C68  1  0.19378308  0.88727154  0.18787142  1  -0.126827  0  -0.014855  -0.063987  0  3.983772  0
C  C69  1  0.28753685  0.94339619  0.22006368  1  0.008037  0  -0.085479  -0.101296  0  3.980014  0
C  C70  1  0.34111030  0.04998534  0.27589057  1  -0.015256  0  -0.08435  -0.098814  0  3.983566  0
C  C71  1  0.30438490  0.10692925  0.30253125  1  -0.049936  0  -0.014241  -0.077376  0  3.97075  0
C  C72  1  0.82864323  0.52421572  0.73608508  1  -0.04481  0  -0.07212  -0.056132  0  3.642497  0
C  C73  1  0.21184168  0.05086934  0.26889900  1  -0.010175  0  -0.001986  0.074727  0  3.90592  0
C  C74  1  0.13404088  0.05940814  0.26880524  1  -0.045443  0  -0.151082  -0.259622  0  3.854072  0
C  C75  1  0.07140131  0.93828577  0.20811229  1  0.421336  0  0.012276  0.165383  0  3.89241  0
C  C76  1  0.28701007  0.55517760  0.21621991  1  0.035534  0  -0.011852  -0.027827  0  3.880112  0
C  C77  1  0.86075677  0.49850966  0.13841538  1  1.530957  0  0.228657  0.612912  0  4.158236  0
C  C78  1  0.19531876  0.50141363  0.19857442  1  -0.06415  0  -0.014794  -0.065958  0  3.991641  0
C  C79  1  0.16088877  0.44698939  0.23702905  1  -0.007903  0  -0.083362  -0.097518  0  3.976443  0
C  C80  1  0.21636112  0.44768167  0.28983436  1  -0.003487  0  -0.082908  -0.097766  0  3.974075  0
C  C81  1  0.30927585  0.50212187  0.30708066  1  -0.015935  0  -0.013334  -0.076751  0  3.968782  0
C  C82  1  0.34264794  0.55520246  0.26834891  1  -0.03863  0  -0.002505  0.072034  0  3.903125  0
C  C83  1  0.73340099  0.42821376  0.66768592  1  -0.0246  0  -0.077308  -0.065335  0  3.643012  0
C  C84  1  0.42578807  0.62111752  0.25591335  1  -0.027888  0  -0.148784  -0.259406  0  3.849233  0
C  C85  1  0.36375556  0.62320137  0.19787553  1  0.361151  0  0.011305  0.163582  0  3.887486  0
C  C86  1  0.28728760  0.56115760  0.84187131  1  0.057527  0  -0.002915  0.062747  0  3.87948  0
C  C87  1  0.19457900  0.49574111  0.80495202  1  -0.053853  0  -0.015438  -0.083063  0  3.985396  0
C  C88  1  0.15810849  0.43015272  0.71119903  1  -0.091174  0  -0.084391  -0.099593  0  3.984872  0
C  C89  1  0.13670969  0.50042272  0.14151686  1  1.540495  0  0.227599  0.608164  0  4.1714  0
C  C90  1  0.21207984  0.43092728  0.65872774  1  0.051789  0  -0.084484  -0.100914  0  3.983933  0
C  C91  1  0.30595896  0.49738822  0.69662910  1  0.03496  0  -0.014043  -0.079706  0  3.977135  0
C  C92  1  0.34137069  0.56198606  0.78915809  1  -0.08971  0  -0.002657  0.063989  0  3.878874  0
C  C93  1  0.42687750  0.64556641  0.86848894  1  0.001004  0  -0.150803  -0.198134  0  3.882847  0
C  C94  1  0.70851822  0.40859020  0.74009803  1  -0.04395  0  -0.070581  -0.048926  0  3.64483  0
C  C95  1  0.36577823  0.64477152  0.92812265  1  -0.048926  0  -0.151908  -0.198489  0  3.873187  0
C  C96  1  0.63739383  0.49391849  0.36114088  1  1.51858  0  0.220555  0.61743  0  4.165535  0
C  C97  1  0.36288539  0.49732809  0.63990469  1  1.538569  0  0.227093  0.60866  0  4.178654  0
C  C98  1  0.64005687  0.77520994  0.64079368  1  1.528311  0  0.226751  0.607454  0  4.171558  0
C  C99  1  0.36234433  0.22066151  0.36287744  1  1.592338  0  0.225503  0.606575  0  4.177065  0
C  C100  1  0.36646730  0.50017195  0.36282959  1  1.542444  0  0.226639  0.607759  0  4.177921  0
C  C101  1  0.85911033  0.50147614  0.86532951  1  1.524097  0  0.228096  0.620124  0  4.160068  0
C  C102  1  0.64223874  0.49776749  0.64057605  1  1.546541  0  0.225589  0.608807  0  4.173632  0
C  C103  1  0.77046938  0.57514025  0.84056312  1  0.445083  0  0.090899  0.26165  0  3.753378  0
C  C104  1  0.67338633  0.47723846  0.77080371  1  -0.0367  0  -0.083966  -0.150547  0  3.620337  0
C  C105  1  0.80478024  0.50546179  0.80954475  1  0.015359  0  -0.009978  -0.092393  0  3.651685  0
C  C106  1  0.69843372  0.49683052  0.69783053  1  0.003505  0  -0.010541  -0.02387  0  3.676117  0
C  C107  1  0.77371890  0.05087212  0.71091242  1  0.025159  0  -0.012846  -0.024024  0  3.903577  0
C  C108  1  0.80428451  0.10889698  0.80355332  1  0.005715  0  -0.015064  -0.063733  0  3.977237  0
C  C109  1  0.77974030  0.05391749  0.84201109  1  0.021292  0  -0.082891  -0.095587  0  3.970055  0
N  N110  1  0.73735631  0.10327641  0.61548280  1  -1.128573  0  -0.638802  -0.640942  0  3.19191  0
N  N111  1  0.64574777  0.31702420  0.24269387  1  -1.267986  0  -0.592613  -0.618278  0  3.348041  0
N  N112  1  0.79992401  0.65577499  0.93099075  1  -1.159548  0  -0.616382  -0.65802  0  3.271765  0
N  N113  1  0.00942901  0.89251300  0.12466625  1  -1.125818  0  -0.639144  -0.65119  0  3.216741  0
N  N114  1  0.36369877  0.58483062  0.10724634  1  -1.128219  0  -0.635614  -0.646255  0  3.187098  0
N  N115  1  0.74748067  0.88522087  0.50754952  1  -1.068243  0  -0.636947  -0.64263  0  3.20621  0
O  O116  1  0.99825414  0.49815824  0.99929263  1  -1.222085  0  -0.57491  -1.026284  0  2.560199  0
O  O117  1  0.32289665  0.26518010  0.38071727  1  -1.157672  0  -0.310655  -0.538421  0  2.331533  0
O  O118  1  0.45020049  0.55434756  0.37787476  1  -1.166633  0  -0.312149  -0.537812  0  2.322318  0
O  O119  1  0.05294426  0.72969349  0.10410248  1  -1.171852  0  -0.311296  -0.543366  0  2.343677  0
O  O120  1  0.62510911  0.44198757  0.55680393  1  -1.174293  0  -0.318685  -0.549192  0  2.324465  0
O  O121  1  0.32728417  0.44473782  0.39085013  1  -1.170264  0  -0.31566  -0.547297  0  2.34573  0
O  O122  1  0.61625505  0.55542792  0.68068463  1  -1.175722  0  -0.321844  -0.555355  0  2.317455  0
O  O123  1  0.62173604  0.73158383  0.68088289  1  -1.166813  0  -0.315673  -0.547473  0  2.33091  0
O  O124  1  0.44611080  0.26449289  0.39193166  1  -1.169749  0  -0.317805  -0.549146  0  2.33608  0
O  O125  1  0.63176472  0.57011348  0.39929858  1  -1.175566  0  -0.317947  -0.549358  0  2.334472  0
O  O126  1  0.32340725  0.43300448  0.55593052  1  -1.17186  0  -0.316178  -0.547191  0  2.34087  0
O  O127  1  0.05258375  0.43145324  0.82107077  1  -1.179155  0  -0.315434  -0.546324  0  2.333126  0
O  O128  1  0.87456996  0.26639126  0.82030604  1  -1.169834  0  -0.311957  -0.549174  0  2.336181  0
O  O129  1  0.17710502  0.55909827  0.94474179  1  -1.177406  0  -0.314588  -0.544416  0  2.335149  0
O  O130  1  0.86904588  0.42447350  0.10111507  1  -1.177931  0  -0.318779  -0.55127  0  2.336963  0
O  O131  1  0.17564047  0.55288964  0.11059685  1  -1.16877  0  -0.311567  -0.548024  0  2.354455  0
O  O132  1  0.86638156  0.54449319  0.94750489  1  -1.170782  0  -0.317039  -0.551463  0  2.326143  0
O  O133  1  0.05322813  0.44771398  0.12746418  1  -1.176311  0  -0.314289  -0.543049  0  2.32844  0
O  O134  1  0.89265444  0.45257829  0.82562785  1  -1.169195  0  -0.320268  -0.553735  0  2.31184  0
O  O135  1  0.89787477  0.57425792  0.13229295  1  -1.171785  0  -0.313085  -0.539827  0  2.318576  0
O  O136  1  0.17622365  0.72912038  0.11635773  1  -1.179579  0  -0.316372  -0.546631  0  2.34205  0
O  O137  1  0.89216575  0.26759961  0.94371952  1  -1.187811  0  -0.315399  -0.545553  0  2.34142  0
O  O138  1  0.50232828  0.49919096  0.50372454  1  -1.204033  0  -0.573743  -1.025618  0  2.550078  0
O  O139  1  0.59980886  0.42069154  0.37148045  1  -1.18253  0  -0.31687  -0.558887  0  2.360687  0
O  O140  1  0.44698807  0.56206470  0.68054318  1  -1.174406  0  -0.311492  -0.541958  0  2.331417  0
O  O141  1  0.61449868  0.73061681  0.55672600  1  -1.170943  0  -0.310991  -0.543602  0  2.349983  0
