# generated using pymatgen
data_AlH9C21Br3NO6
_symmetry_space_group_name_H-M   'P 1'
_cell_length_a   4.12518339
_cell_length_b   13.47472766
_cell_length_c   13.47500100
_cell_angle_alpha   119.99917403
_cell_angle_beta   90.00129800
_cell_angle_gamma   89.99947138
_symmetry_Int_Tables_number   1
_chemical_formula_structural   AlH9C21Br3NO6
_chemical_formula_sum   'Al1 H9 C21 Br3 N1 O6'
_cell_volume   648.67372790
_cell_formula_units_Z   1
loop_
 _symmetry_equiv_pos_site_id
 _symmetry_equiv_pos_as_xyz
  1  'x, y, z'
loop_
 _atom_site_type_symbol
 _atom_site_label
 _atom_site_symmetry_multiplicity
 _atom_site_fract_x
 _atom_site_fract_y
 _atom_site_fract_z
 _atom_site_occupancy
 _atom_site_pbe_bader_charge
 _atom_site_pbe_bader_spin_density
 _atom_site_pbe_cm5_charge
 _atom_site_pbe_ddec_charge
 _atom_site_pbe_ddec_spin_density
 _atom_site_pbe_ddec_sum_bond_order
 _atom_site_pbe_magmom
Al  Al0  1  0.03115105  0.49999442  0.49999290  1  2.510064  0  0.433391  1.632823  0  2.526727  0
H  H1  1  0.23239128  0.80986092  0.78138875  1  0.094086  0  0.112707  0.121526  0  0.970081  0
H  H2  1  0.20752134  0.02061821  0.89258727  1  0.065285  0  0.103807  0.113918  0  1.024654  0
H  H3  1  0.76201529  0.03679725  0.62962649  1  0.085852  0  0.102936  0.119447  0  1.039515  0
H  H4  1  0.76208725  0.09283460  0.96320631  1  0.120481  0  0.103013  0.119577  0  1.039506  0
H  H5  1  0.23238210  0.47150922  0.19011962  1  0.09545  0  0.11274  0.121537  0  0.970212  0
H  H6  1  0.20750941  0.37195519  0.97936813  1  0.063061  0  0.103865  0.113926  0  1.024642  0
H  H7  1  0.76210517  0.37036130  0.90715671  1  0.080011  0  0.103013  0.119607  0  1.039538  0
H  H8  1  0.23231839  0.21862660  0.52849950  1  0.097928  0  0.112684  0.121442  0  0.970196  0
H  H9  1  0.20743759  0.10742719  0.62805671  1  0.064728  0  0.103912  0.113947  0  1.024597  0
C  C10  1  0.52880886  0.40419278  0.32550428  1  1.670553  0  0.278627  0.684209  0  4.056996  0
C  C11  1  0.52882092  0.42130208  0.59579844  1  1.591419  0  0.27847  0.68397  0  4.057126  0
C  C12  1  0.52880670  0.67449091  0.57869021  1  1.585689  0  0.27853  0.684002  0  4.057046  0
C  C13  1  0.35172946  0.86001486  0.74877610  1  0.018166  0  -0.079776  -0.064426  0  3.968868  0
C  C14  1  0.33519732  0.97889940  0.81108552  1  -0.051744  0  -0.098663  -0.180648  0  3.990281  0
C  C15  1  0.48540230  0.04513085  0.77011093  1  0.364157  0  0.095264  0.199927  0  4.008136  0
C  C16  1  0.64589556  0.98835449  0.66425343  1  -0.012793  0  -0.106538  -0.241701  0  4.00331  0
C  C17  1  0.65148514  0.86936515  0.60135416  1  -0.044026  0  -0.012795  0.102653  0  3.987996  0
C  C18  1  0.51209752  0.80288779  0.64301543  1  0.065432  0  -0.02215  -0.101101  0  3.972602  0
C  C19  1  0.64594476  0.17589130  0.01164382  1  0.022846  0  -0.106662  -0.241724  0  4.003625  0
C  C20  1  0.65152861  0.23198344  0.13062681  1  -0.157997  0  -0.012735  0.102623  0  3.988054  0
C  C21  1  0.51210285  0.34012042  0.19709894  1  0.023445  0  -0.022141  -0.101217  0  3.972934  0
C  C22  1  0.35172896  0.38875416  0.13997985  1  0.084356  0  -0.079845  -0.06443  0  3.969409  0
C  C23  1  0.33518803  0.33217704  0.02109885  1  -0.148116  0  -0.098768  -0.180678  0  3.989985  0
C  C24  1  0.48543054  0.22496787  0.95486514  1  0.336841  0  0.095277  0.199873  0  4.007904  0
C  C25  1  0.64595509  0.33574429  0.82410028  1  0.064427  0  -0.106727  -0.241964  0  4.003729  0
C  C26  1  0.65156637  0.39863326  0.76800409  1  -0.097895  0  -0.012674  0.102665  0  3.987953  0
C  C27  1  0.51211712  0.35698182  0.65987409  1  0.046544  0  -0.022135  -0.101039  0  3.972599  0
C  C28  1  0.35168289  0.25123290  0.61125568  1  0.018876  0  -0.079806  -0.064369  0  3.969094  0
C  C29  1  0.33514363  0.18893127  0.66783462  1  -0.032805  0  -0.098809  -0.18073  0  3.990237  0
C  C30  1  0.48540206  0.22989412  0.77503100  1  0.273963  0  0.095361  0.200039  0  4.008055  0
Br  Br31  1  0.84839087  0.79816843  0.45391482  1  -0.051967  0  0.034706  -0.047296  0  1.468009  0
Br  Br32  1  0.84846909  0.15574499  0.20182861  1  -0.050218  0  0.034684  -0.047313  0  1.467967  0
Br  Br33  1  0.84856661  0.54605949  0.84423377  1  -0.051528  0  0.034654  -0.04733  0  1.468046  0
N  N34  1  0.47494745  0.16666266  0.83333232  1  -1.203059  0  -0.247111  -0.143894  0  3.612862  0
O  O35  1  0.77110044  0.62989628  0.60032800  1  -1.249081  0  -0.232145  -0.593243  0  2.357274  0
O  O36  1  0.77109931  0.47042793  0.37009335  1  -1.253374  0  -0.232119  -0.593221  0  2.357257  0
O  O37  1  0.77109897  0.39965868  0.52956420  1  -1.247546  0  -0.232021  -0.593108  0  2.357228  0
O  O38  1  0.29920068  0.62040547  0.50988103  1  -1.262987  0  -0.237994  -0.609389  0  2.409674  0
O  O39  1  0.29920394  0.49010842  0.61051558  1  -1.260943  0  -0.238008  -0.609457  0  2.409645  0
O  O40  1  0.29919946  0.38946989  0.37958352  1  -1.267585  0  -0.238018  -0.609433  0  2.409699  0
