# generated using pymatgen
data_CdH17C18N5O7
_symmetry_space_group_name_H-M   'P 1'
_cell_length_a   9.44824095
_cell_length_b   10.68040500
_cell_length_c   10.65218781
_cell_angle_alpha   106.85669862
_cell_angle_beta   104.24715348
_cell_angle_gamma   95.49567422
_symmetry_Int_Tables_number   1
_chemical_formula_structural   CdH17C18N5O7
_chemical_formula_sum   'Cd2 H34 C36 N10 O14'
_cell_volume   980.77730635
_cell_formula_units_Z   2
loop_
 _symmetry_equiv_pos_site_id
 _symmetry_equiv_pos_as_xyz
  1  'x, y, z'
loop_
 _atom_site_type_symbol
 _atom_site_label
 _atom_site_symmetry_multiplicity
 _atom_site_fract_x
 _atom_site_fract_y
 _atom_site_fract_z
 _atom_site_occupancy
 _atom_site_hle17_bader_spin_density
 _atom_site_hle17_ddec_charge
 _atom_site_hle17_ddec_spin_density
 _atom_site_hle17_ddec_sum_bond_order
 _atom_site_hle17_magmom
 _atom_site_hse06_10hf_bader_spin_density
 _atom_site_hse06_10hf_ddec_charge
 _atom_site_hse06_10hf_ddec_spin_density
 _atom_site_hse06_10hf_ddec_sum_bond_order
 _atom_site_hse06_10hf_magmom
 _atom_site_hse06_bader_spin_density
 _atom_site_hse06_ddec_charge
 _atom_site_hse06_ddec_spin_density
 _atom_site_hse06_ddec_sum_bond_order
 _atom_site_hse06_magmom
 _atom_site_pbe_bader_spin_density
 _atom_site_pbe_cm5_charge
 _atom_site_pbe_ddec_charge
 _atom_site_pbe_ddec_spin_density
 _atom_site_pbe_ddec_sum_bond_order
 _atom_site_pbe_magmom
Cd  Cd0  1  0.56139198  0.96587847  0.19375109  1  0  1.13568  0  1.657081  0  0  0.936714  0  2.107152  0  0  0.99331  0  2.055025  0  0  0.786686  0.89493  0  2.143737  0
Cd  Cd1  1  0.43860476  0.03412453  0.80624578  1  0  1.13566  0  1.657102  0  0  0.93675  0  2.10718  0  0  0.993387  0  2.055  0  0  0.786655  0.894965  0  2.143754  0
H  H2  1  0.89650009  0.93727209  0.20399141  1  0  0.083445  0  0.941567  0  0  0.095582  0  0.999694  0  0  0.097419  0  0.998335  0  0  0.117513  0.094248  0  1.000677  0
H  H3  1  0.10350703  0.06272805  0.79601441  1  0  0.083475  0  0.941564  0  0  0.09562  0  0.999649  0  0  0.097453  0  0.99832  0  0  0.117529  0.09428  0  1.000659  0
H  H4  1  0.04489604  0.76258654  0.14097504  1  0  0.115643  0  0.94648  0  0  0.126788  0  1.003518  0  0  0.129665  0  1.002709  0  0  0.111731  0.124882  0  1.004076  0
H  H5  1  0.95510614  0.23741059  0.85902977  1  0  0.11562  0  0.946472  0  0  0.126776  0  1.003515  0  0  0.129654  0  1.002684  0  0  0.111721  0.124872  0  1.004051  0
H  H6  1  0.68472697  0.03691184  0.48922368  1  0  0.418223  0  0.883049  0  0  0.385834  0  0.949089  0  0  0.397555  0  0.932024  0  0  0.284863  0.377304  0  0.961496  0
H  H7  1  0.31526897  0.96308122  0.51077110  1  0  0.418253  0  0.882997  0  0  0.385883  0  0.94901  0  0  0.397572  0  0.931995  0  0  0.28489  0.37735  0  0.96142  0
H  H8  1  0.63189866  0.49080419  0.90463053  1  0  0.116473  0  0.955995  0  0  0.124005  0  1.020882  0  0  0.12776  0  1.019135  0  0  0.107246  0.121008  0  1.022765  0
H  H9  1  0.36810068  0.50920087  0.09538157  1  0  0.116442  0  0.955917  0  0  0.12402  0  1.020759  0  0  0.127772  0  1.019021  0  0  0.107216  0.121023  0  1.022641  0
H  H10  1  0.50024931  0.67985042  0.97759839  1  0  0.079157  0  0.934219  0  0  0.089993  0  0.99497  0  0  0.091971  0  0.993169  0  0  0.115351  0.088454  0  0.996605  0
H  H11  1  0.49975018  0.32015558  0.02239900  1  0  0.079087  0  0.934284  0  0  0.089906  0  0.995069  0  0  0.091889  0  0.993245  0  0  0.115327  0.088369  0  0.996686  0
H  H12  1  0.85267537  0.40353539  0.91488383  1  0  0.10183  0  0.944014  0  0  0.113357  0  1.003513  0  0  0.115994  0  1.002443  0  0  0.106529  0.111527  0  1.00429  0
H  H13  1  0.14731681  0.59646659  0.08511551  1  0  0.101817  0  0.943949  0  0  0.1133  0  1.003491  0  0  0.115933  0  1.002439  0  0  0.106511  0.111468  0  1.004278  0
H  H14  1  0.22814299  0.99991985  0.16666049  1  0  0.079092  0  0.955981  0  0  0.086194  0  1.023657  0  0  0.088625  0  1.020962  0  0  0.113452  0.084613  0  1.025108  0
H  H15  1  0.77184978  0.00008513  0.83334547  1  0  0.07922  0  0.956101  0  0  0.086309  0  1.023787  0  0  0.088751  0  1.021047  0  0  0.113524  0.084734  0  1.025201  0
H  H16  1  0.07762936  0.17596943  0.22219333  1  0  0.112875  0  0.969756  0  0  0.119333  0  1.035997  0  0  0.123133  0  1.033949  0  0  0.106215  0.11627  0  1.038174  0
H  H17  1  0.92237110  0.82404158  0.77781603  1  0  0.112963  0  0.969703  0  0  0.119428  0  1.035899  0  0  0.123222  0  1.033893  0  0  0.106214  0.116349  0  1.038135  0
H  H18  1  0.74650668  0.90554313  0.41798457  1  0  0.378799  0  0.947326  0  0  0.333426  0  1.033701  0  0  0.345874  0  1.016428  0  0  0.272261  0.32455  0  1.045976  0
H  H19  1  0.25349858  0.09445301  0.58201782  1  0  0.378833  0  0.947284  0  0  0.333473  0  1.033642  0  0  0.34592  0  1.016368  0  0  0.27228  0.324598  0  1.045916  0
H  H20  1  0.48735102  0.46267775  0.38818330  1  0  0.106445  0  0.962654  0  0  0.116356  0  1.026053  0  0  0.119367  0  1.025534  0  0  0.106843  0.114045  0  1.026685  0
H  H21  1  0.51265814  0.53732736  0.61182251  1  0  0.106439  0  0.962662  0  0  0.116328  0  1.026081  0  0  0.119341  0  1.025558  0  0  0.106822  0.114018  0  1.026713  0
H  H22  1  0.62150701  0.27340352  0.32914238  1  0  0.070768  0  0.948695  0  0  0.079212  0  1.018077  0  0  0.081342  0  1.01563  0  0  0.112835  0.077644  0  1.020053  0
H  H23  1  0.37849464  0.72659656  0.67085941  1  0  0.070786  0  0.948702  0  0  0.07925  0  1.018051  0  0  0.08136  0  1.015645  0  0  0.112835  0.077676  0  1.020057  0
H  H24  1  0.26796310  0.54244025  0.41027734  1  0  0.098628  0  0.988783  0  0  0.111137  0  1.0505  0  0  0.113744  0  1.049184  0  0  0.102561  0.109547  0  1.050946  0
H  H25  1  0.73203162  0.45756369  0.58971279  1  0  0.098675  0  0.988686  0  0  0.111124  0  1.050482  0  0  0.113739  0  1.049155  0  0  0.102572  0.109536  0  1.050927  0
H  H26  1  0.97316513  0.34495859  0.25977232  1  0  0.093507  0  1.000265  0  0  0.098443  0  1.073097  0  0  0.101769  0  1.070562  0  0  0.099454  0.095881  0  1.075226  0
H  H27  1  0.02683787  0.65503153  0.74021564  1  0  0.093349  0  1.000309  0  0  0.098321  0  1.073105  0  0  0.101646  0  1.070602  0  0  0.099391  0.095757  0  1.075253  0
H  H28  1  0.75207517  0.43731385  0.24650249  1  0  0.100515  0  0.949809  0  0  0.113259  0  1.006782  0  0  0.115655  0  1.007028  0  0  0.102917  0.111319  0  1.007198  0
H  H29  1  0.24791604  0.56268312  0.75348769  1  0  0.100565  0  0.949826  0  0  0.113315  0  1.006776  0  0  0.115704  0  1.007038  0  0  0.102948  0.111368  0  1.007207  0
H  H30  1  0.62469610  0.63256683  0.30417272  1  0  0.075142  0  0.96386  0  0  0.078026  0  1.039892  0  0  0.081438  0  1.03609  0  0  0.107524  0.075938  0  1.042067  0
H  H31  1  0.37530649  0.36743822  0.69583071  1  0  0.075106  0  0.963845  0  0  0.077997  0  1.039876  0  0  0.08142  0  1.036056  0  0  0.107507  0.075908  0  1.042053  0
H  H32  1  0.02684425  0.88571506  0.52392950  1  0  0.080984  0  0.947138  0  0  0.090636  0  1.009455  0  0  0.093476  0  1.006507  0  0  0.111994  0.088531  0  1.01161  0
H  H33  1  0.97317391  0.11427425  0.47607466  1  0  0.081191  0  0.946927  0  0  0.090672  0  1.009428  0  0  0.093506  0  1.006487  0  0  0.112033  0.08858  0  1.011568  0
H  H34  1  0.16849826  0.70626470  0.47574763  1  0  0.10796  0  0.966906  0  0  0.116411  0  1.031828  0  0  0.119675  0  1.030246  0  0  0.105881  0.11443  0  1.032406  0
H  H35  1  0.83149991  0.29371148  0.52423621  1  0  0.108106  0  0.966839  0  0  0.116455  0  1.031857  0  0  0.119781  0  1.030215  0  0  0.105911  0.114457  0  1.032446  0
C  C36  1  0.84265919  0.83677693  0.13768629  1  0  0.125985  0  3.7178  0  0  0.092811  0  3.970674  0  0  0.099877  0  3.991119  0  0  0.042728  0.088129  0  3.956696  0
C  C37  1  0.15734338  0.16322220  0.86232482  1  0  0.125895  0  3.717785  0  0  0.092737  0  3.970653  0  0  0.099799  0  3.991129  0  0  0.042624  0.088058  0  3.956698  0
C  C38  1  0.92440139  0.73812605  0.10247045  1  0  -0.144658  0  3.6764  0  0  -0.161127  0  3.922134  0  0  -0.168812  0  3.943447  0  0  -0.076054  -0.156623  0  3.908494  0
C  C39  1  0.07560081  0.26187110  0.89754094  1  0  -0.14459  0  3.676133  0  0  -0.161056  0  3.921892  0  0  -0.168742  0  3.943184  0  0  -0.075982  -0.156554  0  3.908234  0
C  C40  1  0.85050761  0.60897919  0.01849096  1  0  0.144747  0  3.786004  0  0  0.15767  0  4.017769  0  0  0.163665  0  4.04007  0  0  0.013156  0.153664  0  4.003072  0
C  C41  1  0.14949059  0.39101991  0.98152013  1  0  0.144758  0  3.785714  0  0  0.15766  0  4.017506  0  0  0.163655  0  4.039804  0  0  0.013168  0.153653  0  4.002807  0
C  C42  1  0.69454361  0.58866559  0.97147717  1  0  -0.169475  0  3.68411  0  0  -0.183996  0  3.927426  0  0  -0.193055  0  3.948968  0  0  -0.080566  -0.177406  0  3.913298  0
C  C43  1  0.30545387  0.41133548  0.02853151  1  0  -0.169389  0  3.683805  0  0  -0.18393  0  3.927124  0  0  -0.192994  0  3.948671  0  0  -0.080483  -0.177337  0  3.912994  0
C  C44  1  0.62098623  0.69314111  0.01103293  1  0  0.136373  0  3.722174  0  0  0.105234  0  3.973548  0  0  0.113372  0  3.993058  0  0  0.042794  0.099667  0  3.960411  0
C  C45  1  0.37901144  0.30686095  0.98897514  1  0  0.136503  0  3.72218  0  0  0.105368  0  3.973609  0  0  0.113513  0  3.993094  0  0  0.042866  0.099802  0  3.96046  0
C  C46  1  0.92585204  0.49751775  0.97989560  1  0  -0.083386  0  3.680925  0  0  -0.10345  0  3.931113  0  0  -0.106479  0  3.951351  0  0  -0.071753  -0.101143  0  3.917531  0
C  C47  1  0.07414396  0.50248131  0.02010937  1  0  -0.083238  0  3.680811  0  0  -0.103259  0  3.930987  0  0  -0.106288  0  3.951236  0  0  -0.071676  -0.100949  0  3.917407  0
C  C48  1  0.28086397  0.10401303  0.21668717  1  0  0.140177  0  3.702808  0  0  0.107455  0  3.952944  0  0  0.115508  0  3.971772  0  0  0.041229  0.10216  0  3.939863  0
C  C49  1  0.71913644  0.89599201  0.78331765  1  0  0.139895  0  3.703145  0  0  0.107226  0  3.953335  0  0  0.115291  0  3.972119  0  0  0.041133  0.101937  0  3.940216  0
C  C50  1  0.19798291  0.20265918  0.24811229  1  0  -0.150022  0  3.659873  0  0  -0.165554  0  3.90385  0  0  -0.173834  0  3.924499  0  0  -0.079925  -0.160433  0  3.890757  0
C  C51  1  0.80201879  0.79734687  0.75189216  1  0  -0.150084  0  3.660119  0  0  -0.165642  0  3.904042  0  0  -0.173925  0  3.92471  0  0  -0.079912  -0.160518  0  3.890967  0
C  C52  1  0.27069653  0.33592591  0.31391179  1  0  0.153154  0  3.778382  0  0  0.165609  0  4.011356  0  0  0.172542  0  4.033132  0  0  0.012059  0.161304  0  3.996208  0
C  C53  1  0.72930787  0.66407717  0.68609052  1  0  0.153111  0  3.77858  0  0  0.165626  0  4.011474  0  0  0.17256  0  4.033257  0  0  0.012055  0.16132  0  3.996325  0
C  C54  1  0.42606533  0.36100310  0.34136724  1  0  -0.169813  0  3.689926  0  0  -0.186362  0  3.938007  0  0  -0.195103  0  3.958319  0  0  -0.08493  -0.180262  0  3.924067  0
C  C55  1  0.57393836  0.63900196  0.65863736  1  0  -0.169785  0  3.690056  0  0  -0.186304  0  3.938099  0  0  -0.195049  0  3.958417  0  0  -0.084887  -0.180206  0  3.924157  0
C  C56  1  0.50098786  0.25656170  0.30755562  1  0  0.135681  0  3.738012  0  0  0.10028  0  3.994975  0  0  0.109152  0  4.013164  0  0  0.040857  0.09451  0  3.982762  0
C  C57  1  0.49901307  0.74344036  0.69244658  1  0  0.135585  0  3.738103  0  0  0.100207  0  3.99505  0  0  0.10908  0  4.013291  0  0  0.040865  0.094435  0  3.982861  0
C  C58  1  0.19503900  0.44671828  0.35331205  1  0  -0.111657  0  3.700634  0  0  -0.134017  0  3.95183  0  0  -0.138837  0  3.973189  0  0  -0.086207  -0.130684  0  3.937162  0
C  C59  1  0.80495934  0.55328174  0.64667961  1  0  -0.111593  0  3.700547  0  0  -0.133939  0  3.951792  0  0  -0.138759  0  3.97315  0  0  -0.086199  -0.130607  0  3.937126  0
C  C60  1  0.04627747  0.43996819  0.32011566  1  0  -0.085003  0  3.697979  0  0  -0.104112  0  3.94893  0  0  -0.106294  0  3.969606  0  0  -0.077908  -0.102824  0  3.935809  0
C  C61  1  0.95372264  0.56002389  0.67987411  1  0  -0.084875  0  3.697969  0  0  -0.104028  0  3.94883  0  0  -0.106214  0  3.969545  0  0  -0.077903  -0.102731  0  3.935757  0
C  C62  1  0.97243686  0.55312065  0.35660349  1  0  0.129561  0  3.79966  0  0  0.144391  0  4.027951  0  0  0.14898  0  4.051344  0  0  0.005322  0.141335  0  4.012732  0
C  C63  1  0.02755282  0.44686835  0.64337937  1  0  0.12952  0  3.799979  0  0  0.144485  0  4.028047  0  0  0.149077  0  4.051448  0  0  0.005377  0.141429  0  4.012829  0
C  C64  1  0.81666623  0.53539236  0.30976356  1  0  -0.169185  0  3.70627  0  0  -0.18327  0  3.949737  0  0  -0.191542  0  3.972903  0  0  -0.085903  -0.177771  0  3.935232  0
C  C65  1  0.18332427  0.46460659  0.69022704  1  0  -0.169204  0  3.706354  0  0  -0.183309  0  3.949763  0  0  -0.191585  0  3.972947  0  0  -0.08592  -0.177813  0  3.935277  0
C  C66  1  0.74514172  0.64328713  0.34141658  1  0  0.117892  0  3.737823  0  0  0.087628  0  3.996418  0  0  0.093787  0  4.01482  0  0  0.036347  0.083529  0  3.984273  0
C  C67  1  0.25486087  0.35671792  0.65858591  1  0  0.117902  0  3.737488  0  0  0.087649  0  3.996136  0  0  0.093808  0  4.014534  0  0  0.036356  0.083551  0  3.983989  0
C  C68  1  0.96777464  0.78485505  0.46366928  1  0  0.122907  0  3.72056  0  0  0.09428  0  3.973862  0  0  0.100165  0  3.992078  0  0  0.043798  0.090622  0  3.96133  0
C  C69  1  0.03223700  0.21514015  0.53633328  1  0  0.122565  0  3.720632  0  0  0.094057  0  3.973988  0  0  0.099942  0  3.992207  0  0  0.043672  0.090388  0  3.961459  0
C  C70  1  0.04793000  0.68280020  0.43673745  1  0  -0.150536  0  3.671517  0  0  -0.1666  0  3.915476  0  0  -0.174158  0  3.937276  0  0  -0.081599  -0.161745  0  3.900462  0
C  C71  1  0.95206916  0.31718691  0.56325163  1  0  -0.150696  0  3.671553  0  0  -0.166686  0  3.915432  0  0  -0.174303  0  3.937184  0  0  -0.081651  -0.161816  0  3.90043  0
N  N72  1  0.75507562  0.15082818  0.09659183  1  0  0.685164  0  4.151481  0  0  0.716243  0  4.447109  0  0  0.744918  0  4.45247  0  0  0.093761  0.709497  0  4.425508  0
N  N73  1  0.24492074  0.84917282  0.90340344  1  0  0.685081  0  4.151265  0  0  0.729185  0  4.428912  0  0  0.744855  0  4.452289  0  0  0.093779  0.709552  0  4.425186  0
N  N74  1  0.39835295  0.78918765  0.32094024  1  0  0.692846  0  4.157736  0  0  0.724578  0  4.446801  0  0  0.752834  0  4.452183  0  0  0.095992  0.707416  0  4.442628  0
N  N75  1  0.60164379  0.21081535  0.67905757  1  0  0.69304  0  4.157267  0  0  0.724461  0  4.446672  0  0  0.753221  0  4.451779  0  0  0.095939  0.707325  0  4.442474  0
N  N76  1  0.69284269  0.81549068  0.09378361  1  0  -0.341039  0  3.256631  0  0  -0.259755  0  3.522145  0  0  -0.282196  0  3.543594  0  0  -0.337895  -0.24399  0  3.506791  0
N  N77  1  0.30716135  0.18451044  0.90622651  1  0  -0.341197  0  3.256869  0  0  -0.259917  0  3.52235  0  0  -0.28236  0  3.543801  0  0  -0.337977  -0.244156  0  3.507012  0
N  N78  1  0.43039381  0.12966081  0.24685651  1  0  -0.345106  0  3.295146  0  0  -0.257983  0  3.558228  0  0  -0.281146  0  3.578701  0  0  -0.340623  -0.241862  0  3.543993  0
N  N79  1  0.56960622  0.87034225  0.75314766  1  0  -0.344893  0  3.295105  0  0  -0.257894  0  3.558304  0  0  -0.281058  0  3.578773  0  0  -0.340644  -0.241772  0  3.544072  0
N  N80  1  0.81881721  0.76710001  0.41668375  1  0  -0.31765  0  3.173376  0  0  -0.253034  0  3.418954  0  0  -0.268275  0  3.43696  0  0  -0.309013  -0.242717  0  3.406909  0
N  N81  1  0.18119390  0.23289817  0.58332143  1  0  -0.317461  0  3.173402  0  0  -0.252883  0  3.418975  0  0  -0.268123  0  3.436978  0  0  -0.308928  -0.242566  0  3.406937  0
O  O82  1  0.61581035  0.10162847  0.04045548  1  0  -0.531353  0  1.902591  0  0  -0.50332  0  2.168518  0  0  -0.525305  0  2.159803  0  0  -0.207223  -0.491504  0  2.168735  0
O  O83  1  0.38418619  0.89837353  0.95953918  1  0  -0.531266  0  1.902502  0  0  -0.507521  0  2.163605  0  0  -0.525216  0  2.159728  0  0  -0.207164  -0.491457  0  2.168626  0
O  O84  1  0.81190726  0.14603679  0.21600109  1  0  -0.474837  0  1.760752  0  0  -0.461602  0  1.984186  0  0  -0.477815  0  1.977835  0  0  -0.185979  -0.453703  0  1.983558  0
O  O85  1  0.18808743  0.85396123  0.78399390  1  0  -0.474864  0  1.760758  0  0  -0.466012  0  1.979198  0  0  -0.477859  0  1.977923  0  0  -0.186017  -0.453785  0  1.983603  0
O  O86  1  0.82937182  0.20113797  0.03565954  1  0  -0.421046  0  1.758037  0  0  -0.422008  0  1.97408  0  0  -0.433191  0  1.96819  0  0  -0.170696  -0.418428  0  1.973049  0
O  O87  1  0.17062601  0.79886504  0.96433850  1  0  -0.42099  0  1.757813  0  0  -0.426445  0  1.968606  0  0  -0.433191  0  1.96799  0  0  -0.170742  -0.41847  0  1.972803  0
O  O88  1  0.44531026  0.75931726  0.21445193  1  0  -0.514357  0  1.821082  0  0  -0.4972  0  2.070366  0  0  -0.515764  0  2.060732  0  0  -0.20774  -0.48496  0  2.076846  0
O  O89  1  0.55468719  0.24068377  0.78554734  1  0  -0.51439  0  1.820861  0  0  -0.497136  0  2.070271  0  0  -0.515898  0  2.06056  0  0  -0.207702  -0.484899  0  2.076722  0
O  O90  1  0.39666138  0.70987394  0.38719422  1  0  -0.441221  0  1.774336  0  0  -0.435788  0  1.98994  0  0  -0.448304  0  1.984577  0  0  -0.178699  -0.427818  0  1.992953  0
O  O91  1  0.60333374  0.29013203  0.61280691  1  0  -0.441322  0  1.774215  0  0  -0.435751  0  1.989875  0  0  -0.44847  0  1.984445  0  0  -0.17868  -0.42779  0  1.992879  0
O  O92  1  0.35519824  0.89974983  0.35602063  1  0  -0.479345  0  1.802403  0  0  -0.462261  0  2.014674  0  0  -0.47846  0  2.007288  0  0  -0.184074  -0.451378  0  2.019182  0
O  O93  1  0.64479997  0.10025516  0.64397619  1  0  -0.479425  0  1.80226  0  0  -0.46224  0  2.01466  0  0  -0.478642  0  2.007205  0  0  -0.184068  -0.451368  0  2.019158  0
O  O94  1  0.71673073  0.99222194  0.40783225  1  0  -0.840068  0  1.917249  0  0  -0.76952  0  2.130466  0  0  -0.794066  0  2.09474  0  0  -0.593149  -0.751808  0  2.155642  0
O  O95  1  0.28326650  0.00777213  0.59216498  1  0  -0.840075  0  1.917141  0  0  -0.769563  0  2.130334  0  0  -0.794112  0  2.09466  0  0  -0.593147  -0.751859  0  2.15555  0
