# generated using pymatgen
data_CoH20C16(NO2)4
_symmetry_space_group_name_H-M   'P 1'
_cell_length_a   7.22669778
_cell_length_b   7.47460131
_cell_length_c   9.42773487
_cell_angle_alpha   63.40585594
_cell_angle_beta   71.42072715
_cell_angle_gamma   80.47414736
_symmetry_Int_Tables_number   1
_chemical_formula_structural   CoH20C16(NO2)4
_chemical_formula_sum   'Co1 H20 C16 N4 O8'
_cell_volume   431.48632133
_cell_formula_units_Z   1
loop_
 _symmetry_equiv_pos_site_id
 _symmetry_equiv_pos_as_xyz
  1  'x, y, z'
loop_
 _atom_site_type_symbol
 _atom_site_label
 _atom_site_symmetry_multiplicity
 _atom_site_fract_x
 _atom_site_fract_y
 _atom_site_fract_z
 _atom_site_occupancy
 _atom_site_hse06_10hf_ddec_charge
 _atom_site_hse06_10hf_ddec_spin_density
 _atom_site_hse06_10hf_ddec_sum_bond_order
 _atom_site_hse06_10hf_magmom
 _atom_site_hse06_ddec_charge
 _atom_site_hse06_ddec_spin_density
 _atom_site_hse06_ddec_sum_bond_order
 _atom_site_hse06_magmom
 _atom_site_pbe_cm5_charge
 _atom_site_pbe_ddec_charge
 _atom_site_pbe_ddec_spin_density
 _atom_site_pbe_ddec_sum_bond_order
 _atom_site_pbe_magmom
Co  Co0  1  0.49999659  0.49999919  0.50000056  1  0.772065  1.051046  2.793828  0.988  0.834545  1.031703  2.719586  0.978  0.646097  0.74224  1.064042  2.835405  0.993
H  H1  1  0.64226771  0.23854889  0.33113591  1  0.110403  -0.000219  1.009492  0.0  0.114718  -0.000156  1.003974  0.0  0.127084  0.106851  -0.000248  1.014126  0.0
H  H2  1  0.35772827  0.76145113  0.66886392  1  0.110389  -0.000219  1.009499  0.0  0.114709  -0.000156  1.003969  0.0  0.127096  0.106838  -0.000248  1.014131  0.0
H  H3  1  0.81342168  0.63580210  0.81119864  1  0.113933  -0.000168  1.047621  0.0  0.117711  -7.7e-05  1.043878  0.0  0.110855  0.110212  -0.000413  1.052524  0.0
H  H4  1  0.18659060  0.36419565  0.18879979  1  0.113912  -0.000168  1.047571  0.0  0.117693  -7.7e-05  1.043818  0.0  0.110835  0.110188  -0.000413  1.05248  0.0
H  H5  1  0.68091303  0.91939647  0.89011018  1  0.119896  -2.1e-05  1.015241  0.0  0.123147  -2.4e-05  1.014711  0.0  0.11023  0.117294  -1.5e-05  1.016091  0.0
H  H6  1  0.31909761  0.08060278  0.10988606  1  0.119858  -2.1e-05  1.015292  0.0  0.123107  -2.4e-05  1.014767  0.0  0.110197  0.117256  -1.5e-05  1.016144  0.0
H  H7  1  0.55078979  0.84867257  0.18889898  1  0.095959  -0.000159  1.035184  0.0  0.09958  -0.000113  1.030373  0.0  0.121144  0.093167  -0.000205  1.039104  0.0
H  H8  1  0.44920909  0.15132622  0.81109732  1  0.09599  -0.000159  1.035161  0.0  0.099606  -0.000113  1.030362  0.0  0.121147  0.093204  -0.000205  1.039072  0.0
H  H9  1  0.79396925  0.93199271  0.61341867  1  0.114675  0.000156  1.014246  0.0  0.117162  0.000103  1.012614  0.0  0.098143  0.113198  0.000175  1.015176  0.0
H  H10  1  0.20602829  0.06800865  0.38658666  1  0.114683  0.000156  1.014258  0.0  0.117167  0.000103  1.012627  0.0  0.098152  0.113204  0.000176  1.015192  0.0
H  H11  1  0.98301930  0.98367078  0.67174983  1  0.1125  -7.1e-05  1.020572  0.0  0.114181  -2.3e-05  1.020783  0.0  0.09623  0.111451  -0.000116  1.020715  0.0
H  H12  1  0.01697788  0.01633510  0.32825302  1  0.112474  -7.1e-05  1.020518  0.0  0.114152  -2.3e-05  1.020729  0.0  0.096223  0.111426  -0.000116  1.02066  0.0
H  H13  1  0.95456974  0.39616333  0.78345254  1  0.329709  -3.8e-05  0.977894  0.0  0.338417  -2.9e-05  0.970641  0.0  0.301837  0.323671  -4.6e-05  0.982577  0.0
H  H14  1  0.04543224  0.60383403  0.21654555  1  0.329765  -3.8e-05  0.977847  0.0  0.33847  -2.9e-05  0.970597  0.0  0.301844  0.323728  -4.6e-05  0.982528  0.0
H  H15  1  0.00790504  0.13832981  0.86826092  1  0.31397  -3.7e-05  0.99138  0.0  0.323308  -2.9e-05  0.983387  0.0  0.297148  0.307085  -4.8e-05  0.997651  0.0
H  H16  1  0.99210149  0.86166619  0.13173856  1  0.31398  -3.7e-05  0.991282  0.0  0.323313  -2.9e-05  0.983296  0.0  0.29716  0.307094  -4.8e-05  0.997558  0.0
H  H17  1  0.72205817  0.85427488  0.36907612  1  0.393597  0.000427  0.931592  0.001  0.402504  0.000269  0.918423  0.001  0.297738  0.387951  0.000586  0.939972  0.001
H  H18  1  0.27794338  0.14572983  0.63092278  1  0.393623  0.000427  0.931553  0.001  0.402527  0.000269  0.918388  0.001  0.297754  0.38797  0.000586  0.939944  0.001
H  H19  1  0.81254944  0.68334144  0.50679994  1  0.385883  0.000113  0.950866  0.0  0.395872  4e-06  0.93639  0.0  0.289515  0.379236  0.000209  0.960457  0.001
H  H20  1  0.18744064  0.31666113  0.49320482  1  0.385868  0.000113  0.950879  0.0  0.395856  4e-06  0.936404  0.0  0.28952  0.379224  0.000209  0.960465  0.001
C  C21  1  0.65788067  0.38721282  0.23027460  1  0.086578  -0.009462  3.862759  -0.006  0.100156  -0.006392  3.875546  -0.004  0.056469  0.07748  -0.010028  3.857079  -0.006
C  C22  1  0.34211683  0.61278581  0.76972423  1  0.086611  -0.009464  3.862674  -0.006  0.100188  -0.006393  3.875461  -0.004  0.056488  0.077513  -0.01003  3.856992  -0.006
C  C23  1  0.74228352  0.41370771  0.06704431  1  -0.09475  0.000817  3.997827  0.002  -0.109097  0.000762  4.02156  0.001  -0.014277  -0.085811  0.000516  3.983384  0.002
C  C24  1  0.25771995  0.58629107  0.93295715  1  -0.094719  0.000818  3.997862  0.002  -0.109066  0.000762  4.021594  0.001  -0.014267  -0.085782  0.000516  3.983419  0.002
C  C25  1  0.74938879  0.60755282  0.94062855  1  -0.056975  -0.010137  3.939415  -0.006  -0.047006  -0.00566  3.95356  -0.003  -0.070464  -0.066256  -0.014963  3.934355  -0.009
C  C26  1  0.25061763  0.39244468  0.05937045  1  -0.057001  -0.010141  3.939466  -0.006  -0.047029  -0.005662  3.953606  -0.003  -0.07045  -0.066287  -0.014967  3.934409  -0.009
C  C27  1  0.67608234  0.76592719  0.98395100  1  -0.131277  0.000942  3.988221  0.002  -0.140825  0.000891  4.006691  0.001  -0.08679  -0.125159  0.000365  3.978309  0.002
C  C28  1  0.32392254  0.23407031  0.01604627  1  -0.131255  0.000942  3.988314  0.002  -0.140802  0.000891  4.006784  0.001  -0.086783  -0.125141  0.000366  3.978403  0.002
C  C29  1  0.60257994  0.72887498  0.14946736  1  0.09782  -0.008296  3.912285  -0.005  0.111688  -0.005523  3.923413  -0.003  0.049245  0.086994  -0.011304  3.907445  -0.007
C  C30  1  0.39741905  0.27112231  0.85052941  1  0.097685  -0.0083  3.912116  -0.005  0.111551  -0.005525  3.923241  -0.003  0.049176  0.086859  -0.011307  3.907276  -0.007
C  C31  1  0.83099543  0.23382443  0.03719191  1  0.5648  -0.000125  4.146253  0.0  0.593943  -9.2e-05  4.148172  0.0  0.244863  0.546018  -0.000276  4.142952  0.0
C  C32  1  0.16900513  0.76617420  0.96281037  1  0.564782  -0.000126  4.146338  0.0  0.593925  -9.1e-05  4.148255  0.0  0.244846  0.546003  -0.000276  4.14303  0.0
C  C33  1  0.85617541  0.24189498  0.50863217  1  0.645866  -0.002882  4.117468  -0.002  0.682234  -0.001778  4.110261  -0.001  0.214715  0.62124  -0.00396  4.120276  -0.002
C  C34  1  0.14381900  0.75810784  0.49137030  1  0.645786  -0.002883  4.117495  -0.002  0.682153  -0.001778  4.110288  -0.001  0.214704  0.621165  -0.00396  4.120278  -0.002
C  C35  1  0.92262788  0.02250362  0.56760175  1  -0.294205  -0.000704  3.93199  -0.001  -0.300648  -0.000437  3.941104  0.0  -0.172431  -0.289126  -0.000776  3.924422  -0.001
C  C36  1  0.07736956  0.97749923  0.43240311  1  -0.294131  -0.000703  3.931989  -0.001  -0.300562  -0.000437  3.941094  0.0  -0.172418  -0.289062  -0.000776  3.924449  -0.001
N  N37  1  0.59327518  0.54197967  0.27205893  1  -0.194786  -0.008243  3.625138  -0.005  -0.219156  -0.007237  3.637882  -0.005  -0.336102  -0.182305  -0.009288  3.618699  -0.006
N  N38  1  0.40672501  0.45802073  0.72793542  1  -0.194678  -0.008243  3.625006  -0.005  -0.219046  -0.007237  3.637746  -0.005  -0.336056  -0.182197  -0.009288  3.618564  -0.006
N  N39  1  0.92607701  0.25913530  0.88282482  1  -0.629497  8.3e-05  3.323904  0.0  -0.653793  3.9e-05  3.319764  0.0  -0.562758  -0.612961  9.2e-05  3.326177  0.0
N  N40  1  0.07392504  0.74086198  0.11717540  1  -0.629529  8.4e-05  3.323887  0.0  -0.653825  3.9e-05  3.319749  0.0  -0.562752  -0.612995  9.2e-05  3.326156  0.0
O  O41  1  0.81987532  0.06335301  0.15747161  1  -0.564107  0.000123  2.214618  0.0  -0.58773  0.000158  2.207656  0.0  -0.303235  -0.54818  -2.2e-05  2.219097  0.0
O  O42  1  0.18012808  0.93664584  0.84252773  1  -0.564103  0.000122  2.214624  0.0  -0.587732  0.000158  2.207677  0.0  -0.303232  -0.548181  -2.2e-05  2.219115  0.0
O  O43  1  0.67128207  0.26857979  0.56252690  1  -0.55043  -0.006832  2.469711  -0.006  -0.591598  -0.006159  2.461043  -0.005  -0.305623  -0.521538  -0.005693  2.472401  -0.005
O  O44  1  0.32871360  0.73142330  0.43746985  1  -0.550357  -0.006831  2.469555  -0.006  -0.591528  -0.006158  2.460887  -0.005  -0.305623  -0.521464  -0.005694  2.47223  -0.005
O  O45  1  0.97907845  0.37776263  0.41493771  1  -0.583066  -0.001174  2.234058  -0.001  -0.607985  -0.000851  2.224299  -0.001  -0.313124  -0.565318  -0.001354  2.239436  -0.001
O  O46  1  0.02091465  0.62223997  0.58506944  1  -0.583012  -0.001175  2.234143  -0.001  -0.607938  -0.00085  2.22439  -0.001  -0.313076  -0.565265  -0.001354  2.239505  -0.001
O  O47  1  0.69022217  0.73386496  0.47329691  1  -0.772601  0.020392  2.10782  0.033  -0.79411  0.016503  2.075176  0.028  -0.573492  -0.756378  0.024797  2.128535  0.04
O  O48  1  0.30976907  0.26614213  0.52670708  1  -0.77258  0.020392  2.107855  0.033  -0.794109  0.016503  2.075263  0.028  -0.573502  -0.756351  0.024797  2.128573  0.04
