# generated using pymatgen
data_CdH14C14(N4O)2
_symmetry_space_group_name_H-M   'P 1'
_cell_length_a   3.76628864
_cell_length_b   12.82916014
_cell_length_c   16.88009635
_cell_angle_alpha   89.99992339
_cell_angle_beta   90.00021981
_cell_angle_gamma   93.81587796
_symmetry_Int_Tables_number   1
_chemical_formula_structural   CdH14C14(N4O)2
_chemical_formula_sum   'Cd2 H28 C28 N16 O4'
_cell_volume   813.80972579
_cell_formula_units_Z   2
loop_
 _symmetry_equiv_pos_site_id
 _symmetry_equiv_pos_as_xyz
  1  'x, y, z'
loop_
 _atom_site_type_symbol
 _atom_site_label
 _atom_site_symmetry_multiplicity
 _atom_site_fract_x
 _atom_site_fract_y
 _atom_site_fract_z
 _atom_site_occupancy
 _atom_site_hle17_bader_spin_density
 _atom_site_hle17_ddec_charge
 _atom_site_hle17_ddec_spin_density
 _atom_site_hle17_ddec_sum_bond_order
 _atom_site_hle17_magmom
 _atom_site_hse06_10hf_bader_spin_density
 _atom_site_hse06_10hf_ddec_charge
 _atom_site_hse06_10hf_ddec_spin_density
 _atom_site_hse06_10hf_ddec_sum_bond_order
 _atom_site_hse06_10hf_magmom
 _atom_site_hse06_bader_spin_density
 _atom_site_hse06_ddec_charge
 _atom_site_hse06_ddec_spin_density
 _atom_site_hse06_ddec_sum_bond_order
 _atom_site_hse06_magmom
 _atom_site_pbe_bader_spin_density
 _atom_site_pbe_cm5_charge
 _atom_site_pbe_ddec_charge
 _atom_site_pbe_ddec_spin_density
 _atom_site_pbe_ddec_sum_bond_order
 _atom_site_pbe_magmom
Cd  Cd0  1  0.00000141  0.50000260  0.49999985  1  0  1.030447  0  1.837464  0  0  0.837951  0  2.304701  0  0  0.885775  0  2.267457  0  0  0.782646  0.804467  0  2.32969  0
Cd  Cd1  1  0.00000075  0.99999888  0.00000008  1  0  1.030449  0  1.837551  0  0  0.837935  0  2.304813  0  0  0.885757  0  2.267575  0  0  0.782602  0.804444  0  2.329811  0
H  H2  1  0.78455748  0.58905221  0.67027701  1  0  0.086426  0  0.940873  0  0  0.090404  0  1.011546  0  0  0.093426  0  1.00832  0  0  0.116863  0.088162  0  1.013939  0
H  H3  1  0.21544077  0.91094448  0.17027412  1  0  0.086453  0  0.940837  0  0  0.090439  0  1.011496  0  0  0.093463  0  1.008264  0  0  0.116879  0.088197  0  1.013889  0
H  H4  1  0.21544100  0.41094767  0.32972312  1  0  0.086392  0  0.940859  0  0  0.090397  0  1.011517  0  0  0.093427  0  1.008272  0  0  0.116857  0.088155  0  1.013907  0
H  H5  1  0.78455505  0.08905538  0.82972481  1  0  0.086422  0  0.940857  0  0  0.090409  0  1.011526  0  0  0.093439  0  1.008278  0  0  0.11687  0.088169  0  1.013917  0
H  H6  1  0.07134347  0.38071795  0.85741556  1  0  0.099793  0  0.972197  0  0  0.106501  0  1.042672  0  0  0.108557  0  1.041146  0  0  0.107671  0.104976  0  1.043754  0
H  H7  1  0.92865877  0.11927414  0.35741654  1  0  0.099799  0  0.972229  0  0  0.106515  0  1.042703  0  0  0.108572  0  1.041177  0  0  0.107685  0.104989  0  1.043785  0
H  H8  1  0.92865203  0.61928036  0.14258279  1  0  0.09987  0  0.972111  0  0  0.106552  0  1.042628  0  0  0.108609  0  1.041105  0  0  0.107704  0.105027  0  1.043711  0
H  H9  1  0.07133955  0.88072495  0.64258359  1  0  0.09979  0  0.972251  0  0  0.106487  0  1.042763  0  0  0.108544  0  1.041237  0  0  0.107661  0.104961  0  1.043845  0
H  H10  1  0.27157708  0.26004389  0.75279663  1  0  0.12366  0  0.955866  0  0  0.130274  0  1.017499  0  0  0.13392  0  1.015855  0  0  0.111551  0.12764  0  1.018899  0
H  H11  1  0.72842666  0.23995147  0.25280028  1  0  0.123593  0  0.955883  0  0  0.130253  0  1.017454  0  0  0.133907  0  1.015804  0  0  0.111532  0.127616  0  1.018856  0
H  H12  1  0.72842123  0.73995520  0.24720171  1  0  0.123668  0  0.955854  0  0  0.130307  0  1.01745  0  0  0.133954  0  1.015802  0  0  0.111558  0.127672  0  1.018853  0
H  H13  1  0.27156900  0.76004761  0.74719984  1  0  0.123643  0  0.955856  0  0  0.130294  0  1.017435  0  0  0.133949  0  1.015786  0  0  0.111556  0.127656  0  1.018839  0
H  H14  1  0.21948385  0.31027954  0.61122630  1  0  0.082542  0  0.931734  0  0  0.090281  0  0.99585  0  0  0.092382  0  0.993769  0  0  0.117083  0.088685  0  0.997453  0
H  H15  1  0.78051811  0.18971915  0.11122886  1  0  0.082451  0  0.931858  0  0  0.090248  0  0.995901  0  0  0.092348  0  0.99382  0  0  0.117059  0.088652  0  0.997505  0
H  H16  1  0.78051511  0.68972267  0.38877204  1  0  0.082573  0  0.93178  0  0  0.090343  0  0.995859  0  0  0.092444  0  0.993778  0  0  0.117109  0.088747  0  0.997463  0
H  H17  1  0.21948037  0.81028073  0.88877126  1  0  0.082463  0  0.931838  0  0  0.090257  0  0.995887  0  0  0.092357  0  0.993807  0  0  0.117055  0.088659  0  0.997491  0
H  H18  1  0.14134605  0.55709327  0.92612304  1  0  0.138865  0  0.954527  0  0  0.16286  0  1.011454  0  0  0.163417  0  1.012908  0  0  0.102981  0.162441  0  1.010444  0
H  H19  1  0.85866987  0.94290309  0.42612126  1  0  0.138865  0  0.954563  0  0  0.162881  0  1.011443  0  0  0.163439  0  1.012899  0  0  0.102989  0.162466  0  1.010423  0
H  H20  1  0.85866305  0.44290663  0.07387590  1  0  0.138877  0  0.954513  0  0  0.162877  0  1.011413  0  0  0.163436  0  1.012867  0  0  0.103003  0.162463  0  1.010389  0
H  H21  1  0.14133127  0.05709679  0.57387827  1  0  0.138841  0  0.954567  0  0  0.16286  0  1.011441  0  0  0.163419  0  1.012896  0  0  0.102994  0.162444  0  1.010423  0
H  H22  1  0.74137461  0.47836528  0.93451547  1  0  0.140326  0  0.958916  0  0  0.159898  0  1.022622  0  0  0.160947  0  1.022732  0  0  0.102225  0.159071  0  1.022654  0
H  H23  1  0.25863805  0.02163218  0.43451302  1  0  0.140279  0  0.958932  0  0  0.159843  0  1.022683  0  0  0.160894  0  1.022786  0  0  0.102171  0.159017  0  1.022714  0
H  H24  1  0.25863200  0.52163538  0.06548406  1  0  0.140291  0  0.958942  0  0  0.159856  0  1.022661  0  0  0.160905  0  1.022772  0  0  0.102222  0.159028  0  1.022694  0
H  H25  1  0.74136043  0.97836769  0.56548710  1  0  0.140233  0  0.958942  0  0  0.159775  0  1.022735  0  0  0.160828  0  1.022836  0  0  0.102146  0.158948  0  1.022769  0
H  H26  1  0.74052097  0.61677314  0.95135890  1  0  0.136078  0  0.968808  0  0  0.148194  0  1.03958  0  0  0.150716  0  1.038147  0  0  0.093892  0.146342  0  1.040649  0
H  H27  1  0.25948991  0.88322239  0.45135964  1  0  0.136069  0  0.968741  0  0  0.14817  0  1.039548  0  0  0.150693  0  1.038113  0  0  0.093924  0.146317  0  1.04062  0
H  H28  1  0.25948781  0.38322519  0.04864181  1  0  0.136074  0  0.96874  0  0  0.148188  0  1.039518  0  0  0.150711  0  1.038083  0  0  0.093883  0.146335  0  1.040588  0
H  H29  1  0.74050576  0.11677670  0.54864048  1  0  0.136037  0  0.968767  0  0  0.14815  0  1.039558  0  0  0.150672  0  1.038123  0  0  0.093937  0.146297  0  1.040627  0
C  C30  1  0.89234117  0.51690241  0.69052283  1  0  0.13176  0  3.668704  0  0  0.087508  0  3.923935  0  0  0.096397  0  3.940975  0  0  0.056176  0.081851  0  3.912209  0
C  C31  1  0.10766821  0.98309505  0.19052393  1  0  0.131825  0  3.668877  0  0  0.087575  0  3.924142  0  0  0.096465  0  3.941185  0  0  0.056255  0.081917  0  3.912416  0
C  C32  1  0.10766029  0.48309903  0.30947670  1  0  0.131816  0  3.668641  0  0  0.087535  0  3.923862  0  0  0.096425  0  3.940906  0  0  0.056204  0.081878  0  3.912128  0
C  C33  1  0.89233840  0.01690562  0.80947738  1  0  0.131972  0  3.668808  0  0  0.087706  0  3.924065  0  0  0.096599  0  3.94111  0  0  0.056297  0.082048  0  3.912337  0
C  C34  1  0.91008057  0.49520841  0.77163198  1  0  -0.108563  0  3.745147  0  0  -0.081223  0  3.973166  0  0  -0.092628  0  3.999579  0  0  -0.016864  -0.073934  0  3.955508  0
C  C35  1  0.08991867  0.00478926  0.27163237  1  0  -0.108533  0  3.745097  0  0  -0.081286  0  3.973265  0  0  -0.092695  0  3.999681  0  0  -0.01691  -0.073998  0  3.95561  0
C  C36  1  0.08992073  0.50479225  0.22836696  1  0  -0.108693  0  3.74531  0  0  -0.081354  0  3.973363  0  0  -0.092761  0  3.999784  0  0  -0.016893  -0.074064  0  3.955707  0
C  C37  1  0.91007780  0.99521373  0.72836775  1  0  -0.108649  0  3.745147  0  0  -0.081417  0  3.973313  0  0  -0.092826  0  3.999731  0  0  -0.01694  -0.074123  0  3.955659  0
C  C38  1  0.04962511  0.40150381  0.79513923  1  0  -0.0122  0  3.677858  0  0  -0.04214  0  3.924848  0  0  -0.038975  0  3.945816  0  0  -0.055867  -0.043779  0  3.910436  0
C  C39  1  0.95037188  0.09849382  0.29513847  1  0  -0.012275  0  3.67793  0  0  -0.042221  0  3.924971  0  0  -0.039058  0  3.945943  0  0  -0.05589  -0.043862  0  3.910562  0
C  C40  1  0.95037104  0.59849762  0.20486030  1  0  -0.01223  0  3.67782  0  0  -0.042193  0  3.924841  0  0  -0.039018  0  3.945782  0  0  -0.055911  -0.043834  0  3.910435  0
C  C41  1  0.04962443  0.90150839  0.70486105  1  0  -0.01221  0  3.677904  0  0  -0.042152  0  3.924941  0  0  -0.038985  0  3.94591  0  0  -0.055849  -0.043793  0  3.910532  0
C  C42  1  0.15969511  0.33333134  0.73741453  1  0  -0.102509  0  3.698316  0  0  -0.115237  0  3.954093  0  0  -0.122786  0  3.975429  0  0  -0.077064  -0.110482  0  3.939832  0
C  C43  1  0.84030355  0.16666638  0.23741301  1  0  -0.102328  0  3.698453  0  0  -0.115064  0  3.954181  0  0  -0.122622  0  3.975525  0  0  -0.076978  -0.110311  0  3.939924  0
C  C44  1  0.84030370  0.66667010  0.26258560  1  0  -0.102602  0  3.698494  0  0  -0.115308  0  3.954242  0  0  -0.122857  0  3.975584  0  0  -0.077101  -0.110555  0  3.939991  0
C  C45  1  0.15969244  0.83333427  0.76258474  1  0  -0.102394  0  3.69839  0  0  -0.115114  0  3.954109  0  0  -0.122674  0  3.975452  0  0  -0.076987  -0.11036  0  3.939853  0
C  C46  1  0.13119572  0.36094692  0.65809860  1  0  0.155045  0  3.66101  0  0  0.117339  0  3.921364  0  0  0.126184  0  3.93824  0  0  0.054043  0.111665  0  3.909727  0
C  C47  1  0.86880423  0.13905091  0.15809951  1  0  0.155098  0  3.661206  0  0  0.11734  0  3.921568  0  0  0.126181  0  3.938451  0  0  0.054028  0.111665  0  3.909938  0
C  C48  1  0.86879512  0.63905450  0.34189974  1  0  0.155025  0  3.661035  0  0  0.117259  0  3.921418  0  0  0.1261  0  3.9383  0  0  0.054009  0.111583  0  3.909788  0
C  C49  1  0.13119425  0.86094896  0.84189943  1  0  0.155096  0  3.661072  0  0  0.11733  0  3.921425  0  0  0.126173  0  3.93831  0  0  0.054019  0.111656  0  3.909791  0
C  C50  1  0.77942428  0.57203099  0.82942243  1  0  0.503227  0  3.683725  0  0  0.488996  0  3.948453  0  0  0.509873  0  3.952755  0  0  0.166835  0.474768  0  3.945457  0
C  C51  1  0.22057637  0.92796392  0.32942131  1  0  0.503189  0  3.68359  0  0  0.489001  0  3.948305  0  0  0.509879  0  3.952608  0  0  0.166868  0.474773  0  3.945315  0
C  C52  1  0.22057685  0.42796889  0.17057769  1  0  0.503266  0  3.683474  0  0  0.489026  0  3.948217  0  0  0.509902  0  3.952526  0  0  0.166826  0.474795  0  3.945234  0
C  C53  1  0.77941679  0.07203595  0.67057822  1  0  0.503244  0  3.683519  0  0  0.4891  0  3.948159  0  0  0.509977  0  3.952463  0  0  0.166873  0.474866  0  3.945181  0
C  C54  1  0.85334978  0.55586482  0.91563288  1  0  -0.443584  0  3.671667  0  0  -0.523404  0  3.900662  0  0  -0.528256  0  3.906208  0  0  -0.249848  -0.519738  0  3.896799  0
C  C55  1  0.14666580  0.94413077  0.41563168  1  0  -0.443548  0  3.671644  0  0  -0.52337  0  3.900645  0  0  -0.528227  0  3.906194  0  0  -0.249872  -0.519701  0  3.896775  0
C  C56  1  0.14665932  0.44413507  0.08436724  1  0  -0.443581  0  3.671607  0  0  -0.523388  0  3.900621  0  0  -0.528248  0  3.906169  0  0  -0.249865  -0.519718  0  3.896762  0
C  C57  1  0.85333268  0.05586910  0.58436844  1  0  -0.443378  0  3.671575  0  0  -0.523201  0  3.900547  0  0  -0.528059  0  3.906098  0  0  -0.249816  -0.51953  0  3.896674  0
N  N58  1  0.52808147  0.61317246  0.52487547  1  0  -0.619753  0  2.728377  0  0  -0.577625  0  3.037567  0  0  -0.602631  0  3.04338  0  0  -0.326531  -0.560294  0  3.033318  0
N  N59  1  0.47192355  0.88683070  0.02487401  1  0  -0.619606  0  2.727756  0  0  -0.577429  0  3.036896  0  0  -0.602442  0  3.042714  0  0  -0.326435  -0.560093  0  3.032646  0
N  N60  1  0.47192676  0.38683602  0.47512643  1  0  -0.619797  0  2.728138  0  0  -0.577645  0  3.037275  0  0  -0.602654  0  3.043091  0  0  -0.326489  -0.560311  0  3.033022  0
N  N61  1  0.52807912  0.11316372  0.97512789  1  0  -0.61989  0  2.728026  0  0  -0.577736  0  3.037179  0  0  -0.602749  0  3.042996  0  0  -0.326548  -0.5604  0  3.03293  0
N  N62  1  0.53058744  0.70384288  0.54400090  1  0  0.397113  0  4.249047  0  0  0.436832  0  4.518897  0  0  0.4529  0  4.547844  0  0  0.081707  0.425933  0  4.499501  0
N  N63  1  0.46941894  0.79615245  0.04400131  1  0  0.3968  0  4.248598  0  0  0.436468  0  4.518553  0  0  0.452543  0  4.547476  0  0  0.081521  0.425572  0  4.499149  0
N  N64  1  0.46941498  0.29616325  0.45600040  1  0  0.397207  0  4.248251  0  0  0.436936  0  4.518117  0  0  0.452994  0  4.547088  0  0  0.081698  0.426035  0  4.498727  0
N  N65  1  0.53058573  0.20383885  0.95600118  1  0  0.397357  0  4.248388  0  0  0.437076  0  4.518257  0  0  0.453137  0  4.547215  0  0  0.081818  0.426176  0  4.498865  0
N  N66  1  0.53042490  0.79159428  0.56245810  1  0  -0.39271  0  2.425405  0  0  -0.391184  0  2.648762  0  0  -0.39865  0  2.658638  0  0  -0.190761  -0.385928  0  2.642288  0
N  N67  1  0.46957166  0.70840335  0.06245860  1  0  -0.392522  0  2.425564  0  0  -0.390976  0  2.648956  0  0  -0.398441  0  2.658829  0  0  -0.190648  -0.385722  0  2.642474  0
N  N68  1  0.46956924  0.20841027  0.43754439  1  0  -0.392746  0  2.424861  0  0  -0.391273  0  2.648283  0  0  -0.398733  0  2.658162  0  0  -0.190785  -0.386018  0  2.641811  0
N  N69  1  0.53042754  0.29158716  0.93754389  1  0  -0.392818  0  2.425204  0  0  -0.391338  0  2.648612  0  0  -0.398795  0  2.658486  0  0  -0.190828  -0.386085  0  2.642139  0
N  N70  1  0.00173065  0.45170620  0.63491498  1  0  -0.343382  0  3.275341  0  0  -0.262407  0  3.546021  0  0  -0.284103  0  3.56713  0  0  -0.326525  -0.247585  0  3.53112  0
N  N71  1  0.99827188  0.04829323  0.13491609  1  0  -0.343492  0  3.275524  0  0  -0.262509  0  3.546235  0  0  -0.284201  0  3.567334  0  0  -0.326591  -0.247686  0  3.531338  0
N  N72  1  0.99826566  0.54829601  0.36508455  1  0  -0.3433  0  3.275131  0  0  -0.262301  0  3.54583  0  0  -0.283999  0  3.566943  0  0  -0.326492  -0.24748  0  3.530931  0
N  N73  1  0.00172410  0.95170742  0.86508521  1  0  -0.343572  0  3.275412  0  0  -0.262579  0  3.546132  0  0  -0.284274  0  3.567236  0  0  -0.326614  -0.247755  0  3.531233  0
O  O74  1  0.61101892  0.64549926  0.80605871  1  0  -0.487339  0  1.935573  0  0  -0.444825  0  2.148565  0  0  -0.46356  0  2.147509  0  0  -0.258886  -0.432005  0  2.149156  0
O  O75  1  0.38896725  0.85449175  0.30605840  1  0  -0.487336  0  1.93554  0  0  -0.44481  0  2.148501  0  0  -0.463544  0  2.147445  0  0  -0.258888  -0.431993  0  2.149099  0
O  O76  1  0.38897908  0.35449827  0.19394259  1  0  -0.487329  0  1.935345  0  0  -0.444799  0  2.148318  0  0  -0.463531  0  2.147263  0  0  -0.25886  -0.431979  0  2.148917  0
O  O77  1  0.61102310  0.14550733  0.69394172  1  0  -0.487439  0  1.935421  0  0  -0.444919  0  2.148351  0  0  -0.463653  0  2.147293  0  0  -0.258947  -0.43211  0  2.148978  0
