# generated using pymatgen
data_YbH15C15NO8
_symmetry_space_group_name_H-M   'P 1'
_cell_length_a   8.53581143
_cell_length_b   10.26432359
_cell_length_c   10.86722866
_cell_angle_alpha   62.87511502
_cell_angle_beta   70.51655093
_cell_angle_gamma   82.67973258
_symmetry_Int_Tables_number   1
_chemical_formula_structural   YbH15C15NO8
_chemical_formula_sum   'Yb2 H30 C30 N2 O16'
_cell_volume   798.53621825
_cell_formula_units_Z   2
loop_
 _symmetry_equiv_pos_site_id
 _symmetry_equiv_pos_as_xyz
  1  'x, y, z'
loop_
 _atom_site_type_symbol
 _atom_site_label
 _atom_site_symmetry_multiplicity
 _atom_site_fract_x
 _atom_site_fract_y
 _atom_site_fract_z
 _atom_site_occupancy
 _atom_site_hle17_bader_spin_density
 _atom_site_hle17_ddec_charge
 _atom_site_hle17_ddec_spin_density
 _atom_site_hle17_ddec_sum_bond_order
 _atom_site_hle17_magmom
 _atom_site_hse06_10hf_bader_spin_density
 _atom_site_hse06_10hf_ddec_charge
 _atom_site_hse06_10hf_ddec_spin_density
 _atom_site_hse06_10hf_ddec_sum_bond_order
 _atom_site_hse06_10hf_magmom
 _atom_site_hse06_bader_spin_density
 _atom_site_hse06_ddec_charge
 _atom_site_hse06_ddec_spin_density
 _atom_site_hse06_ddec_sum_bond_order
 _atom_site_hse06_magmom
 _atom_site_pbe_bader_spin_density
 _atom_site_pbe_cm5_charge
 _atom_site_pbe_ddec_charge
 _atom_site_pbe_ddec_spin_density
 _atom_site_pbe_ddec_sum_bond_order
 _atom_site_pbe_magmom
Yb  Yb0  1  0.36010907  0.56417534  0.33382401  1  0  2.163574  0  1.761237  0  0  2.090041  0  2.105177  0  0  2.148539  0  2.050192  0  0  1.588371  2.054734  0  2.133911  0
Yb  Yb1  1  0.63989120  0.43582560  0.66617577  1  0  2.163617  0  1.761238  0  0  2.09006  0  2.105225  0  0  2.148561  0  2.050235  0  0  1.588363  2.054746  0  2.133944  0
H  H2  1  0.75357998  0.37261142  0.02430475  1  0  0.11288  0  0.941678  0  0  0.12235  0  1.001985  0  0  0.12584  0  1.000129  0  0  0.110934  0.120044  0  1.003234  0
H  H3  1  0.24642158  0.62738411  0.97569395  1  0  0.112887  0  0.941643  0  0  0.122363  0  1.001934  0  0  0.125854  0  1.000075  0  0  0.110929  0.120046  0  1.003201  0
H  H4  1  0.04078508  0.32819122  0.89016988  1  0  0.088704  0  0.99735  0  0  0.097787  0  1.063195  0  0  0.100095  0  1.062855  0  0  0.102168  0.096196  0  1.063295  0
H  H5  1  0.95921797  0.67180091  0.10983208  1  0  0.088713  0  0.997309  0  0  0.09784  0  1.06312  0  0  0.100142  0  1.062796  0  0  0.102197  0.096246  0  1.06322  0
H  H6  1  0.29954234  0.96407662  0.89717703  1  0  0.104211  0  0.961386  0  0  0.112906  0  1.023134  0  0  0.11651  0  1.020558  0  0  0.106335  0.110225  0  1.025198  0
H  H7  1  0.70045792  0.03592433  0.10282274  1  0  0.104201  0  0.96136  0  0  0.1129  0  1.023106  0  0  0.116502  0  1.020532  0  0  0.10633  0.11022  0  1.025173  0
H  H8  1  0.14825851  0.15667919  0.73865149  1  0  0.1068  0  0.939499  0  0  0.117114  0  0.998577  0  0  0.120854  0  0.996107  0  0  0.110399  0.114374  0  1.000468  0
H  H9  1  0.85174059  0.84332176  0.26134829  1  0  0.1068  0  0.939477  0  0  0.117113  0  0.998561  0  0  0.120851  0  0.996092  0  0  0.110393  0.114374  0  1.000457  0
H  H10  1  0.53311523  0.24959277  0.29390067  1  0  0.103394  0  0.983753  0  0  0.110489  0  1.050721  0  0  0.113964  0  1.048612  0  0  0.107318  0.107814  0  1.052683  0
H  H11  1  0.46688597  0.75041404  0.70609474  1  0  0.103432  0  0.983754  0  0  0.110518  0  1.050722  0  0  0.113988  0  1.048614  0  0  0.107336  0.107843  0  1.052684  0
H  H12  1  0.48381058  0.03052298  0.26421346  1  0  0.101027  0  0.956267  0  0  0.112608  0  1.015607  0  0  0.116068  0  1.013153  0  0  0.108475  0.110155  0  1.017317  0
H  H13  1  0.51618921  0.96948236  0.73578304  1  0  0.101019  0  0.956273  0  0  0.112615  0  1.015571  0  0  0.116077  0  1.01312  0  0  0.108473  0.110162  0  1.017281  0
H  H14  1  0.35082898  0.35040379  0.16029726  1  0  0.060206  0  0.925619  0  0  0.068749  0  0.993396  0  0  0.070964  0  0.98806  0  0  0.133396  0.067049  0  0.997067  0
H  H15  1  0.64916608  0.64959621  0.83970688  1  0  0.060155  0  0.92565  0  0  0.068726  0  0.993377  0  0  0.070922  0  0.988063  0  0  0.133371  0.067027  0  0.997047  0
H  H16  1  0.28970240  0.17737402  0.11725443  1  0  0.117541  0  0.924457  0  0  0.140099  0  0.981038  0  0  0.140851  0  0.980748  0  0  0.116826  0.139517  0  0.981303  0
H  H17  1  0.71029593  0.82262596  0.88274752  1  0  0.117549  0  0.924501  0  0  0.140101  0  0.981083  0  0  0.140855  0  0.980791  0  0  0.116828  0.139521  0  0.981349  0
H  H18  1  0.07393941  0.14516533  0.15734475  1  0  0.097719  0  0.960152  0  0  0.11578  0  1.027604  0  0  0.115307  0  1.030527  0  0  0.100766  0.11603  0  1.025813  0
H  H19  1  0.92605868  0.85483319  0.84265830  1  0  0.097725  0  0.960129  0  0  0.115786  0  1.027588  0  0  0.115312  0  1.030511  0  0  0.100765  0.116037  0  1.025802  0
H  H20  1  0.18333289  0.02394337  0.27931380  1  0  0.106959  0  0.940573  0  0  0.125215  0  1.006741  0  0  0.126223  0  1.006256  0  0  0.105628  0.12452  0  1.007163  0
H  H21  1  0.81666661  0.97605662  0.72068815  1  0  0.106882  0  0.940634  0  0  0.125175  0  1.006767  0  0  0.126184  0  1.006281  0  0  0.105601  0.12448  0  1.007186  0
H  H22  1  0.99176258  0.15204920  0.50504771  1  0  0.104421  0  0.928353  0  0  0.125975  0  0.989451  0  0  0.126791  0  0.988604  0  0  0.107293  0.125395  0  0.989967  0
H  H23  1  0.00823435  0.84794931  0.49495534  1  0  0.104435  0  0.92843  0  0  0.125994  0  0.98951  0  0  0.126809  0  0.988662  0  0  0.107312  0.125415  0  0.990024  0
H  H24  1  0.89126922  0.13421938  0.39209096  1  0  0.096686  0  0.939368  0  0  0.119403  0  0.999196  0  0  0.119307  0  1.000535  0  0  0.105676  0.11939  0  0.998296  0
H  H25  1  0.10872528  0.86578256  0.60791100  1  0  0.09666  0  0.93928  0  0  0.11936  0  0.999142  0  0  0.119264  0  1.000481  0  0  0.105625  0.119347  0  0.99824  0
H  H26  1  0.91395577  0.30906218  0.38607316  1  0  0.122675  0  0.944603  0  0  0.139585  0  1.010466  0  0  0.140825  0  1.00974  0  0  0.112481  0.138686  0  1.010897  0
H  H27  1  0.08604256  0.69093781  0.61392879  1  0  0.122657  0  0.944563  0  0  0.139569  0  1.010439  0  0  0.140811  0  1.009713  0  0  0.112472  0.13867  0  1.010872  0
H  H28  1  0.24094088  0.42703337  0.64951113  1  0  0.43448  0  0.867074  0  0  0.404256  0  0.930935  0  0  0.415263  0  0.914901  0  0  0.299442  0.396638  0  0.942141  0
H  H29  1  0.75905839  0.57296515  0.35049191  1  0  0.434504  0  0.867045  0  0  0.404277  0  0.930911  0  0  0.415284  0  0.914876  0  0  0.299449  0.396662  0  0.942114  0
H  H30  1  0.08085126  0.41420010  0.60923463  1  0  0.45453  0  0.833237  0  0  0.427137  0  0.890676  0  0  0.438529  0  0.87394  0  0  0.307026  0.419364  0  0.902121  0
H  H31  1  0.91914839  0.58579890  0.39076733  1  0  0.45456  0  0.83319  0  0  0.427158  0  0.890641  0  0  0.438549  0  0.87391  0  0  0.307029  0.419385  0  0.902086  0
C  C32  1  0.67068060  0.55360537  0.15406080  1  0  0.637689  0  3.921003  0  0  0.589425  0  4.218047  0  0  0.623941  0  4.210103  0  0  0.191829  0.566252  0  4.223193  0
C  C33  1  0.32931933  0.44639311  0.84593789  1  0  0.637692  0  3.92093  0  0  0.589429  0  4.217981  0  0  0.623944  0  4.210038  0  0  0.191835  0.56625  0  4.22313  0
C  C34  1  0.84064721  0.52428171  0.07607761  1  0  -0.055442  0  3.747399  0  0  -0.030882  0  3.975979  0  0  -0.037094  0  3.996918  0  0  -0.013492  -0.02653  0  3.961396  0
C  C35  1  0.15935608  0.47571188  0.92392326  1  0  -0.055361  0  3.747507  0  0  -0.030835  0  3.976095  0  0  -0.037044  0  3.997027  0  0  -0.013467  -0.026475  0  3.961499  0
C  C36  1  0.86199310  0.42718202  0.01403423  1  0  -0.070039  0  3.705493  0  0  -0.09333  0  3.954764  0  0  -0.094338  0  3.9739  0  0  -0.078025  -0.092621  0  3.941577  0
C  C37  1  0.13800833  0.57281306  0.98596773  1  0  -0.070042  0  3.705655  0  0  -0.093309  0  3.954927  0  0  -0.094316  0  3.974061  0  0  -0.077998  -0.092592  0  3.941743  0
C  C38  1  0.02097767  0.40387735  0.93804468  1  0  -0.06271  0  3.720137  0  0  -0.087577  0  3.969392  0  0  -0.087076  0  3.9885  0  0  -0.081194  -0.087656  0  3.956116  0
C  C39  1  0.97902875  0.59611577  0.06195726  1  0  -0.062758  0  3.720246  0  0  -0.087704  0  3.969547  0  0  -0.087206  0  3.988652  0  0  -0.081261  -0.087772  0  3.956269  0
C  C40  1  0.17825506  0.77370258  0.17694066  1  0  0.635395  0  3.91786  0  0  0.589365  0  4.215407  0  0  0.623154  0  4.208688  0  0  0.193435  0.566204  0  4.220824  0
C  C41  1  0.82174613  0.22629835  0.82305694  1  0  0.635571  0  3.917788  0  0  0.589561  0  4.215295  0  0  0.623349  0  4.208575  0  0  0.193521  0.566395  0  4.22072  0
C  C42  1  0.08549629  0.89205991  0.08760664  1  0  -0.056758  0  3.745941  0  0  -0.031226  0  3.972111  0  0  -0.037221  0  3.99338  0  0  -0.011897  -0.02744  0  3.958086  0
C  C43  1  0.91450632  0.10794105  0.91239313  1  0  -0.056727  0  3.745964  0  0  -0.03119  0  3.972113  0  0  -0.037184  0  3.993383  0  0  -0.011893  -0.027404  0  3.958091  0
C  C44  1  0.16817700  0.98083026  0.94053270  1  0  -0.060706  0  3.704648  0  0  -0.08373  0  3.951271  0  0  -0.084582  0  3.970848  0  0  -0.077914  -0.083159  0  3.938202  0
C  C45  1  0.83182445  0.01917069  0.05946707  1  0  -0.060757  0  3.704658  0  0  -0.083784  0  3.951278  0  0  -0.084638  0  3.970856  0  0  -0.077923  -0.083213  0  3.938216  0
C  C46  1  0.08372018  0.08776959  0.85292540  1  0  -0.069077  0  3.714578  0  0  -0.093625  0  3.967613  0  0  -0.093496  0  3.985323  0  0  -0.077337  -0.093444  0  3.955773  0
C  C47  1  0.91628047  0.91223184  0.14707329  1  0  -0.069019  0  3.714478  0  0  -0.09356  0  3.967513  0  0  -0.093431  0  3.985226  0  0  -0.077312  -0.093381  0  3.955681  0
C  C48  1  0.54722491  0.25280297  0.53652780  1  0  0.716204  0  3.860832  0  0  0.672481  0  4.15124  0  0  0.709  0  4.138713  0  0  0.229659  0.648239  0  4.159333  0
C  C49  1  0.45277411  0.74720141  0.46347088  1  0  0.716337  0  3.860735  0  0  0.672543  0  4.151225  0  0  0.709062  0  4.138694  0  0  0.229645  0.648303  0  4.159322  0
C  C50  1  0.52447359  0.12193619  0.51741246  1  0  -0.057725  0  3.744437  0  0  -0.03403  0  3.970849  0  0  -0.039448  0  3.990848  0  0  -0.010882  -0.030231  0  3.956718  0
C  C51  1  0.47552597  0.87806769  0.48258513  1  0  -0.057891  0  3.744462  0  0  -0.034136  0  3.970861  0  0  -0.039555  0  3.990854  0  0  -0.010907  -0.030341  0  3.956739  0
C  C52  1  0.51688532  0.13989085  0.38370501  1  0  -0.082302  0  3.733727  0  0  -0.104918  0  3.981246  0  0  -0.105818  0  4.000862  0  0  -0.084998  -0.104164  0  3.968086  0
C  C53  1  0.48311356  0.86011451  0.61629367  1  0  -0.082261  0  3.733844  0  0  -0.104893  0  3.981366  0  0  -0.105783  0  4.000987  0  0  -0.084985  -0.104139  0  3.968209  0
C  C54  1  0.49145279  0.01856843  0.36685710  1  0  -0.078126  0  3.739823  0  0  -0.101435  0  3.988535  0  0  -0.102444  0  4.008518  0  0  -0.08413  -0.100418  0  3.974572  0
C  C55  1  0.50854545  0.98143643  0.63314050  1  0  -0.078172  0  3.739957  0  0  -0.101458  0  3.988657  0  0  -0.102475  0  4.008631  0  0  -0.084117  -0.100441  0  3.974693  0
C  C56  1  0.23603660  0.33249032  0.25193278  1  0  0.414588  0  3.795533  0  0  0.33912  0  4.09209  0  0  0.367382  0  4.092571  0  0  0.183201  0.320498  0  4.091224  0
C  C57  1  0.76396173  0.66750966  0.74806917  1  0  0.414554  0  3.795563  0  0  0.339107  0  4.092082  0  0  0.36738  0  4.092569  0  0  0.183221  0.320484  0  4.091216  0
C  C58  1  0.17124172  0.13883868  0.20496102  1  0  -0.185371  0  3.662286  0  0  -0.290289  0  3.916036  0  0  -0.287584  0  3.928375  0  0  -0.131681  -0.291837  0  3.907653  0
C  C59  1  0.82875569  0.86116132  0.79504310  1  0  -0.185339  0  3.662253  0  0  -0.290275  0  3.915989  0  0  -0.287569  0  3.928323  0  0  -0.131662  -0.291824  0  3.907607  0
C  C60  1  0.97235646  0.20421796  0.39796050  1  0  -0.161183  0  3.615219  0  0  -0.263399  0  3.862851  0  0  -0.258915  0  3.871601  0  0  -0.133789  -0.266038  0  3.856416  0
C  C61  1  0.02764108  0.79578250  0.60204037  1  0  -0.161204  0  3.61505  0  0  -0.26341  0  3.86268  0  0  -0.258927  0  3.871427  0  0  -0.133771  -0.266046  0  3.85624  0
N  N62  1  0.13038788  0.22962830  0.28177663  1  0  -0.088332  0  3.500671  0  0  0.018974  0  3.729522  0  0  -0.001762  0  3.755999  0  0  -0.275087  0.033115  0  3.71083  0
N  N63  1  0.86960992  0.77037218  0.71822641  1  0  -0.088192  0  3.500459  0  0  0.01908  0  3.729331  0  0  -0.001652  0  3.755795  0  0  -0.27505  0.033222  0  3.71064  0
O  O64  1  0.54444613  0.50271860  0.15094493  1  0  -0.678223  0  2.019392  0  0  -0.640443  0  2.267081  0  0  -0.666356  0  2.25804  0  0  -0.37465  -0.623356  0  2.273091  0
O  O65  1  0.45555536  0.49728036  0.84905268  1  0  -0.678223  0  2.019335  0  0  -0.640446  0  2.267032  0  0  -0.666359  0  2.257988  0  0  -0.374664  -0.623362  0  2.273043  0
O  O66  1  0.65167309  0.62882362  0.22558350  1  0  -0.697644  0  2.026387  0  0  -0.64711  0  2.255986  0  0  -0.673843  0  2.247912  0  0  -0.371752  -0.629396  0  2.261118  0
O  O67  1  0.34833057  0.37117777  0.77441084  1  0  -0.697709  0  2.026437  0  0  -0.64716  0  2.256024  0  0  -0.673895  0  2.247949  0  0  -0.371787  -0.629445  0  2.26115  0
O  O68  1  0.33086264  0.75585495  0.11846050  1  0  -0.675032  0  1.944232  0  0  -0.639713  0  2.174694  0  0  -0.664892  0  2.165789  0  0  -0.388491  -0.623096  0  2.180732  0
O  O69  1  0.66913903  0.24414747  0.88153817  1  0  -0.67513  0  1.944248  0  0  -0.639817  0  2.174714  0  0  -0.664997  0  2.165807  0  0  -0.388542  -0.6232  0  2.180755  0
O  O70  1  0.10415272  0.68913708  0.31124066  1  0  -0.691442  0  2.007311  0  0  -0.642139  0  2.239983  0  0  -0.668274  0  2.230714  0  0  -0.366852  -0.624868  0  2.246902  0
O  O71  1  0.89584736  0.31086041  0.68875804  1  0  -0.691485  0  2.007332  0  0  -0.642196  0  2.240006  0  0  -0.668332  0  2.230737  0  0  -0.366858  -0.624924  0  2.246926  0
O  O72  1  0.49518668  0.37485692  0.45953101  1  0  -0.776716  0  2.149397  0  0  -0.734568  0  2.411466  0  0  -0.763406  0  2.401699  0  0  -0.419292  -0.716221  0  2.419025  0
O  O73  1  0.50481392  0.62514650  0.54046984  1  0  -0.776786  0  2.149393  0  0  -0.734597  0  2.411457  0  0  -0.763446  0  2.401705  0  0  -0.419287  -0.71625  0  2.419024  0
O  O74  1  0.61758203  0.23676237  0.62867902  1  0  -0.69878  0  2.005369  0  0  -0.661577  0  2.249431  0  0  -0.688007  0  2.239672  0  0  -0.39421  -0.644728  0  2.255675  0
O  O75  1  0.38241847  0.76324004  0.37131966  1  0  -0.698789  0  2.005272  0  0  -0.661555  0  2.249347  0  0  -0.687985  0  2.23959  0  0  -0.394184  -0.644707  0  2.255595  0
O  O76  1  0.20725590  0.40648444  0.32273061  1  0  -0.62713  0  2.121375  0  0  -0.586978  0  2.390202  0  0  -0.612596  0  2.383921  0  0  -0.392448  -0.570505  0  2.394156  0
O  O77  1  0.79274220  0.59351407  0.67727244  1  0  -0.627112  0  2.121368  0  0  -0.586972  0  2.390195  0  0  -0.612588  0  2.38391  0  0  -0.392441  -0.570494  0  2.394146  0
O  O78  1  0.18668679  0.47060042  0.57167663  1  0  -0.906944  0  1.871187  0  0  -0.871912  0  2.066282  0  0  -0.892272  0  2.032856  0  0  -0.65256  -0.858756  0  2.088981  0
O  O79  1  0.81331358  0.52940153  0.42832531  1  0  -0.906998  0  1.87115  0  0  -0.871958  0  2.066267  0  0  -0.892302  0  2.032815  0  0  -0.652558  -0.858799  0  2.088965  0
