# generated using pymatgen
data_TmH7C11N3O7
_symmetry_space_group_name_H-M   'P 1'
_cell_length_a   8.21100063
_cell_length_b   11.45731905
_cell_length_c   14.52421678
_cell_angle_alpha   89.99990225
_cell_angle_beta   89.99996972
_cell_angle_gamma   91.90141506
_symmetry_Int_Tables_number   1
_chemical_formula_structural   TmH7C11N3O7
_chemical_formula_sum   'Tm4 H28 C44 N12 O28'
_cell_volume   1365.62866677
_cell_formula_units_Z   4
loop_
 _symmetry_equiv_pos_site_id
 _symmetry_equiv_pos_as_xyz
  1  'x, y, z'
loop_
 _atom_site_type_symbol
 _atom_site_label
 _atom_site_symmetry_multiplicity
 _atom_site_fract_x
 _atom_site_fract_y
 _atom_site_fract_z
 _atom_site_occupancy
 _atom_site_pbe_bader_charge
 _atom_site_pbe_bader_spin_density
 _atom_site_pbe_cm5_charge
 _atom_site_pbe_ddec_charge
 _atom_site_pbe_ddec_spin_density
 _atom_site_pbe_ddec_sum_bond_order
 _atom_site_pbe_magmom
Tm  Tm0  1  0.77386231  0.42829044  0.63092519  1  2.190995  0  1.530954  2.060041  0  2.169478  0
Tm  Tm1  1  0.22612588  0.07171336  0.13092677  1  2.190819  0  1.530971  2.059908  0  2.169676  0
Tm  Tm2  1  0.22612685  0.57171227  0.36907078  1  2.190784  0  1.531014  2.05999  0  2.169528  0
Tm  Tm3  1  0.77386812  0.92828851  0.86907332  1  2.190746  0  1.53098  2.060059  0  2.169421  0
H  H4  1  0.16697067  0.35344172  0.94447614  1  0.519945  0  0.349241  0.319162  0  0.874209  0
H  H5  1  0.83303771  0.14655544  0.44447676  1  0.519982  0  0.349212  0.31908  0  0.87425  0
H  H6  1  0.83303657  0.64655502  0.05552533  1  0.519993  0  0.349255  0.319145  0  0.874214  0
H  H7  1  0.16697072  0.85344043  0.55552265  1  0.519931  0  0.349256  0.319185  0  0.874232  0
H  H8  1  0.46903921  0.34582494  0.72803345  1  0.639339  0  0.284802  0.34687  0  1.019225  0
H  H9  1  0.53095980  0.15417698  0.22803415  1  0.639333  0  0.284807  0.346883  0  1.01922  0
H  H10  1  0.53096319  0.65417263  0.27196664  1  0.639471  0  0.284814  0.346871  0  1.019218  0
H  H11  1  0.46903783  0.84582404  0.77196526  1  0.639327  0  0.284817  0.346887  0  1.019204  0
H  H12  1  0.54660630  0.46816070  0.77492539  1  0.613779  0  0.31492  0.407576  0  0.896328  0
H  H13  1  0.45338538  0.03184194  0.27492352  1  0.613818  0  0.314911  0.407626  0  0.896276  0
H  H14  1  0.45339245  0.53183684  0.22507471  1  0.613754  0  0.314903  0.407548  0  0.89636  0
H  H15  1  0.54661109  0.96816082  0.72507520  1  0.61378  0  0.314895  0.407568  0  0.896347  0
H  H16  1  0.07648164  0.60688341  0.93937485  1  0.055645  0  0.108665  0.115985  0  1.008724  0
H  H17  1  0.92352043  0.89311290  0.43937649  1  0.055641  0  0.108685  0.115981  0  1.008812  0
H  H18  1  0.92352203  0.39311592  0.06062731  1  0.055677  0  0.10865  0.115988  0  1.008735  0
H  H19  1  0.07648064  0.10688117  0.56062292  1  0.055562  0  0.108643  0.115953  0  1.008789  0
H  H20  1  0.24276075  0.78968910  0.91626640  1  0.102791  0  0.123068  0.102591  0  0.99922  0
H  H21  1  0.75724137  0.71030814  0.41626695  1  0.102743  0  0.123099  0.102614  0  0.999186  0
H  H22  1  0.75724416  0.21031111  0.08373645  1  0.102432  0  0.123046  0.102568  0  0.999213  0
H  H23  1  0.24275732  0.28968765  0.58373039  1  0.102749  0  0.123093  0.102683  0  0.999114  0
H  H24  1  0.41577258  0.67505803  0.66473344  1  0.092664  0  0.124929  0.103057  0  0.973473  0
H  H25  1  0.58422618  0.82494061  0.16473664  1  0.092826  0  0.12491  0.10304  0  0.973577  0
H  H26  1  0.58422630  0.32494388  0.33526597  1  0.092378  0  0.124921  0.103069  0  0.973515  0
H  H27  1  0.41577137  0.17505780  0.83526345  1  0.092488  0  0.124876  0.102984  0  0.973528  0
H  H28  1  0.25437713  0.48622250  0.67732015  1  0.126251  0  0.120552  0.132206  0  0.994731  0
H  H29  1  0.74562539  0.01377345  0.17731960  1  0.126297  0  0.120567  0.132233  0  0.994763  0
H  H30  1  0.74562895  0.51377597  0.32268270  1  0.126268  0  0.120525  0.132202  0  0.994755  0
H  H31  1  0.25437214  0.98622408  0.82268050  1  0.126264  0  0.120559  0.132223  0  0.994757  0
C  C32  1  0.80703859  0.18241718  0.73610348  1  1.648336  0  0.222231  0.623499  0  4.216704  0
C  C33  1  0.19296528  0.31758477  0.23610130  1  1.648288  0  0.222226  0.623458  0  4.216702  0
C  C34  1  0.19296035  0.81758647  0.26389937  1  1.648513  0  0.222232  0.623431  0  4.216898  0
C  C35  1  0.80704207  0.68241546  0.76389879  1  1.648346  0  0.22221  0.623402  0  4.216906  0
C  C36  1  0.92194755  0.25744596  0.79165477  1  0.387622  0  0.093929  0.017807  0  3.971245  0
C  C37  1  0.07805499  0.24255410  0.29165617  1  0.387656  0  0.094006  0.017978  0  3.97132  0
C  C38  1  0.07804898  0.74255854  0.20834739  1  0.387368  0  0.094018  0.017949  0  3.971418  0
C  C39  1  0.92195106  0.75744350  0.70834599  1  0.387617  0  0.094003  0.01789  0  3.971359  0
C  C40  1  0.00243283  0.24053332  0.87455095  1  0.423488  0  0.097425  0.014109  0  3.890318  0
C  C41  1  0.99757454  0.25946835  0.37455137  1  0.423649  0  0.097376  0.013977  0  3.890507  0
C  C42  1  0.99756123  0.75947029  0.12545189  1  0.423464  0  0.097354  0.013982  0  3.890568  0
C  C43  1  0.00243395  0.74052927  0.62545010  1  0.423652  0  0.097344  0.014002  0  3.890536  0
C  C44  1  0.06326123  0.41852490  0.81942221  1  0.984712  0  0.239123  0.328628  0  3.973298  0
C  C45  1  0.93674125  0.08147424  0.31942288  1  0.984691  0  0.239129  0.328559  0  3.973253  0
C  C46  1  0.93674244  0.58147443  0.18057995  1  0.984722  0  0.239075  0.328455  0  3.973217  0
C  C47  1  0.06326478  0.91852249  0.68057652  1  0.98508  0  0.239132  0.328586  0  3.973303  0
C  C48  1  0.15296205  0.53088261  0.80979613  1  0.046915  0  0.016169  0.048622  0  4.004313  0
C  C49  1  0.84704264  0.96911576  0.30979631  1  -4e-06  0  0.016119  0.04863  0  4.0042  0
C  C50  1  0.84704403  0.46911586  0.19020603  1  0.046991  0  0.016181  0.048753  0  4.004304  0
C  C51  1  0.15296704  0.03088100  0.69020103  1  0.046683  0  0.016187  0.048694  0  4.004346  0
C  C52  1  0.15102439  0.61747951  0.87777151  1  -0.014534  0  -0.07666  -0.156986  0  3.931172  0
C  C53  1  0.84897897  0.88251695  0.37777181  1  0.032536  0  -0.076649  -0.156926  0  3.931128  0
C  C54  1  0.84898172  0.38251984  0.12223065  1  -0.014542  0  -0.076629  -0.156999  0  3.931163  0
C  C55  1  0.15102820  0.11747717  0.62222553  1  -0.014542  0  -0.07669  -0.15703  0  3.93141  0
C  C56  1  0.24226128  0.72087470  0.86437242  1  0.53184  0  0.060191  0.110148  0  3.915352  0
C  C57  1  0.75774211  0.77912266  0.36437358  1  0.531805  0  0.060184  0.110115  0  3.915271  0
C  C58  1  0.75774242  0.27912550  0.13562905  1  0.532232  0  0.060194  0.110136  0  3.915234  0
C  C59  1  0.24226142  0.22087230  0.63562376  1  0.531809  0  0.060191  0.110097  0  3.915309  0
C  C60  1  0.33750544  0.65675436  0.72415766  1  0.491446  0  0.051785  0.086436  0  3.937227  0
C  C61  1  0.66249320  0.84324240  0.22415876  1  0.491331  0  0.051839  0.086509  0  3.937051  0
C  C62  1  0.66249460  0.34324581  0.27584381  1  0.491708  0  0.051811  0.086453  0  3.937172  0
C  C63  1  0.33750917  0.15675430  0.77583858  1  0.491716  0  0.051937  0.086641  0  3.937155  0
C  C64  1  0.24929320  0.55144667  0.73143043  1  -0.037239  0  -0.073362  -0.148758  0  3.948665  0
C  C65  1  0.75070914  0.94855185  0.23143067  1  -0.037207  0  -0.073385  -0.148825  0  3.948487  0
C  C66  1  0.75071169  0.44855267  0.26857104  1  -0.037227  0  -0.073366  -0.148814  0  3.948571  0
C  C67  1  0.24929445  0.05144486  0.76856736  1  -0.037205  0  -0.073385  -0.148814  0  3.948607  0
C  C68  1  0.03695582  0.13899568  0.93387745  1  1.670431  0  0.23574  0.636391  0  4.221332  0
C  C69  1  0.96304524  0.36100057  0.43387775  1  1.669849  0  0.235668  0.636134  0  4.221414  0
C  C70  1  0.96303681  0.86100094  0.06612402  1  1.670078  0  0.235668  0.636263  0  4.22132  0
C  C71  1  0.03696065  0.63899179  0.56612648  1  1.670007  0  0.235612  0.636182  0  4.22161  0
C  C72  1  0.46576537  0.43630967  0.49922449  1  1.582654  0  0.199622  0.476541  0  4.28755  0
C  C73  1  0.53421523  0.06369676  0.99923104  1  1.561473  0  0.199402  0.476166  0  4.287986  0
C  C74  1  0.53420557  0.56369464  0.50076665  1  1.56069  0  0.199372  0.47621  0  4.288231  0
C  C75  1  0.46576689  0.93631462  0.00076905  1  1.582705  0  0.199675  0.476687  0  4.287483  0
N  N76  1  0.96136023  0.36779299  0.75856100  1  -1.195686  0  -0.385921  -0.464039  0  3.413257  0
N  N77  1  0.03864240  0.13220890  0.25856049  1  -1.195773  0  -0.385972  -0.46413  0  3.413468  0
N  N78  1  0.03864358  0.63221070  0.24144116  1  -1.195817  0  -0.38592  -0.464025  0  3.413495  0
N  N79  1  0.96136495  0.86779133  0.74143891  1  -1.195703  0  -0.385949  -0.464054  0  3.413473  0
N  N80  1  0.08667539  0.34445214  0.89117346  1  -1.26792  0  -0.361658  -0.273524  0  3.618929  0
N  N81  1  0.91332826  0.15554771  0.39117335  1  -1.267884  0  -0.361619  -0.27334  0  3.61891  0
N  N82  1  0.91332349  0.65554976  0.10882939  1  -1.267924  0  -0.361652  -0.273409  0  3.6188  0
N  N83  1  0.08667777  0.84444901  0.60882605  1  -1.268119  0  -0.36166  -0.273504  0  3.618923  0
N  N84  1  0.33340594  0.74051960  0.78880963  1  -1.209111  0  -0.29781  -0.218454  0  3.394058  0
N  N85  1  0.66659507  0.75947703  0.28881152  1  -1.209131  0  -0.297835  -0.218492  0  3.393845  0
N  N86  1  0.66659529  0.25947970  0.21119115  1  -1.209075  0  -0.297815  -0.218456  0  3.393997  0
N  N87  1  0.33340847  0.24051793  0.71118650  1  -1.209066  0  -0.297892  -0.218579  0  3.394034  0
O  O88  1  0.75748512  0.22856896  0.66209052  1  -1.173429  0  -0.390727  -0.624066  0  2.24696  0
O  O89  1  0.24251398  0.27143398  0.16208701  1  -1.173422  0  -0.390729  -0.624023  0  2.247025  0
O  O90  1  0.24251140  0.77143555  0.33791233  1  -1.173376  0  -0.390722  -0.624053  0  2.247117  0
O  O91  1  0.75749332  0.72856450  0.83791309  1  -1.173358  0  -0.39071  -0.624004  0  2.247074  0
O  O92  1  0.76570544  0.08049712  0.76280379  1  -1.205897  0  -0.390243  -0.656954  0  2.34789  0
O  O93  1  0.23430084  0.41950479  0.26280009  1  -1.205839  0  -0.390259  -0.656978  0  2.347937  0
O  O94  1  0.23429956  0.91950571  0.23719906  1  -1.205889  0  -0.390238  -0.656924  0  2.347862  0
O  O95  1  0.76570535  0.58049718  0.73719657  1  -1.205911  0  -0.390225  -0.656926  0  2.347963  0
O  O96  1  0.99635416  0.03758550  0.90655129  1  -1.191034  0  -0.401233  -0.669411  0  2.423139  0
O  O97  1  0.00364100  0.46241600  0.40655242  1  -1.191099  0  -0.401196  -0.66929  0  2.423074  0
O  O98  1  0.00363373  0.96241545  0.09344742  1  -1.191075  0  -0.401146  -0.669292  0  2.422991  0
O  O99  1  0.99635292  0.53758325  0.59345180  1  -1.191144  0  -0.401202  -0.669295  0  2.423206  0
O  O100  1  0.11908895  0.16453144  0.00569725  1  -1.188195  0  -0.391709  -0.652233  0  2.3074  0
O  O101  1  0.88091015  0.33546660  0.50569989  1  -1.187886  0  -0.391666  -0.652089  0  2.307274  0
O  O102  1  0.88090728  0.83546346  0.99430077  1  -1.187918  0  -0.391691  -0.652151  0  2.307139  0
O  O103  1  0.11910178  0.66452406  0.49430777  1  -1.187761  0  -0.391594  -0.652093  0  2.307367  0
O  O104  1  0.54401346  0.36209571  0.54390990  1  -1.161741  0  -0.366374  -0.583854  0  2.302622  0
O  O105  1  0.45597504  0.13791526  0.04391546  1  -1.161669  0  -0.366076  -0.583425  0  2.303015  0
O  O106  1  0.45596492  0.63791302  0.45608468  1  -1.161634  0  -0.366049  -0.58342  0  2.303182  0
O  O107  1  0.54401447  0.86209879  0.95608532  1  -1.161747  0  -0.366386  -0.583848  0  2.30261  0
O  O108  1  0.33600415  0.41787685  0.45299415  1  -1.18986  0  -0.381437  -0.620001  0  2.303569  0
O  O109  1  0.66398487  0.08212450  0.95300270  1  -1.190237  0  -0.381526  -0.620101  0  2.30349  0
O  O110  1  0.66397031  0.58212311  0.54699768  1  -1.190016  0  -0.381534  -0.620108  0  2.30357  0
O  O111  1  0.33600204  0.91788430  0.04699739  1  -1.190433  0  -0.381476  -0.62011  0  2.303652  0
O  O112  1  0.56973276  0.39942867  0.73860953  1  -1.263059  0  -0.656229  -0.861355  0  2.197827  0
O  O113  1  0.43026030  0.10057842  0.23861239  1  -1.263045  0  -0.656238  -0.86142  0  2.19773  0
O  O114  1  0.43026847  0.60057063  0.26139057  1  -1.263162  0  -0.656235  -0.861347  0  2.197825  0
O  O115  1  0.56973498  0.89942521  0.76138908  1  -1.263036  0  -0.656222  -0.861374  0  2.197799  0
