# generated using pymatgen
data_CuP2H14C18(NO3)2
_symmetry_space_group_name_H-M   'P 1'
_cell_length_a   8.60380616
_cell_length_b   8.97656606
_cell_length_c   12.14365330
_cell_angle_alpha   99.72983901
_cell_angle_beta   106.80590055
_cell_angle_gamma   98.27972991
_symmetry_Int_Tables_number   1
_chemical_formula_structural   CuP2H14C18(NO3)2
_chemical_formula_sum   'Cu2 P4 H28 C36 N4 O12'
_cell_volume   866.22857441
_cell_formula_units_Z   2
loop_
 _symmetry_equiv_pos_site_id
 _symmetry_equiv_pos_as_xyz
  1  'x, y, z'
loop_
 _atom_site_type_symbol
 _atom_site_label
 _atom_site_symmetry_multiplicity
 _atom_site_fract_x
 _atom_site_fract_y
 _atom_site_fract_z
 _atom_site_occupancy
 _atom_site_hle17_ddec_charge
 _atom_site_hle17_ddec_spin_density
 _atom_site_hle17_ddec_sum_bond_order
 _atom_site_hle17_magmom
 _atom_site_hse06_10hf_ddec_charge
 _atom_site_hse06_10hf_ddec_spin_density
 _atom_site_hse06_10hf_ddec_sum_bond_order
 _atom_site_hse06_10hf_magmom
 _atom_site_hse06_ddec_charge
 _atom_site_hse06_ddec_spin_density
 _atom_site_hse06_ddec_sum_bond_order
 _atom_site_hse06_magmom
 _atom_site_pbe_cm5_charge
 _atom_site_pbe_ddec_charge
 _atom_site_pbe_ddec_spin_density
 _atom_site_pbe_ddec_sum_bond_order
 _atom_site_pbe_magmom
Cu  Cu0  1  0.32538344  0.82115240  0.58418872  1  0.947909  -0.742628  1.80373  -0.533  0.927082  -0.819851  2.197882  -0.647  1.009406  -0.892497  2.132803  -0.728  0.775649  0.87391  -0.761452  2.245417  -0.588
Cu  Cu1  1  0.67461440  0.17885162  0.41581369  1  0.947909  0.742625  1.803751  0.533  0.927101  0.819847  2.197944  0.647  1.00942  0.892485  2.132893  0.728  0.775634  0.87394  0.761448  2.245457  0.588
P  P2  1  0.32676556  0.04795341  0.85562249  1  1.459652  9.4e-05  4.844273  0.0  1.300666  7.3e-05  5.343563  0.0  1.352264  8.9e-05  5.301684  0.0  0.354099  1.264814  3.6e-05  5.370861  0.0
P  P3  1  0.67324300  0.95205524  0.14438268  1  1.459534  -9.6e-05  4.844635  0.0  1.300513  -7.1e-05  5.343923  0.0  1.352134  -8.7e-05  5.302062  0.0  0.354028  1.264648  -3.6e-05  5.371215  0.0
P  P4  1  0.66196376  0.05183446  0.64705169  1  1.460726  0.001467  4.793774  0.002  1.318152  1.4e-05  5.288676  0.002  1.373862  0.000103  5.250105  0.001  0.359166  1.279021  -6.9e-05  5.314248  0.002
P  P5  1  0.33803912  0.94816495  0.35294623  1  1.46069  -0.001472  4.793542  -0.002  1.318057  -1.6e-05  5.288608  -0.002  1.373763  -0.000102  5.250048  -0.001  0.359152  1.278928  6.9e-05  5.314171  -0.002
H  H6  1  0.41510752  0.86617478  0.95666015  1  0.446634  0.0  0.863002  0.0  0.410605  2e-06  0.933974  0.0  0.422967  2e-06  0.916571  0.0  0.299463  0.401894  4e-06  0.946195  0.0
H  H7  1  0.58490469  0.13383387  0.04334742  1  0.446625  -0.0  0.862992  0.0  0.410587  -2e-06  0.933981  0.0  0.422951  -2e-06  0.916575  0.0  0.299467  0.401877  -4e-06  0.946202  0.0
H  H8  1  0.45686167  0.12607998  0.70034511  1  0.433392  3.5e-05  0.879988  0.0  0.398321  1.9e-05  0.951166  0.0  0.410317  1.8e-05  0.934143  0.0  0.300104  0.38996  1.2e-05  0.962936  0.0
H  H9  1  0.54315001  0.87392637  0.29965383  1  0.433318  -3.5e-05  0.880094  0.0  0.39833  -1.9e-05  0.951153  0.0  0.410327  -1.9e-05  0.934127  0.0  0.300114  0.389966  -1.2e-05  0.962925  0.0
H  H10  1  0.99780865  0.99973877  0.68467928  1  0.089708  0.00022  0.973395  0.0  0.099454  0.000113  1.040121  0.0  0.102023  8.8e-05  1.038904  0.0  0.100399  0.097778  0.000138  1.040385  0.0
H  H11  1  0.00219789  0.00026064  0.31532433  1  0.089694  -0.000219  0.973372  0.0  0.099433  -0.000113  1.04012  0.0  0.102004  -8.8e-05  1.038901  0.0  0.100404  0.097757  -0.000138  1.040385  0.0
H  H12  1  0.71592388  0.18672768  0.89660278  1  0.103827  1.3e-05  0.968732  0.0  0.112399  -2.3e-05  1.031059  0.0  0.115953  -1.3e-05  1.028425  0.0  0.103106  0.109669  -4.7e-05  1.033192  0.0
H  H13  1  0.28407805  0.81327289  0.10339674  1  0.103813  -1.2e-05  0.968731  0.0  0.112388  2.3e-05  1.031055  0.0  0.115945  1.3e-05  1.028419  0.0  0.103096  0.109657  4.7e-05  1.033187  0.0
H  H14  1  0.96631794  0.24949238  0.07320544  1  0.091815  2.5e-05  0.959412  0.0  0.101279  3.6e-05  1.019936  0.0  0.103639  2.3e-05  1.020437  0.0  0.096615  0.099524  4.4e-05  1.0201  0.0
H  H15  1  0.03368257  0.75051280  0.92679602  1  0.091854  -2.6e-05  0.95932  0.0  0.101274  -3.6e-05  1.019899  0.0  0.103637  -2.3e-05  1.020393  0.0  0.096621  0.099518  -4.4e-05  1.020061  0.0
H  H16  1  0.23501896  0.19154326  0.05529392  1  0.083896  8e-05  0.964521  0.0  0.093891  -6e-06  1.0303  0.0  0.096244  -3e-06  1.02955  0.0  0.100058  0.092181  -1e-05  1.030934  0.0
H  H17  1  0.76497816  0.80846308  0.94470700  1  0.083889  -8.2e-05  0.96443  0.0  0.093908  6e-06  1.030206  0.0  0.096266  3e-06  1.029448  0.0  0.100052  0.092197  1e-05  1.030843  0.0
H  H18  1  0.97396873  0.85374426  0.43356885  1  0.099097  -0.001535  0.941685  -0.003  0.106597  -0.001199  1.00565  -0.002  0.108236  -0.000835  1.003882  -0.002  0.125004  0.105787  -0.001507  1.005596  -0.003
H  H19  1  0.02602440  0.14624938  0.56642966  1  0.099086  0.001537  0.941678  0.003  0.106564  0.001199  1.005645  0.002  0.108203  0.000835  1.003876  0.002  0.124988  0.105754  0.001507  1.005587  0.003
H  H20  1  0.68592840  0.75621628  0.43589292  1  0.133416  -0.000538  0.949871  -0.001  0.143237  -0.000484  1.004948  -0.001  0.146181  -0.00034  1.004298  0.0  0.116227  0.140895  -0.000595  1.005713  -0.001
H  H21  1  0.31406321  0.24377043  0.56410111  1  0.133459  0.000537  0.949755  0.001  0.143262  0.000484  1.004874  0.001  0.146208  0.00034  1.004223  0.0  0.116212  0.140921  0.000595  1.00564  0.001
H  H22  1  0.64551758  0.57496578  0.56457226  1  0.097641  -0.000332  0.936217  -0.001  0.110715  -7.2e-05  0.995952  0.0  0.112666  -2.5e-05  0.994396  0.0  0.11219  0.109062  -0.000124  0.997593  0.0
H  H23  1  0.35447181  0.42501631  0.43541992  1  0.097623  0.000334  0.936269  0.001  0.110639  7.2e-05  0.996083  0.0  0.112587  2.5e-05  0.994522  0.0  0.112145  0.108985  0.000124  0.997725  0.0
H  H24  1  0.78236361  0.42692170  0.72061421  1  0.108719  -0.000404  0.952002  0.0  0.118893  -0.000305  1.014421  0.0  0.121341  -0.0002  1.014071  0.0  0.10753  0.117181  -0.000408  1.014571  0.0
H  H25  1  0.21763259  0.57306386  0.27937732  1  0.108717  0.000404  0.952  0.0  0.118846  0.000306  1.01446  0.0  0.121293  0.0002  1.014113  0.0  0.107542  0.117136  0.000408  1.014603  0.0
H  H26  1  0.03815445  0.36812974  0.84443796  1  0.092907  -0.000376  1.003519  0.0  0.102399  -0.000244  1.066694  0.0  0.102975  -0.000147  1.070168  0.0  0.099699  0.101663  -0.000335  1.064749  0.0
H  H27  1  0.96184283  0.63186620  0.15556086  1  0.092905  0.000375  1.003448  0.0  0.1024  0.000244  1.066628  0.0  0.102976  0.000147  1.070102  0.0  0.099698  0.101663  0.000335  1.064685  0.0
H  H28  1  0.35637838  0.38715506  0.89771546  1  0.111517  -0.000279  0.959542  0.0  0.118948  -2.5e-05  1.024493  0.0  0.121474  8e-06  1.022855  0.0  0.112786  0.116958  -7.1e-05  1.02569  0.0
H  H29  1  0.64362330  0.61284435  0.10228963  1  0.111561  0.000277  0.959522  0.0  0.11897  2.5e-05  1.024483  0.0  0.121497  -8e-06  1.022842  0.0  0.11281  0.116979  7.1e-05  1.02568  0.0
H  H30  1  0.61823461  0.50722651  0.87176457  1  0.10955  -0.000547  0.930143  -0.001  0.123757  -0.000495  0.981591  -0.001  0.126329  -0.000357  0.981741  0.0  0.116358  0.121702  -0.000638  0.982129  -0.001
H  H31  1  0.38176591  0.49277867  0.12823853  1  0.109565  0.000546  0.930121  0.001  0.123782  0.000495  0.981554  0.001  0.126353  0.000357  0.981704  0.0  0.116367  0.121727  0.000638  0.98209  0.001
H  H32  1  0.61008198  0.69565921  0.73758249  1  0.091781  -0.001339  0.941889  -0.003  0.101715  -0.001057  1.001714  -0.002  0.103503  -0.000713  0.999818  -0.001  0.122694  0.100127  -0.001358  1.003343  -0.002
H  H33  1  0.38991464  0.30434482  0.26241968  1  0.091782  0.001338  0.941896  0.003  0.101724  0.001057  1.001703  0.002  0.103509  0.000713  0.999808  0.001  0.122701  0.10014  0.001358  1.003335  0.002
C  C34  1  0.13308588  0.09174161  0.86871548  1  -0.250048  0.001197  3.777798  0.001  -0.20518  0.000184  4.020756  0.0  -0.216152  0.000271  4.043089  0.0  -0.028603  -0.197958  0.000119  4.005161  0.0
C  C35  1  0.86691802  0.90826242  0.13128735  1  -0.250096  -0.001169  3.77789  -0.001  -0.205038  -0.000187  4.020608  0.0  -0.216092  -0.000268  4.043066  0.0  -0.028538  -0.197769  -0.000119  4.004941  0.0
C  C36  1  0.99016261  0.05318325  0.76991133  1  -0.017959  -0.00266  3.747477  -0.003  -0.053292  -0.000908  3.989043  -0.001  -0.050614  -0.0007  4.010244  -0.001  -0.077814  -0.053977  -0.001123  3.972838  -0.001
C  C37  1  0.00984079  0.94681847  0.23009029  1  -0.018039  0.002629  3.747374  0.003  -0.053424  0.000908  3.988937  0.001  -0.050723  0.000699  4.010147  0.001  -0.077929  -0.054121  0.001123  3.972718  0.001
C  C38  1  0.83982689  0.08768131  0.77873479  1  -0.248274  -0.0006  3.765118  -0.001  -0.20344  0.000408  4.001654  0.0  -0.215212  0.000596  4.023982  0.001  -0.026317  -0.195801  0.000223  3.98627  0.0
C  C39  1  0.16017529  0.91232041  0.22126327  1  -0.248087  0.000626  3.76464  0.001  -0.203277  -0.000408  4.001247  0.0  -0.215041  -0.000595  4.023569  -0.001  -0.026276  -0.195641  -0.000223  3.985863  0.0
C  C40  1  0.83210143  0.15889758  0.88868326  1  -0.033453  -0.001837  3.715056  -0.002  -0.057928  -0.000485  3.957365  0.0  -0.056477  -0.000415  3.976391  0.0  -0.080295  -0.058732  -0.000563  3.94497  0.0
C  C41  1  0.16789878  0.84110068  0.11131562  1  -0.033488  0.001808  3.714997  0.001  -0.057957  0.000484  3.957309  0.0  -0.05651  0.000415  3.976331  0.0  -0.080271  -0.05876  0.000563  3.944913  0.0
C  C42  1  0.97412702  0.19576486  0.98804938  1  -0.07149  0.001473  3.74571  0.002  -0.080278  0.000331  3.997075  0.0  -0.083508  0.000365  4.018026  0.0  -0.092123  -0.078499  0.000292  3.983715  0.0
C  C43  1  0.02587153  0.80423685  0.01195289  1  -0.071454  -0.001442  3.745649  -0.001  -0.080211  -0.00033  3.997047  0.0  -0.083437  -0.000365  4.01799  0.0  -0.092107  -0.078434  -0.000292  3.983693  0.0
C  C44  1  0.12389942  0.16321993  0.97814392  1  -0.039592  -0.003857  3.758022  -0.003  -0.066802  -0.001012  4.006741  -0.001  -0.066001  -0.000754  4.028156  -0.001  -0.081161  -0.066977  -0.001327  3.99235  -0.001
C  C45  1  0.87610009  0.83678063  0.02185922  1  -0.039567  0.003827  3.757897  0.003  -0.066865  0.001011  4.006602  0.001  -0.066045  0.000753  4.028044  0.001  -0.081154  -0.067053  0.001327  3.992201  0.001
C  C46  1  0.95159395  0.77615330  0.48971780  1  0.159257  0.007064  3.631861  0.008  0.128507  0.001025  3.894861  0.002  0.140172  0.002167  3.910108  0.004  0.066359  0.12085  0.000177  3.883363  0.001
C  C47  1  0.04839649  0.22383918  0.51027919  1  0.159303  -0.007111  3.631936  -0.008  0.128629  -0.001026  3.894854  -0.002  0.14029  -0.002167  3.910115  -0.004  0.066384  0.120973  -0.000178  3.883357  -0.001
C  C48  1  0.79096683  0.71922530  0.49060682  1  -0.091022  -0.010037  3.668404  -0.011  -0.105348  -0.004781  3.920821  -0.006  -0.11116  -0.004089  3.939387  -0.005  -0.07368  -0.101581  -0.005362  3.908606  -0.006
C  C49  1  0.20902407  0.28076372  0.50938571  1  -0.091035  0.010093  3.668457  0.011  -0.105424  0.00478  3.920909  0.006  -0.111239  0.004089  3.939477  0.005  -0.073637  -0.101656  0.005362  3.908692  0.006
C  C50  1  0.76933156  0.62000485  0.56306934  1  -0.03586  0.008296  3.662706  0.008  -0.065483  0.002887  3.920532  0.003  -0.061836  0.003081  3.935982  0.003  -0.059433  -0.068765  0.002889  3.910944  0.003
C  C51  1  0.23066294  0.37997839  0.43692649  1  -0.03587  -0.008354  3.662784  -0.008  -0.065414  -0.002887  3.920609  -0.003  -0.061764  -0.003079  3.936055  -0.003  -0.059404  -0.068696  -0.002888  3.911017  -0.003
C  C52  1  0.90858950  0.57782980  0.63617426  1  0.026783  -0.005135  3.789429  -0.006  0.040949  -0.00263  4.024968  -0.003  0.038824  -0.002205  4.048723  -0.003  -0.00174  0.042335  -0.002994  4.009096  -0.003
C  C53  1  0.09140727  0.42216383  0.36382170  1  0.026812  0.005171  3.789291  0.006  0.040945  0.002631  4.024855  0.003  0.038821  0.002203  4.048595  0.003  -0.001766  0.04233  0.002994  4.008979  0.003
C  C54  1  0.06521767  0.64051606  0.62917882  1  0.126266  0.001354  3.764382  0.002  0.121559  -0.00077  4.002921  0.0  0.126722  0.000166  4.02525  0.001  0.114694  0.117962  -0.001509  3.987736  -0.001
C  C55  1  0.93477986  0.35948104  0.37081854  1  0.126414  -0.001386  3.764298  -0.002  0.121647  0.00077  4.002838  0.0  0.126823  -0.000165  4.025146  -0.001  0.114752  0.118051  0.00151  3.987649  0.001
C  C56  1  0.90277680  0.47797714  0.71608157  1  -0.100831  -0.001059  3.713966  -0.001  -0.124914  -0.000738  3.971493  -0.001  -0.129406  -0.000559  3.994256  0.0  -0.079986  -0.122027  -0.000882  3.956086  -0.001
C  C57  1  0.09722047  0.52201881  0.28391477  1  -0.100874  0.00102  3.713955  0.001  -0.124906  0.00074  3.971487  0.001  -0.129399  0.000561  3.994249  0.0  -0.080004  -0.122017  0.000882  3.956075  0.001
C  C58  1  0.04453556  0.44340532  0.78376746  1  -0.085507  -0.00162  3.713766  -0.001  -0.105766  -0.00081  3.960339  -0.001  -0.107685  -0.000704  3.984366  -0.001  -0.075963  -0.104214  -0.000922  3.944057  -0.001
C  C59  1  0.95545929  0.55659062  0.21623169  1  -0.08547  0.001664  3.713797  0.002  -0.10573  0.000807  3.960328  0.001  -0.107648  0.000703  3.984356  0.001  -0.075932  -0.104181  0.000922  3.944047  0.001
C  C60  1  0.20379560  0.50255725  0.77586937  1  0.039088  -0.004378  3.760989  -0.005  0.056995  -0.002202  3.985469  -0.003  0.053615  -0.001752  4.007863  -0.002  0.007387  0.058603  -0.002569  3.9708  -0.003
C  C61  1  0.79620345  0.49744678  0.22413411  1  0.039056  0.004367  3.761201  0.005  0.056939  0.002205  3.985608  0.003  0.053557  0.00175  4.008005  0.002  0.007367  0.058548  0.002569  3.97094  0.003
C  C62  1  0.21236545  0.60222106  0.69838906  1  0.137068  0.000753  3.789822  0.001  0.130608  -0.00113  4.029744  -0.001  0.136998  -0.000226  4.051322  0.001  0.117781  0.126644  -0.001793  4.015271  -0.001
C  C63  1  0.78763189  0.39778066  0.30161379  1  0.136934  -0.00074  3.789984  -0.001  0.130655  0.001129  4.029745  0.001  0.137038  0.000227  4.051323  -0.001  0.117745  0.126691  0.001792  4.015274  0.001
C  C64  1  0.35437002  0.46709870  0.83911230  1  -0.01207  0.006882  3.601439  0.006  -0.036028  0.002379  3.843636  0.002  -0.030443  0.002578  3.858302  0.003  -0.047326  -0.039923  0.002298  3.83402  0.002
C  C65  1  0.64562974  0.53290301  0.16089187  1  -0.012088  -0.006879  3.601521  -0.006  -0.036027  -0.002379  3.843725  -0.002  -0.030445  -0.002576  3.858395  -0.003  -0.047334  -0.039921  -0.002298  3.83411  -0.002
C  C66  1  0.50055922  0.53297518  0.82430739  1  -0.093222  -0.008704  3.689926  -0.01  -0.109445  -0.00411  3.947038  -0.005  -0.117071  -0.003451  3.966118  -0.004  -0.071702  -0.104931  -0.004654  3.934876  -0.006
C  C67  1  0.49944129  0.46703000  0.17569489  1  -0.093274  0.008706  3.689996  0.01  -0.109495  0.004111  3.947097  0.005  -0.117121  0.00345  3.966175  0.004  -0.071727  -0.10498  0.004654  3.934936  0.006
C  C68  1  0.49798619  0.63530506  0.74842016  1  0.150991  0.005983  3.660935  0.007  0.12065  0.00057  3.923194  0.002  0.132676  0.001626  3.938636  0.003  0.063116  0.112652  -0.000298  3.913179  0.001
C  C69  1  0.50201068  0.36470012  0.25158138  1  0.150951  -0.005982  3.660855  -0.007  0.120646  -0.000572  3.923145  -0.002  0.132677  -0.001626  3.938583  -0.003  0.063102  0.11264  0.000298  3.913141  -0.001
N  N70  1  0.08465554  0.73757635  0.55751634  1  -0.326581  -0.081357  3.332629  -0.101  -0.289432  -0.058195  3.635357  -0.077  -0.319574  -0.048006  3.656534  -0.067  -0.336758  -0.270709  -0.063976  3.621894  -0.082
N  N71  1  0.91534274  0.26242421  0.44248327  1  -0.326704  0.081399  3.332844  0.101  -0.289535  0.058195  3.635535  0.077  -0.319681  0.048008  3.656714  0.067  -0.336784  -0.270814  0.063976  3.622074  0.082
N  N72  1  0.35685790  0.66698434  0.68598936  1  -0.331589  -0.079144  3.362672  -0.099  -0.29691  -0.055488  3.671578  -0.074  -0.32691  -0.045612  3.690833  -0.064  -0.342225  -0.278547  -0.060959  3.659766  -0.079
N  N73  1  0.64313897  0.33302084  0.31401218  1  -0.331458  0.079141  3.362519  0.099  -0.296954  0.055488  3.67153  0.074  -0.326957  0.045613  3.690794  0.064  -0.34221  -0.27859  0.060958  3.659722  0.079
O  O74  1  0.31802353  0.04164848  0.72682872  1  -0.857235  0.000196  1.991403  -0.001  -0.787428  0.000201  2.258154  -0.001  -0.815536  0.000527  2.236379  0.0  -0.377951  -0.768005  -8.4e-05  2.27202  -0.001
O  O75  1  0.68198331  0.95835787  0.27317500  1  -0.857204  -0.000197  1.991527  0.001  -0.787439  -0.000201  2.258279  0.001  -0.815543  -0.00053  2.236494  0.0  -0.377977  -0.768021  8.4e-05  2.272148  0.001
O  O76  1  0.32438511  0.88198877  0.88155192  1  -0.773896  -2.5e-05  2.048405  0.0  -0.700066  7.4e-05  2.281779  0.0  -0.72391  9.2e-05  2.260708  0.0  -0.387293  -0.682529  5.6e-05  2.295638  0.0
O  O77  1  0.67562805  0.11801873  0.11845241  1  -0.773775  2.8e-05  2.048462  0.0  -0.699971  -7.4e-05  2.281891  0.0  -0.72379  -9.2e-05  2.260762  0.0  -0.387246  -0.682434  -5.6e-05  2.295752  0.0
O  O78  1  0.46932111  0.16849526  0.94634080  1  -0.840419  -0.000109  1.95333  0.0  -0.761369  -4.7e-05  2.188996  0.0  -0.786413  -1.2e-05  2.169599  0.0  -0.37667  -0.742815  -0.000123  2.201462  0.0
O  O79  1  0.53068285  0.83151455  0.05366523  1  -0.840404  0.00011  1.953486  0.0  -0.761371  4.8e-05  2.189128  0.0  -0.786413  1.2e-05  2.169727  0.0  -0.376667  -0.742815  0.000122  2.201587  0.0
O  O80  1  0.56550006  0.88643751  0.62745565  1  -0.81673  -0.076612  2.047726  -0.1  -0.775329  -0.045665  2.353689  -0.064  -0.816701  -0.035213  2.335172  -0.052  -0.384119  -0.745682  -0.052141  2.365108  -0.071
O  O81  1  0.43449969  0.11356421  0.37254275  1  -0.816733  0.076616  2.047768  0.1  -0.775309  0.045667  2.353706  0.064  -0.816669  0.035214  2.335177  0.052  -0.384092  -0.745664  0.052142  2.365128  0.071
O  O82  1  0.55422385  0.17384314  0.67236455  1  -0.759747  -0.000934  2.020497  -0.001  -0.694994  -0.000396  2.252018  -0.001  -0.717482  -0.000179  2.227182  0.0  -0.385924  -0.678879  -0.000655  2.268477  -0.001
O  O83  1  0.44578150  0.82616205  0.32763131  1  -0.759708  0.000936  2.020493  0.001  -0.694994  0.000397  2.25196  0.001  -0.717491  0.000179  2.227131  0.0  -0.385925  -0.678879  0.000655  2.268417  0.001
O  O84  1  0.73253188  0.08105120  0.54918201  1  -0.81613  0.053731  2.072085  0.07  -0.767926  0.03498  2.384419  0.049  -0.806289  0.027862  2.363163  0.041  -0.383391  -0.740595  0.038897  2.397612  0.053
O  O85  1  0.26747464  0.91894822  0.45081501  1  -0.816147  -0.053722  2.072068  -0.07  -0.767915  -0.034977  2.384367  -0.049  -0.806278  -0.027858  2.363106  -0.041  -0.38341  -0.740608  -0.038894  2.397615  -0.053
