# generated using pymatgen
data_MnH26(C3O4)4
_symmetry_space_group_name_H-M   'P 1'
_cell_length_a   5.60973974
_cell_length_b   7.09734805
_cell_length_c   11.14313608
_cell_angle_alpha   86.28808320
_cell_angle_beta   83.02841518
_cell_angle_gamma   79.06689757
_symmetry_Int_Tables_number   1
_chemical_formula_structural   MnH26(C3O4)4
_chemical_formula_sum   'Mn1 H26 C12 O16'
_cell_volume   431.98624155
_cell_formula_units_Z   1
loop_
 _symmetry_equiv_pos_site_id
 _symmetry_equiv_pos_as_xyz
  1  'x, y, z'
loop_
 _atom_site_type_symbol
 _atom_site_label
 _atom_site_symmetry_multiplicity
 _atom_site_fract_x
 _atom_site_fract_y
 _atom_site_fract_z
 _atom_site_occupancy
 _atom_site_hle17_ddec_charge
 _atom_site_hle17_ddec_spin_density
 _atom_site_hle17_ddec_sum_bond_order
 _atom_site_hle17_magmom
 _atom_site_hse06_10hf_ddec_charge
 _atom_site_hse06_10hf_ddec_spin_density
 _atom_site_hse06_10hf_ddec_sum_bond_order
 _atom_site_hse06_10hf_magmom
 _atom_site_hse06_ddec_charge
 _atom_site_hse06_ddec_spin_density
 _atom_site_hse06_ddec_sum_bond_order
 _atom_site_hse06_magmom
 _atom_site_pbe_cm5_charge
 _atom_site_pbe_ddec_charge
 _atom_site_pbe_ddec_spin_density
 _atom_site_pbe_ddec_sum_bond_order
 _atom_site_pbe_magmom
Mn  Mn0  1  0.49005781  0.99102338  0.49383555  1  1.283004  4.810842  1.626964  4.699  1.122014  4.745419  2.116174  4.569  1.181212  4.779267  2.041604  4.621  0.595609  1.075047  4.712688  2.170659  4.521
H  H1  1  0.15052015  0.33548452  0.40426545  1  0.385648  3.3e-05  0.911356  0.001  0.355769  0.000468  0.988225  0.002  0.367691  0.000258  0.975128  0.001  0.300581  0.347098  0.000672  0.997628  0.002
H  H2  1  0.54001132  0.16867305  0.15787324  1  0.392224  -6.7e-05  0.904697  0.0  0.362097  -7.3e-05  0.979854  0.0  0.372643  -7.8e-05  0.968403  0.0  0.304419  0.35469  -6.4e-05  0.987877  0.0
H  H3  1  0.21399998  0.41657063  0.01335091  1  0.377122  7e-06  0.885626  0.0  0.34932  -1e-06  0.962287  0.0  0.359745  0.0  0.949763  0.0  0.302969  0.341915  0.0  0.971217  0.0
H  H4  1  0.99206452  0.84364307  0.06226478  1  0.380155  4.7e-05  0.914981  0.0  0.351282  7.7e-05  0.992223  0.0  0.361277  6e-05  0.980635  0.0  0.298601  0.344251  9.3e-05  1.000438  0.0
H  H5  1  0.23101794  0.10394653  0.06560534  1  0.363203  8e-06  0.934418  0.0  0.335512  1.5e-05  1.010725  0.0  0.345661  1.1e-05  0.999049  0.0  0.298351  0.328367  2.1e-05  1.018955  0.0
H  H6  1  0.43193717  0.54476509  0.68043995  1  0.386109  -0.000346  0.858249  0.0  0.356478  -0.000328  0.939906  0.0  0.367618  -0.000396  0.926259  0.0  0.309829  0.348214  -0.000241  0.950201  0.0
H  H7  1  0.60045201  0.54892376  0.93353717  1  0.378878  1e-06  0.8933  0.0  0.351874  3e-06  0.970781  0.0  0.361474  4e-06  0.959459  0.0  0.301179  0.345087  5e-06  0.978773  0.0
H  H8  1  0.86625683  0.24882304  0.07461618  1  0.379134  1.9e-05  0.921627  0.0  0.347985  2.4e-05  0.997935  0.0  0.359378  2.3e-05  0.985803  0.0  0.297577  0.340042  2.6e-05  1.006328  0.0
H  H9  1  0.88444958  0.79012564  0.88525414  1  0.387294  -3e-06  0.891052  0.0  0.360373  2e-06  0.964987  0.0  0.370422  -3e-06  0.953242  0.0  0.30418  0.35329  1e-05  0.973227  0.0
H  H10  1  0.39308698  0.24097338  0.68839147  1  0.371203  -0.000226  0.926085  0.0  0.344192  0.000218  1.001076  0.001  0.354812  3.8e-05  0.989391  0.001  0.298688  0.336624  0.000386  1.009325  0.001
H  H11  1  0.02417116  0.01434981  0.46096630  1  0.423225  -0.000253  0.881185  0.001  0.391969  0.000744  0.945514  0.002  0.402698  0.000381  0.929882  0.002  0.299539  0.384351  0.001065  0.956547  0.003
H  H12  1  0.09866335  0.81248507  0.53087985  1  0.422312  0.000314  0.89166  0.001  0.387617  0.001185  0.961916  0.002  0.399723  0.000847  0.94454  0.002  0.2896  0.379052  0.001482  0.974166  0.003
H  H13  1  0.76680724  0.68696351  0.37141244  1  0.417391  0.000125  0.891809  0.001  0.384548  0.000816  0.959887  0.002  0.395283  0.000528  0.94448  0.002  0.294107  0.376939  0.001076  0.970748  0.002
H  H14  1  0.79517887  0.85474446  0.27469620  1  0.437776  0.000544  0.859985  0.002  0.407255  0.001136  0.922009  0.003  0.417924  0.000844  0.906495  0.003  0.301516  0.399571  0.001406  0.933172  0.003
H  H15  1  0.39337715  0.54746259  0.39871507  1  0.085311  -0.000297  0.916683  0.0  0.095537  -8.7e-05  0.975382  0.0  0.097243  -0.000209  0.974301  0.0  0.123651  0.094146  4.9e-05  0.976485  0.0
H  H16  1  0.67401917  0.52498000  0.20587244  1  0.052976  9.9e-05  0.937113  0.0  0.05926  0.000223  1.007895  0.0  0.060572  0.000142  1.006412  0.0  0.111082  0.058117  0.000311  1.009459  0.0
H  H17  1  0.15369789  0.45509513  0.20244736  1  0.05977  -7.3e-05  0.924333  0.0  0.067593  -1.9e-05  0.987504  0.0  0.06908  -4.8e-05  0.986255  0.0  0.109841  0.066355  1.4e-05  0.988807  0.0
H  H18  1  0.25499267  0.76950178  0.26863016  1  0.05938  -0.000539  0.938423  0.0  0.069682  -0.000558  1.001864  0.0  0.070674  -0.000598  1.00087  0.0  0.109425  0.068874  -0.000514  1.002773  0.0
H  H19  1  0.40478499  0.81502792  0.99715698  1  0.048758  3e-06  0.969044  0.0  0.05905  2.2e-05  1.043888  0.0  0.059661  1.8e-05  1.042936  0.0  0.099268  0.058586  2.9e-05  1.044579  0.0
H  H20  1  0.60938245  0.78532909  0.10953819  1  0.067883  -4.9e-05  0.965511  0.0  0.08119  -3.5e-05  1.030912  0.0  0.081801  -5.4e-05  1.030552  0.0  0.106157  0.08035  -1.2e-05  1.031829  0.0
H  H21  1  0.86933044  0.32017733  0.64373638  1  0.078637  -0.00045  0.944245  0.0  0.07991  -0.000392  1.018384  0.0  0.082817  -0.000469  1.0158  0.0  0.112566  0.077717  -0.000298  1.020471  0.0
H  H22  1  0.06967971  0.44137013  0.80060474  1  0.064131  -1.4e-05  0.92247  0.0  0.073853  3.3e-05  0.985475  0.0  0.074705  4e-06  0.984781  0.0  0.114529  0.073062  6.7e-05  0.986267  0.0
H  H23  1  0.68753501  0.21932187  0.92727559  1  0.054137  -8e-06  0.932083  0.0  0.058054  -2e-06  1.006579  0.0  0.059815  0.0  1.004065  0.0  0.109042  0.056645  -0.0  1.008606  0.0
H  H24  1  0.89498105  0.03743509  0.75173139  1  0.052505  -0.00019  0.907943  0.0  0.067394  -0.000149  0.962372  0.0  0.067447  -0.000188  0.962592  0.0  0.114197  0.067259  -0.000101  0.962436  0.0
H  H25  1  0.33798573  0.87140348  0.77147146  1  0.070108  -0.000272  0.94612  0.0  0.077447  -0.000116  1.018251  0.0  0.079497  -0.000214  1.015632  0.0  0.102316  0.075878  -7e-06  1.020335  0.0
H  H26  1  0.36670925  0.06948706  0.85523755  1  0.058532  6.8e-05  0.933556  0.0  0.072552  0.000216  0.998834  0.0  0.07322  0.000146  0.998005  0.0  0.102037  0.071958  0.00029  0.999695  0.0
C  C27  1  0.72043031  0.33940409  0.41531300  1  0.681077  0.001673  3.791099  0.002  0.619156  0.004363  4.098228  0.005  0.653477  0.00307  4.090066  0.004  0.235122  0.595494  0.005789  4.103206  0.006
C  C28  1  0.47916250  0.40705879  0.36183955  1  0.036953  0.00088  3.635744  0.001  0.009469  0.001921  3.890417  0.002  0.010852  0.001231  3.897331  0.001  -0.002525  0.008322  0.002573  3.885713  0.002
C  C29  1  0.53911912  0.42955326  0.22265441  1  0.150879  0.000259  3.578092  0.0  0.115286  0.000633  3.837276  0.001  0.120431  0.000379  3.847077  0.0  -0.005201  0.111733  0.000912  3.830864  0.001
C  C30  1  0.30977246  0.51816277  0.15980061  1  0.125212  5.9e-05  3.561538  0.0  0.095965  0.000155  3.81757  0.0  0.100685  0.0001  3.826909  0.0  -0.010328  0.092741  0.000218  3.811368  0.0
C  C31  1  0.24551525  0.73678791  0.17427316  1  0.151114  2e-05  3.617909  0.0  0.12145  0.000103  3.874118  0.0  0.125967  2.1e-05  3.88429  0.0  -0.016682  0.118242  0.00019  3.867407  0.0
C  C32  1  0.42065710  0.84046879  0.09181065  1  0.068843  1.5e-05  3.646496  0.0  0.002965  4.5e-05  3.916624  0.0  0.009369  7e-06  3.922098  0.0  -0.088811  -0.001131  9.1e-05  3.913065  0.0
C  C33  1  0.80586540  0.62762234  0.63800170  1  0.660381  0.002633  3.876018  0.003  0.600115  0.005386  4.191518  0.006  0.634637  0.003955  4.18348  0.005  0.216091  0.576323  0.006962  4.196137  0.007
C  C34  1  0.76993574  0.43549659  0.70214576  1  0.032036  0.001355  3.621608  0.002  0.004337  0.00157  3.879622  0.002  0.004562  0.00113  3.886405  0.001  -0.014687  0.004086  0.002046  3.874992  0.002
C  C35  1  0.87988028  0.42040682  0.82222942  1  0.152457  3e-05  3.611483  0.0  0.117376  0.000244  3.872484  0.0  0.122818  0.000151  3.881768  0.0  -0.012534  0.113726  0.000345  3.86615  0.0
C  C36  1  0.87852795  0.23113476  0.89601187  1  0.130319  9e-05  3.567102  0.0  0.09764  0.000121  3.825099  0.0  0.102479  7.5e-05  3.83514  0.0  -0.012713  0.094303  0.00017  3.818389  0.0
C  C37  1  0.99365704  0.04601771  0.83034738  1  0.1756  0.000131  3.565107  0.0  0.144202  0.000297  3.824987  0.0  0.149089  0.000139  3.835367  0.0  -0.003099  0.140834  0.000475  3.818061  0.001
C  C38  1  0.26787717  0.02428573  0.78580522  1  0.082879  0.000953  3.580057  0.001  0.020977  0.002116  3.853841  0.002  0.028099  0.001491  3.858249  0.002  -0.07954  0.015913  0.002737  3.85104  0.003
O  O39  1  0.75448277  0.17679950  0.47235701  1  -0.655739  0.030839  2.09351  0.018  -0.57825  0.036288  2.352109  0.02  -0.608814  0.032793  2.33613  0.017  -0.297495  -0.556085  0.039574  2.362633  0.022
O  O40  1  0.32767099  0.26865442  0.39482499  1  -0.576836  0.024283  2.174988  0.015  -0.518804  0.033047  2.430338  0.022  -0.538878  0.029559  2.414602  0.019  -0.383451  -0.503491  0.036319  2.440924  0.025
O  O41  1  0.66025018  0.24800212  0.17861771  1  -0.556376  -0.000161  2.133397  0.0  -0.498231  -0.000113  2.356916  0.0  -0.515449  -0.000178  2.345496  0.0  -0.388365  -0.486095  -4e-05  2.364686  0.0
O  O42  1  0.34833309  0.47675316  0.03324688  1  -0.563584  5e-06  2.087071  0.0  -0.510602  4.9e-05  2.317493  0.0  -0.52608  3.7e-05  2.303704  0.0  -0.396448  -0.499507  6.1e-05  2.326892  0.0
O  O43  1  0.99883213  0.81010933  0.15029135  1  -0.588269  0.00033  2.105976  0.0  -0.533781  0.000649  2.332953  0.001  -0.549676  0.000442  2.319556  0.001  -0.405636  -0.522537  0.000852  2.342743  0.001
O  O44  1  0.37235638  0.04220674  0.10904587  1  -0.544116  -0.000108  2.156681  0.0  -0.487341  -0.000109  2.390713  0.0  -0.503305  -0.000126  2.377703  0.0  -0.407444  -0.47605  -8.7e-05  2.399532  0.0
O  O45  1  0.87832693  0.44755731  0.39840133  1  -0.614431  0.002216  2.040748  0.003  -0.550127  0.004004  2.26345  0.005  -0.57703  0.002915  2.25479  0.004  -0.294076  -0.531386  0.005103  2.269384  0.006
O  O46  1  0.16326864  0.90637814  0.46772485  1  -0.860035  0.037025  1.900934  0.024  -0.795463  0.044206  2.123298  0.027  -0.821857  0.039301  2.08535  0.022  -0.580019  -0.775438  0.048766  2.149558  0.03
O  O47  1  0.69374730  0.82211685  0.35004301  1  -0.862035  0.033762  1.902771  0.022  -0.801683  0.043248  2.127236  0.027  -0.826513  0.038488  2.090825  0.023  -0.581713  -0.78289  0.047658  2.152673  0.031
O  O48  1  0.61274521  0.73573370  0.60621055  1  -0.676584  0.029827  2.054454  0.016  -0.601948  0.037332  2.320285  0.02  -0.632761  0.033655  2.304903  0.017  -0.310425  -0.579182  0.04074  2.330316  0.023
O  O49  1  0.51451809  0.42550649  0.72038079  1  -0.543415  -0.000287  2.10349  0.0  -0.49047  -2.5e-05  2.328871  0.001  -0.505916  -0.0002  2.315723  0.0  -0.387795  -0.479602  0.000164  2.338413  0.001
O  O50  1  0.75915914  0.57769704  0.89472040  1  -0.57465  -1.6e-05  2.099249  0.0  -0.525384  1.9e-05  2.331418  0.0  -0.54097  -1e-06  2.318911  0.0  -0.397762  -0.514255  5e-05  2.339789  0.0
O  O51  1  0.99848470  0.24271991  0.00232749  1  -0.590463  4.2e-05  2.131145  0.0  -0.523536  8e-05  2.352089  0.0  -0.543152  5.7e-05  2.34123  0.0  -0.387655  -0.509682  0.000111  2.359372  0.0
O  O52  1  0.96222987  0.88925965  0.91545342  1  -0.578549  0.000189  2.1236  0.0  -0.524131  0.000316  2.355649  0.0  -0.540885  0.000232  2.343509  0.0  -0.394014  -0.512265  0.000414  2.363939  0.0
O  O53  1  0.31591966  0.12965493  0.67332511  1  -0.588879  0.02335  2.147497  0.013  -0.525239  0.032427  2.408897  0.019  -0.546544  0.02908  2.393799  0.017  -0.392923  -0.509343  0.035572  2.419037  0.022
O  O54  1  0.02042945  0.66134585  0.62448685  1  -0.610598  0.001282  1.974081  0.002  -0.553758  0.002782  2.200485  0.004  -0.578724  0.001879  2.189345  0.003  -0.31073  -0.536264  0.00378  2.207953  0.005
