# generated using pymatgen
data_Al2H15C28(SO8)2
_symmetry_space_group_name_H-M   'P 1'
_cell_length_a   6.62244528
_cell_length_b   11.03669359
_cell_length_c   17.48834907
_cell_angle_alpha   87.32599286
_cell_angle_beta   80.30149148
_cell_angle_gamma   74.13491501
_symmetry_Int_Tables_number   1
_chemical_formula_structural   Al2H15C28(SO8)2
_chemical_formula_sum   'Al2 H15 C28 S2 O16'
_cell_volume   1211.95886314
_cell_formula_units_Z   1
loop_
 _symmetry_equiv_pos_site_id
 _symmetry_equiv_pos_as_xyz
  1  'x, y, z'
loop_
 _atom_site_type_symbol
 _atom_site_label
 _atom_site_symmetry_multiplicity
 _atom_site_fract_x
 _atom_site_fract_y
 _atom_site_fract_z
 _atom_site_occupancy
 _atom_site_pbe_bader_charge
 _atom_site_pbe_bader_spin_density
 _atom_site_pbe_cm5_charge
 _atom_site_pbe_ddec_charge
 _atom_site_pbe_ddec_spin_density
 _atom_site_pbe_ddec_sum_bond_order
 _atom_site_pbe_magmom
Al  Al0  1  0.52528345  0.48852841  0.49349857  1  2.499752  0  0.399702  1.645725  0  2.561242  0
Al  Al1  1  0.02288290  0.48413996  0.50021280  1  2.504964  0  0.396036  1.644278  0  2.575698  0
H  H2  1  0.28991233  0.39857164  0.58244701  1  0.636829  0  0.349314  0.426736  0  0.861454  0
H  H3  1  0.77273647  0.60133736  0.42327907  1  0.66769  0  0.332754  0.431071  0  0.89177  0
H  H4  1  0.61632325  0.64892402  0.12563689  1  0.099399  0  0.115455  0.120545  0  0.981715  0
H  H5  1  0.06966259  0.50487867  0.12435428  1  0.058786  0  0.1133  0.112137  0  0.983317  0
H  H6  1  0.04232513  0.47160275  0.26763266  1  0.121649  0  0.121663  0.129762  0  0.966868  0
H  H7  1  0.83524439  0.48186974  0.89317250  1  0.075746  0  0.112619  0.115062  0  0.985188  0
H  H8  1  0.95868150  0.44993066  0.75051655  1  0.065803  0  0.109756  0.110803  0  0.998034  0
H  H9  1  0.30872141  0.55483832  0.71195346  1  0.114841  0  0.113581  0.117527  0  0.992168  0
H  H10  1  0.18277267  0.59088814  0.85415946  1  0.115368  0  0.110477  0.11315  0  0.992064  0
H  H11  1  0.23060976  0.21750740  0.37781880  1  0.173116  0  0.119577  0.131802  0  1.014976  0
H  H12  1  0.49371772  0.75629970  0.40916362  1  0.155012  0  0.118405  0.120291  0  1.05722  0
H  H13  1  0.78947814  0.86427275  0.55501977  1  0.114449  0  0.117716  0.12387  0  0.974967  0
H  H14  1  0.66006039  0.09866706  0.54284340  1  0.10332  0  0.114104  0.11873  0  0.976359  0
H  H15  1  0.70014463  0.23764969  0.37404723  1  0.653216  0  0.319063  0.373077  0  0.933268  0
H  H16  1  0.58693612  0.61402845  0.26804323  1  0.116524  0  0.11256  0.120414  0  1.018797  0
C  C17  1  0.88024351  0.25753295  0.48072648  1  1.607319  0  0.27219  0.633836  0  4.086821  0
C  C18  1  0.71083996  0.48485969  0.63764368  1  1.586455  0  0.268554  0.641296  0  4.091822  0
C  C19  1  0.16976368  0.71412841  0.50514800  1  1.599208  0  0.269737  0.63634  0  4.102239  0
C  C20  1  0.31025950  0.50422475  0.35874285  1  1.564118  0  0.276143  0.644521  0  4.071252  0
C  C21  1  0.31742656  0.53610546  0.27508985  1  0.021588  0  0.016382  0.000888  0  3.885294  0
C  C22  1  0.47625631  0.58941442  0.23600760  1  0.01631  0  -0.064664  -0.06833  0  3.909996  0
C  C23  1  0.49326395  0.60834437  0.15670106  1  -0.009706  0  -0.058714  -0.0946  0  3.874061  0
C  C24  1  0.35073851  0.57330248  0.11535323  1  0.154846  0  0.024591  0.153258  0  4.062199  0
C  C25  1  0.18109121  0.52887412  0.15629658  1  0.066186  0  -0.060204  -0.095943  0  3.880623  0
C  C26  1  0.16619755  0.50998643  0.23538789  1  0.004519  0  -0.056181  -0.037552  0  3.910101  0
C  C27  1  0.38889726  0.57215754  0.03391769  1  -0.454463  0  -0.003053  -0.050751  0  4.036133  0
C  C28  1  0.43499737  0.55948553  0.96325134  1  0.057914  0  -0.020193  -0.083142  0  4.04004  0
C  C29  1  0.50113479  0.53980528  0.88293566  1  0.130085  0  0.013065  0.147806  0  4.098062  0
C  C30  1  0.72136810  0.49948890  0.85291189  1  -0.054289  0  -0.071928  -0.115213  0  3.920294  0
C  C31  1  0.78953503  0.48105912  0.77384261  1  -0.000947  0  -0.076668  -0.087061  0  3.983301  0
C  C32  1  0.64071652  0.50106045  0.72294988  1  -0.029631  0  -0.006236  -0.031571  0  3.951446  0
C  C33  1  0.42195223  0.53892805  0.75239199  1  -0.097799  0  -0.075584  -0.087133  0  3.973773  0
C  C34  1  0.35210485  0.55874461  0.83127316  1  0.009654  0  -0.074178  -0.1187  0  3.930647  0
C  C35  1  0.95443656  0.11697399  0.47726055  1  -0.038168  0  0.008954  -0.050611  0  3.907963  0
C  C36  1  0.16096875  0.05342174  0.43848232  1  0.050664  0  0.01164  0.073484  0  3.930926  0
C  C37  1  0.82106709  0.04875928  0.51657150  1  0.007963  0  -0.07158  -0.088592  0  3.964841  0
C  C38  1  0.28832738  0.11659128  0.38713808  1  -0.01733  0  -0.058871  -0.090927  0  3.874765  0
C  C39  1  0.48259580  0.05259472  0.34551949  1  -0.140271  0  -0.003494  -0.088867  0  3.914474  0
C  C40  1  0.10094485  0.85357610  0.49273310  1  -0.0333  0  0.013674  -0.042992  0  3.865976  0
C  C41  1  0.89392939  0.91769927  0.52395853  1  -0.037117  0  -0.06641  -0.073788  0  3.953758  0
C  C42  1  0.23603553  0.91986888  0.44664014  1  0.021931  0  0.015338  0.080003  0  3.929844  0
C  C43  1  0.43572001  0.85752962  0.40393862  1  -0.020296  0  -0.064253  -0.099269  0  3.883953  0
C  C44  1  0.55975740  0.92000719  0.35419365  1  -0.119617  0  0.001655  -0.061512  0  3.884426  0
S  S45  1  0.61319055  0.14966281  0.28058933  1  3.121719  0  0.542887  1.153548  0  6.006052  0
S  S46  1  0.81049735  0.82133067  0.30616329  1  3.230695  0  0.514117  1.114501  0  6.243525  0
O  O47  1  0.69234211  0.31137684  0.46661619  1  -1.248463  0  -0.231119  -0.58277  0  2.320359  0
O  O48  1  0.89705950  0.49290338  0.60931794  1  -1.249357  0  -0.232667  -0.58209  0  2.306269  0
O  O49  1  0.02730149  0.65730848  0.50368927  1  -1.240581  0  -0.224968  -0.576512  0  2.365064  0
O  O50  1  0.46538441  0.51386927  0.39077839  1  -1.265137  0  -0.233049  -0.594593  0  2.337911  0
O  O51  1  0.36036631  0.66300336  0.51552637  1  -1.255643  0  -0.239068  -0.588264  0  2.328064  0
O  O52  1  0.15086483  0.46957796  0.39376467  1  -1.259344  0  -0.227583  -0.578501  0  2.371169  0
O  O53  1  0.00864288  0.31201706  0.50045334  1  -1.247448  0  -0.22158  -0.567082  0  2.364964  0
O  O54  1  0.57632995  0.46411891  0.59910992  1  -1.269726  0  -0.236801  -0.603696  0  2.361447  0
O  O55  1  0.29076372  0.42655852  0.52903344  1  -1.442587  0  -0.449769  -0.994009  0  2.201119  0
O  O56  1  0.76401010  0.54267506  0.46725111  1  -1.471601  0  -0.457982  -1.018931  0  2.215852  0
O  O57  1  0.77554370  0.17982644  0.32981715  1  -1.235841  0  -0.355756  -0.525246  0  2.244422  0
O  O58  1  0.74000388  0.07963766  0.21458699  1  -1.272645  0  -0.293319  -0.483786  0  2.150659  0
O  O59  1  0.45196268  0.26494030  0.27123168  1  -1.307369  0  -0.305949  -0.545249  0  2.233528  0
O  O60  1  0.79359181  0.81178138  0.22464822  1  -1.209497  0  -0.294419  -0.48697  0  2.049994  0
O  O61  1  0.97368104  0.87842197  0.32182822  1  -1.234188  0  -0.298879  -0.502941  0  2.100782  0
O  O62  1  0.82620503  0.69793098  0.34489414  1  -1.265276  0  -0.289885  -0.537266  0  2.230329  0
