# generated using pymatgen
data_ZnH6C11NO4
_symmetry_space_group_name_H-M   'P 1'
_cell_length_a   9.74360400
_cell_length_b   11.05342771
_cell_length_c   11.96096046
_cell_angle_alpha   89.85317728
_cell_angle_beta   89.64217550
_cell_angle_gamma   89.41092236
_symmetry_Int_Tables_number   1
_chemical_formula_structural   ZnH6C11NO4
_chemical_formula_sum   'Zn2 H12 C22 N2 O8'
_cell_volume   1288.10087678
_cell_formula_units_Z   2
loop_
 _symmetry_equiv_pos_site_id
 _symmetry_equiv_pos_as_xyz
  1  'x, y, z'
loop_
 _atom_site_type_symbol
 _atom_site_label
 _atom_site_symmetry_multiplicity
 _atom_site_fract_x
 _atom_site_fract_y
 _atom_site_fract_z
 _atom_site_occupancy
 _atom_site_pbe_bader_charge
 _atom_site_pbe_bader_spin_density
 _atom_site_pbe_cm5_charge
 _atom_site_pbe_ddec_charge
 _atom_site_pbe_ddec_spin_density
 _atom_site_pbe_ddec_sum_bond_order
 _atom_site_pbe_magmom
Zn  Zn0  1  0.36278626  0.49918908  0.50254970  1  1.275177  0  0.66658  0.808806  0  2.438331  0
Zn  Zn1  1  0.64826990  0.49618718  0.49961695  1  1.291827  0  0.667667  0.814155  0  2.435939  0
H  H2  1  0.12929355  0.70136197  0.68723477  1  0.088343  0  0.112061  0.131506  0  0.982314  0
H  H3  1  0.86867767  0.70055540  0.68512488  1  0.100181  0  0.115507  0.139344  0  0.9598  0
H  H4  1  0.72625497  0.10649214  0.47288384  1  0.122794  0  0.100785  0.106475  0  1.004474  0
H  H5  1  0.17785470  0.11120627  0.45197107  1  0.039783  0  0.093303  0.10017  0  0.989593  0
H  H6  1  0.20145152  0.89735768  0.61697505  1  0.065298  0  0.091692  0.094986  0  1.00153  0
H  H7  1  0.17480204  0.88368868  0.47001408  1  0.038744  0  0.094804  0.104943  0  0.985569  0
H  H8  1  0.13904520  0.40862583  0.34844836  1  0.166436  0  0.138601  0.122712  0  0.967795  0
H  H9  1  0.13092706  0.56015966  0.75984984  1  0.123478  0  0.116227  0.144099  0  0.962458  0
H  H10  1  0.72517849  0.88160093  0.48330617  1  0.081953  0  0.100385  0.105234  0  1.006151  0
H  H11  1  0.86889411  0.55961043  0.75829671  1  0.113103  0  0.115725  0.143014  0  0.964536  0
H  H12  1  0.19925366  0.12391055  0.59936113  1  0.035798  0  0.095853  0.105984  0  0.983157  0
H  H13  1  0.87983987  0.40673731  0.34742264  1  0.147394  0  0.139385  0.122715  0  0.961123  0
C  C14  1  0.50767050  0.73281660  0.51110506  1  1.56963  0  0.216805  0.599173  0  4.174825  0
C  C15  1  0.50680290  0.86761085  0.50711467  1  -0.072421  0  -0.014399  -0.073629  0  3.972394  0
C  C16  1  0.62937453  0.93275104  0.49123059  1  -0.035851  0  -0.088905  -0.1055  0  3.997659  0
C  C17  1  0.62996006  0.05871889  0.48495735  1  -0.03007  0  -0.087324  -0.102356  0  3.99462  0
C  C18  1  0.50786997  0.12801104  0.49390839  1  -0.003581  0  -0.013889  -0.072201  0  3.971824  0
C  C19  1  0.38729309  0.06300795  0.50890878  1  -0.068836  0  -0.004406  0.062437  0  3.882983  0
C  C20  1  0.23314147  0.07437778  0.52447713  1  -0.003192  0  -0.152962  -0.19669  0  3.892261  0
C  C21  1  0.23267619  0.93168514  0.53439536  1  -0.042722  0  -0.152939  -0.197031  0  3.894036  0
C  C22  1  0.93177225  0.54506823  0.58137793  1  0.550345  0  0.149359  0.201632  0  3.856596  0
C  C23  1  0.93606847  0.44683403  0.41625131  1  0.402534  0  0.069276  0.048369  0  3.862971  0
C  C24  1  0.07923124  0.44773194  0.41687456  1  0.520313  0  0.067596  0.0444  0  3.867634  0
C  C25  1  0.50295206  0.48768414  0.72171424  1  1.631301  0  0.218932  0.651822  0  4.26423  0
C  C26  1  0.07489143  0.54578783  0.58214355  1  0.552191  0  0.148367  0.199314  0  3.856325  0
C  C27  1  0.08193554  0.61185514  0.69234508  1  0.009363  0  -0.135644  -0.227755  0  3.814983  0
C  C28  1  0.91864887  0.61135185  0.69125930  1  -0.099217  0  -0.135105  -0.228707  0  3.814849  0
C  C29  1  0.50970144  0.26279132  0.49076333  1  1.524216  0  0.216739  0.600425  0  4.172304  0
C  C30  1  0.50291158  0.50804282  0.28076087  1  1.719767  0  0.220729  0.658468  0  4.254105  0
C  C31  1  0.50439044  0.49141732  0.84258632  1  0.232612  0  -0.020566  -0.154219  0  3.881661  0
C  C32  1  0.50394292  0.49687455  0.94480015  1  -0.376128  0  -0.024012  0.011597  0  4.27117  0
C  C33  1  0.50336080  0.50217850  0.05760471  1  -0.202787  0  -0.024914  0.010595  0  4.266172  0
C  C34  1  0.50280934  0.50633603  0.15985482  1  0.073859  0  -0.018191  -0.146895  0  3.871738  0
C  C35  1  0.38676664  0.93677325  0.51597297  1  0.051057  0  -0.005276  0.061601  0  3.879225  0
N  N36  1  0.85908820  0.49640759  0.49986753  1  -1.225534  0  -0.288253  -0.179507  0  3.466896  0
N  N37  1  0.15186345  0.49810073  0.50128334  1  -1.191625  0  -0.286189  -0.177996  0  3.466275  0
O  O38  1  0.39097687  0.68130241  0.51073304  1  -1.157711  0  -0.315192  -0.540589  0  2.315965  0
O  O39  1  0.62396410  0.67885548  0.51356884  1  -1.162729  0  -0.319222  -0.549545  0  2.329951  0
O  O40  1  0.38515777  0.49120825  0.67629363  1  -1.132541  0  -0.305614  -0.5336  0  2.262556  0
O  O41  1  0.61927689  0.48203759  0.67286010  1  -1.132364  0  -0.306344  -0.535726  0  2.260016  0
O  O42  1  0.39343164  0.31689577  0.49554886  1  -1.154217  0  -0.315451  -0.543252  0  2.325372  0
O  O43  1  0.62617307  0.31413374  0.48499684  1  -1.154398  0  -0.320388  -0.548884  0  2.324701  0
O  O44  1  0.38592733  0.50607532  0.32872406  1  -1.142628  0  -0.310398  -0.541085  0  2.258967  0
O  O45  1  0.62010774  0.51085067  0.32707810  1  -1.138944  0  -0.310795  -0.538807  0  2.249756  0
