# generated using pymatgen
data_MnH6(CO3)2
_symmetry_space_group_name_H-M   'P 1'
_cell_length_a   7.09193062
_cell_length_b   8.80503141
_cell_length_c   9.57453837
_cell_angle_alpha   97.84102808
_cell_angle_beta   89.99720549
_cell_angle_gamma   90.00280069
_symmetry_Int_Tables_number   1
_chemical_formula_structural   MnH6(CO3)2
_chemical_formula_sum   'Mn4 H24 C8 O24'
_cell_volume   592.28897943
_cell_formula_units_Z   4
loop_
 _symmetry_equiv_pos_site_id
 _symmetry_equiv_pos_as_xyz
  1  'x, y, z'
loop_
 _atom_site_type_symbol
 _atom_site_label
 _atom_site_symmetry_multiplicity
 _atom_site_fract_x
 _atom_site_fract_y
 _atom_site_fract_z
 _atom_site_occupancy
 _atom_site_hle17_ddec_charge
 _atom_site_hle17_ddec_spin_density
 _atom_site_hle17_ddec_sum_bond_order
 _atom_site_hle17_magmom
 _atom_site_hse06_10hf_ddec_charge
 _atom_site_hse06_10hf_ddec_spin_density
 _atom_site_hse06_10hf_ddec_sum_bond_order
 _atom_site_hse06_10hf_magmom
 _atom_site_hse06_ddec_charge
 _atom_site_hse06_ddec_spin_density
 _atom_site_hse06_ddec_sum_bond_order
 _atom_site_hse06_magmom
 _atom_site_pbe_cm5_charge
 _atom_site_pbe_ddec_charge
 _atom_site_pbe_ddec_spin_density
 _atom_site_pbe_ddec_sum_bond_order
 _atom_site_pbe_magmom
Mn  Mn0  1  0.00000169  0.99999669  0.99999849  1  1.201588  4.800121  1.740231  4.694  1.029174  4.729659  2.237084  4.562  1.087377  4.76923  2.170276  4.617  0.588458  0.98291  4.689452  2.287869  4.509
Mn  Mn1  1  0.49999620  0.00000398  0.50000346  1  1.201131  -4.799231  1.741741  -4.694  1.028843  -4.722886  2.238644  -4.562  1.087132  -4.766889  2.171734  -4.617  0.588258  0.982448  -4.677745  2.289591  -4.508
Mn  Mn2  1  0.50000455  0.49999748  0.00000081  1  1.287402  4.81894  1.593065  4.711  1.13504  4.751941  2.068449  4.584  1.190855  4.783993  1.997356  4.632  0.580936  1.091515  4.720474  2.120436  4.54
Mn  Mn3  1  0.00000648  0.49999892  0.50000245  1  1.287246  4.819034  1.593693  4.711  1.13496  4.751934  2.069106  4.584  1.190771  4.784051  1.998016  4.632  0.581087  1.091394  4.719985  2.121189  4.539
H  H4  1  0.75498426  0.08876009  0.75288613  1  0.017494  -1.7e-05  0.949862  0.0  0.0257  -5.4e-05  1.020829  0.0  0.026072  -6.3e-05  1.016486  0.0  0.121293  0.02513  4.4e-05  1.024366  0.0
H  H5  1  0.25502144  0.91119217  0.74716361  1  0.017935  -0.000124  0.949587  0.0  0.02595  -5e-06  1.020694  0.0  0.026326  -4.4e-05  1.016338  0.0  0.121401  0.025345  0.000125  1.024267  0.0
H  H6  1  0.24500042  0.91123455  0.24711570  1  0.017473  -2.6e-05  0.949791  0.0  0.025668  -5.3e-05  1.020784  0.0  0.026041  -6.3e-05  1.016438  0.0  0.121262  0.025119  4.4e-05  1.024297  0.0
H  H7  1  0.74496747  0.08881623  0.25283054  1  0.017891  -0.00013  0.949693  0.0  0.025919  -5e-06  1.020783  0.0  0.026291  -4.5e-05  1.016436  0.0  0.12136  0.025327  0.000125  1.02434  0.0
H  H8  1  0.36949343  0.76178862  0.95460344  1  0.407896  -0.000385  0.903464  0.001  0.374771  0.000426  0.972251  0.001  0.386322  0.000118  0.955569  0.001  0.290575  0.366733  0.00069  0.983713  0.002
H  H9  1  0.86946262  0.23819515  0.54542957  1  0.40803  0.000748  0.903297  0.0  0.374909  0.00155  0.972087  0.001  0.38647  0.00134  0.955384  0.001  0.290672  0.366878  0.001693  0.983548  0.001
H  H10  1  0.63050817  0.23820144  0.04538841  1  0.407964  -0.000382  0.903367  0.001  0.374852  0.000426  0.972137  0.001  0.386407  0.000118  0.95544  0.001  0.290552  0.366822  0.00069  0.983603  0.002
H  H11  1  0.13054180  0.76180867  0.45457654  1  0.408003  0.000752  0.903326  0.0  0.374832  0.001551  0.972208  0.001  0.386392  0.001341  0.955512  0.001  0.29064  0.366799  0.001694  0.983672  0.001
H  H12  1  0.04430792  0.33251233  0.87505233  1  0.02745  -7.2e-05  0.940037  0.001  0.032637  0.000283  1.016934  0.001  0.033488  -4.5e-05  1.011804  0.001  0.118853  0.03179  0.00072  1.020893  0.001
H  H13  1  0.54429489  0.66732591  0.62485987  1  0.027855  0.000419  0.940084  0.001  0.032979  0.000721  1.016934  0.001  0.033872  0.000484  1.011781  0.001  0.118941  0.032123  0.000971  1.020907  0.001
H  H14  1  0.95568804  0.66748919  0.12495140  1  0.027417  -9.8e-05  0.939935  0.001  0.032579  0.000284  1.016875  0.001  0.033433  -4.5e-05  1.011741  0.001  0.118792  0.031722  0.000721  1.020843  0.001
H  H15  1  0.45569825  0.33267905  0.37514324  1  0.027811  0.000409  0.939988  0.001  0.032919  0.000721  1.016888  0.001  0.033827  0.000485  1.011712  0.001  0.118901  0.032063  0.000971  1.020859  0.001
H  H16  1  0.58885976  0.79739198  0.98262728  1  0.421819  -0.000479  0.880044  0.001  0.390483  0.000269  0.94385  0.002  0.401815  -3.5e-05  0.927566  0.002  0.294588  0.38266  0.000553  0.955031  0.002
H  H17  1  0.08882035  0.20257971  0.51742855  1  0.421686  0.000547  0.880123  0.001  0.390274  0.001282  0.944044  0.002  0.401626  0.001052  0.927732  0.001  0.294384  0.382446  0.001475  0.955235  0.002
H  H18  1  0.41114184  0.20260038  0.01736590  1  0.421747  -0.000477  0.880151  0.001  0.390441  0.000269  0.943905  0.002  0.401778  -3.6e-05  0.927613  0.002  0.294552  0.382619  0.000553  0.955085  0.002
H  H19  1  0.91118407  0.79742181  0.48257727  1  0.421584  0.000547  0.880252  0.001  0.390191  0.001282  0.94415  0.002  0.401515  0.001052  0.927881  0.001  0.294389  0.382366  0.001475  0.955335  0.002
H  H20  1  0.39716497  0.29342207  0.76765317  1  0.423084  0.000629  0.878867  0.001  0.390286  0.001248  0.945522  0.002  0.401668  0.001017  0.928958  0.002  0.296456  0.38195  0.001457  0.957664  0.002
H  H21  1  0.89694391  0.70656030  0.73221890  1  0.422857  -0.000301  0.87932  0.001  0.390065  0.000359  0.945965  0.002  0.401456  4e-05  0.929365  0.002  0.296514  0.381719  0.000718  0.958119  0.003
H  H22  1  0.60283804  0.70657258  0.23234865  1  0.423123  0.000625  0.87882  0.001  0.390313  0.001248  0.945494  0.002  0.401702  0.001017  0.928917  0.002  0.296464  0.381976  0.001457  0.957637  0.002
H  H23  1  0.10305205  0.29344008  0.26778050  1  0.422887  -0.000306  0.879275  0.001  0.390089  0.000359  0.945935  0.002  0.40148  4.1e-05  0.929336  0.002  0.29652  0.381743  0.000718  0.958089  0.003
H  H24  1  0.34687912  0.45907962  0.72413156  1  0.431307  -0.000315  0.868553  0.002  0.400236  0.000267  0.931039  0.002  0.411279  -1.3e-05  0.91528  0.002  0.297351  0.392172  0.000472  0.942489  0.003
H  H25  1  0.84678038  0.54093428  0.77581514  1  0.431158  -0.000258  0.868778  0.002  0.40012  0.000426  0.931184  0.002  0.411155  8.6e-05  0.915441  0.002  0.297347  0.392066  0.000766  0.942611  0.003
H  H26  1  0.65313235  0.54091618  0.27587146  1  0.431288  -0.000317  0.868565  0.002  0.400219  0.000267  0.931047  0.002  0.411262  -1.3e-05  0.915289  0.002  0.297344  0.392155  0.000472  0.942497  0.003
H  H27  1  0.15321981  0.45906381  0.22418294  1  0.431195  -0.000261  0.868731  0.002  0.400165  0.000426  0.931124  0.002  0.411199  8.6e-05  0.915383  0.002  0.297361  0.392112  0.000766  0.942551  0.003
C  C28  1  0.80961700  0.97521313  0.70814482  1  0.599222  -0.001677  3.847049  -0.001  0.518824  -0.001957  4.151347  -0.002  0.553702  -0.00153  4.143992  -0.001  0.167223  0.493778  -0.002222  4.157074  -0.002
C  C29  1  0.30963116  0.02477196  0.79184029  1  0.598537  0.001853  3.847902  0.002  0.518339  0.002853  4.152017  0.002  0.553237  0.002007  4.144654  0.002  0.167333  0.493331  0.004927  4.157721  0.004
C  C30  1  0.19037755  0.02479412  0.29185754  1  0.599287  -0.001621  3.84724  -0.001  0.518829  -0.001959  4.151593  -0.002  0.553743  -0.001529  4.144223  -0.001  0.167299  0.493772  -0.002222  4.157315  -0.002
C  C31  1  0.69036198  0.97523414  0.20815461  1  0.598449  0.001884  3.84807  0.002  0.518283  0.002853  4.152162  0.002  0.553164  0.002011  4.144802  0.002  0.167365  0.493267  0.00493  4.157864  0.004
C  C32  1  0.90261978  0.33191196  0.92319237  1  0.604313  0.002419  3.832148  0.004  0.525747  0.006904  4.140584  0.008  0.560111  0.004686  4.132747  0.006  0.167855  0.501836  0.009607  4.145186  0.01
C  C33  1  0.40260031  0.66809474  0.57683192  1  0.60364  -0.000944  3.831595  -0.001  0.525249  -0.001185  4.139908  -0.001  0.559623  -0.001032  4.132046  -0.001  0.167893  0.501304  -0.001607  4.144506  -0.001
C  C34  1  0.09739310  0.66809759  0.07680401  1  0.604184  0.002497  3.832828  0.004  0.525625  0.006897  4.141287  0.008  0.559986  0.004684  4.133451  0.006  0.16782  0.501724  0.0096  4.145883  0.01
C  C35  1  0.59740411  0.33190793  0.42317300  1  0.603706  -0.000931  3.831634  -0.001  0.525291  -0.001185  4.139968  -0.001  0.559656  -0.001033  4.13211  -0.001  0.167938  0.501352  -0.001607  4.14456  -0.001
O  O36  1  0.91472746  0.90456456  0.78514675  1  -0.607608  0.026556  2.11351  0.015  -0.529054  0.031438  2.371265  0.017  -0.559972  0.029208  2.358721  0.015  -0.29244  -0.50678  0.033313  2.380658  0.018
O  O37  1  0.41480195  0.09534625  0.71482542  1  -0.607295  -0.026651  2.11472  -0.015  -0.528788  -0.031158  2.372445  -0.016  -0.559725  -0.029194  2.359937  -0.014  -0.292435  -0.50647  -0.032496  2.381745  -0.017
O  O38  1  0.08526427  0.09543124  0.21485626  1  -0.607606  0.026543  2.113569  0.015  -0.529087  0.031439  2.371403  0.017  -0.559984  0.029206  2.358813  0.015  -0.292509  -0.506816  0.033314  2.380807  0.018
O  O39  1  0.58519542  0.90465527  0.28517100  1  -0.607225  -0.026658  2.114668  -0.015  -0.528693  -0.031149  2.372332  -0.016  -0.559644  -0.029189  2.359858  -0.014  -0.292392  -0.506377  -0.032489  2.38164  -0.017
O  O40  1  0.49977655  0.72553008  0.92700648  1  -0.840002  0.031447  1.856328  0.02  -0.778741  0.040388  2.054525  0.025  -0.803345  0.036136  2.018428  0.021  -0.575059  -0.760308  0.044071  2.079542  0.027
O  O41  1  0.99974042  0.27447198  0.57301386  1  -0.839893  0.031131  1.856151  0.019  -0.778639  0.039674  2.054468  0.023  -0.80322  0.035792  2.018327  0.02  -0.574903  -0.760202  0.042977  2.079463  0.026
O  O42  1  0.50022645  0.27445998  0.07298955  1  -0.840015  0.031441  1.856307  0.02  -0.778795  0.040391  2.054485  0.025  -0.803395  0.036138  2.018392  0.021  -0.575011  -0.760379  0.044073  2.079456  0.027
O  O43  1  0.00026400  0.72552840  0.42699286  1  -0.839823  0.031123  1.856221  0.019  -0.778512  0.03967  2.054512  0.023  -0.803091  0.035788  2.018391  0.02  -0.574903  -0.760076  0.042973  2.079506  0.026
O  O44  1  0.76123795  0.92253318  0.58286871  1  -0.615149  -0.027628  2.115344  -0.015  -0.534589  -0.031782  2.372339  -0.016  -0.565983  -0.029605  2.359739  -0.014  -0.299914  -0.512137  -0.0335  2.381269  -0.017
O  O45  1  0.26116494  0.07755454  0.91708287  1  -0.615116  0.027582  2.115538  0.015  -0.534588  0.032538  2.372485  0.016  -0.56596  0.029949  2.359788  0.015  -0.300175  -0.512158  0.034655  2.381386  0.018
O  O46  1  0.23876083  0.07746606  0.41712638  1  -0.615283  -0.027665  2.115674  -0.015  -0.534541  -0.031783  2.372516  -0.016  -0.566065  -0.029614  2.360012  -0.014  -0.299916  -0.512092  -0.033504  2.381452  -0.017
O  O47  1  0.73883666  0.92245157  0.08291412  1  -0.615101  0.027576  2.115623  0.015  -0.534647  0.032544  2.37263  0.017  -0.565991  0.029954  2.359941  0.015  -0.300212  -0.512214  0.034662  2.381533  0.018
O  O48  1  0.37119378  0.40187845  0.80563427  1  -0.865588  0.032283  1.890132  0.019  -0.803872  0.040836  2.102999  0.024  -0.828309  0.036648  2.064959  0.02  -0.576888  -0.785049  0.044485  2.130027  0.026
O  O49  1  0.87084042  0.59812022  0.69425641  1  -0.865265  0.032664  1.890685  0.02  -0.803582  0.041465  2.103493  0.024  -0.828008  0.037073  2.065502  0.021  -0.577006  -0.784735  0.045254  2.130537  0.028
O  O50  1  0.62881769  0.59811964  0.19436589  1  -0.865602  0.032295  1.89011  0.019  -0.803874  0.040835  2.102981  0.024  -0.828312  0.036646  2.064937  0.02  -0.576878  -0.78505  0.044485  2.130005  0.027
O  O51  1  0.12916259  0.40187901  0.30574286  1  -0.865324  0.032673  1.890637  0.02  -0.803638  0.041462  2.10344  0.024  -0.828065  0.03707  2.065453  0.021  -0.576992  -0.78479  0.045252  2.130483  0.028
O  O52  1  0.79244066  0.44202807  0.90832207  1  -0.618044  0.027803  2.08494  0.018  -0.540243  0.036826  2.335612  0.024  -0.5708  0.032837  2.322863  0.021  -0.290504  -0.517922  0.040512  2.343828  0.027
O  O53  1  0.29223441  0.55808371  0.59176409  1  -0.61798  0.022964  2.084962  0.012  -0.540217  0.028756  2.335593  0.015  -0.570809  0.026593  2.322882  0.013  -0.290677  -0.517855  0.030934  2.343787  0.017
O  O54  1  0.20755389  0.55797345  0.09167331  1  -0.618  0.027787  2.085015  0.018  -0.540211  0.036826  2.335681  0.024  -0.570766  0.032837  2.322935  0.021  -0.290487  -0.517896  0.040512  2.343894  0.027
O  O55  1  0.70776719  0.44191667  0.40823845  1  -0.618019  0.02297  2.085043  0.012  -0.540256  0.028754  2.335688  0.015  -0.570851  0.026592  2.322982  0.013  -0.290714  -0.517904  0.030933  2.343891  0.017
O  O56  1  0.85927472  0.22004648  0.98931525  1  -0.63065  0.029461  2.099937  0.018  -0.554201  0.037427  2.364714  0.023  -0.585114  0.033674  2.351054  0.02  -0.304012  -0.530972  0.040506  2.372972  0.026
O  O57  1  0.35934695  0.77998392  0.51068948  1  -0.630258  -0.029101  2.099641  -0.017  -0.55399  -0.035122  2.364553  -0.02  -0.584921  -0.032372  2.350885  -0.018  -0.303987  -0.530721  -0.037186  2.372807  -0.022
O  O58  1  0.14071842  0.77994473  0.01068510  1  -0.630537  0.029433  2.100565  0.018  -0.554066  0.037425  2.365305  0.023  -0.58499  0.033672  2.351683  0.02  -0.303979  -0.530842  0.040503  2.373547  0.026
O  O59  1  0.64064760  0.22002907  0.48931777  1  -0.63028  -0.029105  2.099675  -0.017  -0.553981  -0.03512  2.364538  -0.02  -0.58491  -0.032369  2.350876  -0.018  -0.303984  -0.530722  -0.037183  2.372806  -0.022
