# generated using pymatgen
data_ZnH13C16(NO2)2
_symmetry_space_group_name_H-M   'P 1'
_cell_length_a   11.28570732
_cell_length_b   14.06557385
_cell_length_c   15.34737696
_cell_angle_alpha   91.57123620
_cell_angle_beta   91.40986869
_cell_angle_gamma   108.79692993
_symmetry_Int_Tables_number   1
_chemical_formula_structural   ZnH13C16(NO2)2
_chemical_formula_sum   'Zn2 H26 C32 N4 O8'
_cell_volume   2304.00162394
_cell_formula_units_Z   2
loop_
 _symmetry_equiv_pos_site_id
 _symmetry_equiv_pos_as_xyz
  1  'x, y, z'
loop_
 _atom_site_type_symbol
 _atom_site_label
 _atom_site_symmetry_multiplicity
 _atom_site_fract_x
 _atom_site_fract_y
 _atom_site_fract_z
 _atom_site_occupancy
 _atom_site_pbe_bader_charge
 _atom_site_pbe_bader_spin_density
 _atom_site_pbe_cm5_charge
 _atom_site_pbe_ddec_charge
 _atom_site_pbe_ddec_spin_density
 _atom_site_pbe_ddec_sum_bond_order
 _atom_site_pbe_magmom
Zn  Zn0  1  0.47449686  0.38963863  0.50532335  1  1.287578  0  0.669031  0.833242  0  2.382698  0
Zn  Zn1  1  0.51016451  0.60311074  0.50345814  1  1.292161  0  0.670353  0.835342  0  2.381096  0
H  H2  1  0.12225912  0.58044477  0.51001337  1  0.089432  0  0.105449  0.103209  0  0.992785  0
H  H3  1  0.39954828  0.60777196  0.23090962  1  0.07492  0  0.102511  0.105628  0  0.994978  0
H  H4  1  0.54893281  0.65769574  0.95335420  1  0.055505  0  0.096411  0.09787  0  1.017175  0
H  H5  1  0.56729035  0.38227583  0.05625566  1  0.051208  0  0.097193  0.098761  0  1.014798  0
H  H6  1  0.69133196  0.99343793  0.55557365  1  0.062443  0  0.108206  0.124456  0  1.00191  0
H  H7  1  0.38075948  0.02177755  0.38363986  1  0.089174  0  0.107299  0.123409  0  1.003564  0
H  H8  1  0.33533684  0.70050816  0.45731451  1  0.117784  0  0.120864  0.09778  0  1.009531  0
H  H9  1  0.58077223  0.27567348  0.61421201  1  0.126794  0  0.125075  0.102374  0  0.981431  0
H  H10  1  0.50746601  0.71486172  0.74507968  1  0.054716  0  0.093117  0.138759  0  0.992898  0
H  H11  1  0.61212465  0.75433717  0.83826310  1  0.005168  0  0.082379  0.111024  0  1.013286  0
H  H12  1  0.65634716  0.70162035  0.74203655  1  0.048156  0  0.089271  0.131052  0  1.005108  0
H  H13  1  0.86355398  0.40793321  0.50425117  1  0.109199  0  0.108052  0.107426  0  0.983159  0
H  H14  1  0.65898584  0.39799884  0.28334283  1  0.072301  0  0.095796  0.14251  0  0.985408  0
H  H15  1  0.53048268  0.29218236  0.25210759  1  0.041485  0  0.085088  0.117239  0  1.031151  0
H  H16  1  0.65492011  0.33689021  0.17938010  1  0.016812  0  0.087981  0.119793  0  1.00275  0
H  H17  1  0.73458401  0.74546373  0.54758691  1  0.536582  0  0.301152  0.32652  0  0.997523  0
H  H18  1  0.80117136  0.87397086  0.57453454  1  0.447204  0  0.320785  0.315122  0  0.924452  0
H  H19  1  0.32234781  0.15397561  0.31781989  1  0.455623  0  0.320143  0.313971  0  0.924193  0
H  H20  1  0.37488825  0.27776836  0.35903589  1  0.541949  0  0.304794  0.33268  0  0.974564  0
H  H21  1  0.30929881  0.87031403  0.45492457  1  0.094234  0  0.103581  0.113347  0  1.013218  0
H  H22  1  0.60092253  0.10445020  0.62495018  1  0.080085  0  0.105836  0.117523  0  1.007956  0
H  H23  1  0.05418650  0.34961845  0.50262380  1  0.079046  0  0.105632  0.122415  0  0.988225  0
H  H24  1  0.93411821  0.63883159  0.51411776  1  0.078591  0  0.101791  0.11691  0  0.996213  0
H  H25  1  0.40473509  0.33498422  0.93406260  1  0.056902  0  0.097354  0.098349  0  1.006293  0
H  H26  1  0.38697760  0.60888998  0.06840786  1  0.047981  0  0.099577  0.101539  0  1.002859  0
H  H27  1  0.41878951  0.34280222  0.77221592  1  0.119099  0  0.101901  0.107185  0  1.003633  0
C  C28  1  0.49624677  0.49960945  0.67422898  1  1.575688  0  0.214587  0.597513  0  4.161604  0
C  C29  1  0.53855220  0.21661722  0.56457755  1  0.413017  0  0.049377  0.120086  0  3.97631  0
C  C30  1  0.39812542  0.86222616  0.47620181  1  -0.069104  0  -0.110991  -0.236712  0  4.020906  0
C  C31  1  0.54999839  0.12201893  0.56990829  1  0.009876  0  -0.109606  -0.237369  0  4.010798  0
C  C32  1  0.50007975  0.94624648  0.50544406  1  -0.022119  0  0.007281  0.127815  0  4.030117  0
C  C33  1  0.49099219  0.04872178  0.50416261  1  -0.021411  0  0.008451  0.129589  0  4.027482  0
C  C34  1  0.73834214  0.53974840  0.50667296  1  1.559247  0  0.208607  0.635817  0  4.184128  0
C  C35  1  0.24909309  0.44992796  0.50178012  1  1.583334  0  0.206308  0.632366  0  4.187457  0
C  C36  1  0.87548945  0.56000537  0.51020621  1  -0.103632  0  -0.096307  -0.238705  0  3.900072  0
C  C37  1  0.11157347  0.42873305  0.50375818  1  -0.086611  0  -0.088762  -0.219558  0  3.878186  0
C  C38  1  0.92691178  0.48550489  0.50778891  1  -0.005052  0  -0.074749  -0.02527  0  4.022096  0
C  C39  1  0.48814220  0.49564936  0.33221412  1  1.523625  0  0.219217  0.608478  0  4.156443  0
C  C40  1  0.05945352  0.50269415  0.50771482  1  -0.048282  0  -0.079912  -0.039774  0  4.034399  0
C  C41  1  0.44000249  0.40723133  0.90324613  1  -0.017521  0  -0.101674  -0.153979  0  4.024455  0
C  C42  1  0.42867808  0.55875573  0.10095550  1  0.003085  0  -0.098066  -0.149584  0  4.015797  0
C  C43  1  0.44741923  0.41144084  0.81319576  1  -0.02391  0  -0.089293  -0.086846  0  4.025611  0
C  C44  1  0.43462691  0.55760896  0.19148943  1  -0.09302  0  -0.088356  -0.086477  0  4.023446  0
C  C45  1  0.49106696  0.50347925  0.77175697  1  -0.066586  0  -0.021405  -0.102191  0  3.915198  0
C  C46  1  0.48553509  0.49224754  0.23457034  1  0.049447  0  -0.022201  -0.102132  0  3.93635  0
C  C47  1  0.52734718  0.59448890  0.82257655  1  -0.03173  0  0.00156  0.173958  0  3.930091  0
C  C48  1  0.53372455  0.42723413  0.18580735  1  0.009011  0  -0.004756  0.159688  0  3.955285  0
C  C49  1  0.51807826  0.58821577  0.91322144  1  -0.033459  0  -0.097909  -0.207194  0  3.944535  0
C  C50  1  0.47611052  0.49646445  0.95493200  1  -0.07751  0  -0.007268  0.081947  0  4.0289  0
C  C51  1  0.52668635  0.42971016  0.09478658  1  -0.041667  0  -0.097422  -0.204969  0  3.950869  0
C  C52  1  0.57876911  0.69700136  0.78526978  1  -0.012551  0  -0.242816  -0.408215  0  3.98952  0
C  C53  1  0.59807245  0.36026322  0.22726941  1  -0.082052  0  -0.240763  -0.404241  0  3.977472  0
C  C54  1  0.47521478  0.49434895  0.05106425  1  -0.053264  0  -0.007999  0.079224  0  4.028141  0
C  C55  1  0.60950045  0.93032438  0.53423105  1  0.045208  0  -0.099574  -0.300615  0  3.902541  0
C  C56  1  0.42462527  0.07533197  0.43696244  1  -0.041729  0  -0.100006  -0.300777  0  3.908932  0
C  C57  1  0.61781280  0.83192100  0.53293971  1  0.970753  0  0.235783  0.464864  0  4.077123  0
C  C58  1  0.41820231  0.17400669  0.43473665  1  1.031062  0  0.233516  0.462248  0  4.080015  0
C  C59  1  0.41169122  0.76820101  0.47771976  1  0.462692  0  0.045084  0.114643  0  3.982006  0
N  N60  1  0.51800164  0.75198267  0.50521167  1  -1.248307  0  -0.333923  -0.317776  0  3.417971  0
N  N61  1  0.47447785  0.24306719  0.49924037  1  -1.244873  0  -0.33434  -0.316776  0  3.425367  0
N  N62  1  0.72398777  0.81456517  0.55962945  1  -1.279618  0  -0.573913  -0.632062  0  3.305085  0
N  N63  1  0.35545491  0.20242317  0.36933198  1  -1.30622  0  -0.576559  -0.634926  0  3.298782  0
O  O64  1  0.49264352  0.41591340  0.63769281  1  -1.172076  0  -0.321743  -0.558262  0  2.336053  0
O  O65  1  0.51441850  0.58145463  0.37043060  1  -1.154721  0  -0.315278  -0.539952  0  2.307359  0
O  O66  1  0.50247723  0.57921743  0.63433997  1  -1.165476  0  -0.311498  -0.540209  0  2.362788  0
O  O67  1  0.46258646  0.41209652  0.37059228  1  -1.189136  0  -0.310682  -0.565828  0  2.373687  0
O  O68  1  0.66747637  0.44914530  0.49761244  1  -1.160246  0  -0.31531  -0.553859  0  2.32606  0
O  O69  1  0.31754501  0.54100147  0.49388352  1  -1.185267  0  -0.320155  -0.566416  0  2.345973  0
O  O70  1  0.70070490  0.61668046  0.51220603  1  -1.178261  0  -0.317333  -0.564831  0  2.328413  0
O  O71  1  0.28753303  0.37430718  0.50809443  1  -1.152769  0  -0.325822  -0.548165  0  2.267922  0
