# generated using pymatgen
data_BaCdH14C16(NO5)2
_symmetry_space_group_name_H-M   'P 1'
_cell_length_a   8.06831426
_cell_length_b   8.23555457
_cell_length_c   14.32212927
_cell_angle_alpha   106.21175256
_cell_angle_beta   94.44610590
_cell_angle_gamma   99.71618542
_symmetry_Int_Tables_number   1
_chemical_formula_structural   BaCdH14C16(NO5)2
_chemical_formula_sum   'Ba2 Cd2 H28 C32 N4 O20'
_cell_volume   892.86929040
_cell_formula_units_Z   2
loop_
 _symmetry_equiv_pos_site_id
 _symmetry_equiv_pos_as_xyz
  1  'x, y, z'
loop_
 _atom_site_type_symbol
 _atom_site_label
 _atom_site_symmetry_multiplicity
 _atom_site_fract_x
 _atom_site_fract_y
 _atom_site_fract_z
 _atom_site_occupancy
 _atom_site_hle17_bader_spin_density
 _atom_site_hle17_ddec_charge
 _atom_site_hle17_ddec_spin_density
 _atom_site_hle17_ddec_sum_bond_order
 _atom_site_hle17_magmom
 _atom_site_hse06_10hf_bader_spin_density
 _atom_site_hse06_10hf_ddec_charge
 _atom_site_hse06_10hf_ddec_spin_density
 _atom_site_hse06_10hf_ddec_sum_bond_order
 _atom_site_hse06_10hf_magmom
 _atom_site_hse06_bader_spin_density
 _atom_site_hse06_ddec_charge
 _atom_site_hse06_ddec_spin_density
 _atom_site_hse06_ddec_sum_bond_order
 _atom_site_hse06_magmom
 _atom_site_pbe_bader_spin_density
 _atom_site_pbe_cm5_charge
 _atom_site_pbe_ddec_charge
 _atom_site_pbe_ddec_spin_density
 _atom_site_pbe_ddec_sum_bond_order
 _atom_site_pbe_magmom
Ba  Ba0  1  0.37045179  0.26365232  0.72406555  1  0  1.648055  0  1.082569  0  0  1.499456  0  1.47468  0  0  1.537742  0  1.435086  0  0  0.896282  1.471258  0  1.502826  0
Ba  Ba1  1  0.62954871  0.73634898  0.27593360  1  0  1.64801  0  1.082598  0  0  1.499432  0  1.474685  0  0  1.537718  0  1.435091  0  0  0.896263  1.471216  0  1.502816  0
Cd  Cd2  1  0.48970473  0.14137483  0.17987721  1  0  1.207762  0  1.559299  0  0  1.024755  0  1.987893  0  0  1.086697  0  1.931854  0  0  0.793945  0.980578  0  2.026129  0
Cd  Cd3  1  0.51029772  0.85862388  0.82012091  1  0  1.20778  0  1.559244  0  0  1.024775  0  1.98783  0  0  1.086719  0  1.931792  0  0  0.79395  0.980607  0  2.026072  0
H  H4  1  0.15359478  0.99919652  0.81999682  1  0  0.426963  0  0.863655  0  0  0.398102  0  0.926992  0  0  0.407984  0  0.91237  0  0  0.296422  0.391081  0  0.937377  0
H  H5  1  0.84640270  0.00080222  0.18000317  1  0  0.426955  0  0.86367  0  0  0.398088  0  0.927015  0  0  0.407971  0  0.912392  0  0  0.296416  0.391068  0  0.937399  0
H  H6  1  0.01011506  0.10922003  0.83610496  1  0  0.428002  0  0.875855  0  0  0.397418  0  0.9398  0  0  0.40818  0  0.923921  0  0  0.287977  0.389787  0  0.951047  0
H  H7  1  0.98988243  0.89077872  0.16389294  1  0  0.427994  0  0.875859  0  0  0.397418  0  0.939798  0  0  0.408173  0  0.923923  0  0  0.287962  0.389784  0  0.951053  0
H  H8  1  0.97613414  0.15556765  0.57091992  1  0  0.318201  0  0.895195  0  0  0.308017  0  0.952485  0  0  0.314311  0  0.947255  0  0  0.306496  0.303471  0  0.95628  0
H  H9  1  0.02386262  0.84443368  0.42908047  1  0  0.318199  0  0.895223  0  0  0.308023  0  0.952496  0  0  0.314316  0  0.947267  0  0  0.306506  0.303477  0  0.956292  0
H  H10  1  0.96143208  0.32571560  0.66195595  1  0  0.317539  0  0.888372  0  0  0.310029  0  0.941994  0  0  0.315243  0  0.938648  0  0  0.309084  0.306267  0  0.944465  0
H  H11  1  0.03856920  0.67428957  0.33804456  1  0  0.317547  0  0.888396  0  0  0.310035  0  0.942028  0  0  0.315249  0  0.938683  0  0  0.309083  0.306272  0  0.944502  0
H  H12  1  0.67816204  0.10006168  0.57581447  1  0  0.410688  0  0.896809  0  0  0.381385  0  0.960214  0  0  0.391951  0  0.944563  0  0  0.286395  0.373897  0  0.971287  0
H  H13  1  0.32184119  0.89994088  0.42418641  1  0  0.410667  0  0.896835  0  0  0.381365  0  0.960239  0  0  0.391931  0  0.944588  0  0  0.286319  0.373872  0  0.97132  0
H  H14  1  0.66970585  0.01813814  0.66177629  1  0  0.427699  0  0.872745  0  0  0.397879  0  0.934974  0  0  0.408503  0  0.919388  0  0  0.291885  0.390354  0  0.946004  0
H  H15  1  0.33029836  0.98186313  0.33822372  1  0  0.427709  0  0.87273  0  0  0.397887  0  0.934962  0  0  0.408513  0  0.919375  0  0  0.291897  0.390364  0  0.945988  0
H  H16  1  0.02969558  0.11412671  0.07606624  1  0  0.116647  0  0.953451  0  0  0.126681  0  1.016956  0  0  0.13053  0  1.013764  0  0  0.111435  0.123899  0  1.019268  0
H  H17  1  0.97030437  0.88587200  0.92393596  1  0  0.11667  0  0.953457  0  0  0.126665  0  1.016998  0  0  0.130512  0  1.013815  0  0  0.111426  0.123884  0  1.019306  0
H  H18  1  0.43497976  0.20274941  0.99268335  1  0  0.321181  0  0.906007  0  0  0.306522  0  0.965559  0  0  0.313447  0  0.960956  0  0  0.298558  0.301536  0  0.968926  0
H  H19  1  0.56501949  0.79725190  0.00731645  1  0  0.321158  0  0.906063  0  0  0.306501  0  0.965617  0  0  0.313427  0  0.961013  0  0  0.298554  0.301514  0  0.968985  0
H  H20  1  0.27869661  0.05173568  0.00176325  1  0  0.3232  0  0.906259  0  0  0.305496  0  0.971649  0  0  0.312888  0  0.9661  0  0  0.297877  0.30018  0  0.975699  0
H  H21  1  0.72130236  0.94826433  0.99823772  1  0  0.323184  0  0.906274  0  0  0.305475  0  0.971672  0  0  0.312864  0  0.96613  0  0  0.297872  0.300157  0  0.975722  0
H  H22  1  0.16340978  0.16632816  0.44592832  1  0  0.118696  0  0.942933  0  0  0.130063  0  1.001755  0  0  0.134522  0  0.998111  0  0  0.11382  0.126712  0  1.004662  0
H  H23  1  0.83659266  0.83367053  0.55407190  1  0  0.118744  0  0.94295  0  0  0.130124  0  1.00175  0  0  0.134578  0  0.998112  0  0  0.113842  0.126781  0  1.004645  0
H  H24  1  0.43894568  0.50988632  0.06087301  1  0  0.099472  0  0.975  0  0  0.10942  0  1.041216  0  0  0.113089  0  1.038263  0  0  0.113301  0.106741  0  1.04346  0
H  H25  1  0.56105205  0.49011371  0.93912791  1  0  0.099493  0  0.974937  0  0  0.109427  0  1.041169  0  0  0.113107  0  1.0382  0  0  0.113292  0.106753  0  1.043408  0
H  H26  1  0.96322013  0.63901517  0.14204276  1  0  0.107424  0  0.988958  0  0  0.117032  0  1.055729  0  0  0.120737  0  1.052658  0  0  0.115883  0.114347  0  1.057982  0
H  H27  1  0.03677983  0.36098355  0.85795735  1  0  0.107405  0  0.988961  0  0  0.117011  0  1.055746  0  0  0.120717  0  1.052675  0  0  0.115879  0.114328  0  1.057987  0
H  H28  1  0.38123159  0.67253078  0.43523410  1  0  0.094804  0  0.989153  0  0  0.106893  0  1.054498  0  0  0.110375  0  1.051825  0  0  0.112802  0.104374  0  1.056485  0
H  H29  1  0.61877458  0.32746789  0.56476488  1  0  0.094749  0  0.989155  0  0  0.106819  0  1.054537  0  0  0.110295  0  1.051883  0  0  0.112768  0.104296  0  1.05653  0
H  H30  1  0.10969799  0.61673119  0.67477353  1  0  0.112407  0  0.943952  0  0  0.123381  0  1.003897  0  0  0.126463  0  1.002473  0  0  0.110685  0.121154  0  1.004998  0
H  H31  1  0.89030720  0.38326878  0.32522631  1  0  0.112394  0  0.943965  0  0  0.123357  0  1.003915  0  0  0.126439  0  1.002491  0  0  0.110673  0.121127  0  1.005014  0
C  C32  1  0.07989859  0.24883766  0.08339075  1  0  -0.136401  0  3.634717  0  0  -0.173221  0  3.887368  0  0  -0.173066  0  3.903899  0  0  -0.081308  -0.173077  0  3.876321  0
C  C33  1  0.92010040  0.75116236  0.91660813  1  0  -0.136454  0  3.634734  0  0  -0.173231  0  3.887395  0  0  -0.173077  0  3.903924  0  0  -0.081314  -0.173092  0  3.876356  0
C  C34  1  0.12375434  0.37833710  0.56600932  1  0  0.261335  0  3.886953  0  0  0.263409  0  4.138561  0  0  0.269145  0  4.162406  0  0  0.085512  0.259272  0  4.122248  0
C  C35  1  0.87624908  0.62166029  0.43399073  1  0  0.261425  0  3.886952  0  0  0.263465  0  4.138613  0  0  0.269201  0  4.162456  0  0  0.085532  0.259325  0  4.122298  0
C  C36  1  0.18694635  0.30590315  0.47826724  1  0  -0.178508  0  3.670354  0  0  -0.209283  0  3.920458  0  0  -0.211013  0  3.937881  0  0  -0.083503  -0.207837  0  3.908743  0
C  C37  1  0.81306008  0.69409679  0.52173336  1  0  -0.178563  0  3.670424  0  0  -0.209351  0  3.920555  0  0  -0.211077  0  3.937978  0  0  -0.083515  -0.207908  0  3.908829  0
C  C38  1  0.24458351  0.29752981  0.06339961  1  0  0.293163  0  3.796409  0  0  0.293993  0  4.044461  0  0  0.299981  0  4.065956  0  0  0.096028  0.289571  0  4.029967  0
C  C39  1  0.75541521  0.70246892  0.93659905  1  0  0.293183  0  3.796426  0  0  0.293991  0  4.0445  0  0  0.29998  0  4.065997  0  0  0.096044  0.289576  0  4.030004  0
C  C40  1  0.30955155  0.47157619  0.07495479  1  0  -0.172559  0  3.687118  0  0  -0.203645  0  3.935445  0  0  -0.204864  0  3.953708  0  0  -0.078389  -0.202482  0  3.923074  0
C  C41  1  0.69044744  0.52842384  0.92504409  1  0  -0.172622  0  3.687097  0  0  -0.203682  0  3.93544  0  0  -0.204913  0  3.953705  0  0  -0.0784  -0.202524  0  3.923067  0
C  C42  1  0.04443985  0.54570917  0.12228392  1  0  -0.087811  0  3.715338  0  0  -0.128513  0  3.964157  0  0  -0.127244  0  3.98418  0  0  -0.079322  -0.129141  0  3.950695  0
C  C43  1  0.95556186  0.45429211  0.87771878  1  0  -0.087751  0  3.715236  0  0  -0.128449  0  3.964047  0  0  -0.127179  0  3.984071  0  0  -0.079278  -0.129065  0  3.950572  0
C  C44  1  0.30858333  0.59145101  0.47180587  1  0  -0.104145  0  3.731343  0  0  -0.145342  0  3.983637  0  0  -0.145081  0  4.002712  0  0  -0.086322  -0.14534  0  3.970849  0
C  C45  1  0.69142035  0.40854768  0.52819300  1  0  -0.103939  0  3.73131  0  0  -0.145131  0  3.983598  0  0  -0.144874  0  4.002668  0  0  -0.086241  -0.145133  0  3.970812  0
C  C46  1  0.27974134  0.41242684  0.43173900  1  0  -0.043737  0  3.791203  0  0  -0.018702  0  4.029597  0  0  -0.02488  0  4.051019  0  0  -0.015119  -0.014765  0  4.015141  0
C  C47  1  0.72026358  0.58757183  0.56826132  1  0  -0.043865  0  3.791329  0  0  -0.018815  0  4.029722  0  0  -0.024993  0  4.051142  0  0  -0.015153  -0.014878  0  4.015265  0
C  C48  1  0.24805648  0.66415439  0.55927171  1  0  -0.036377  0  3.781918  0  0  -0.012627  0  4.019043  0  0  -0.017681  0  4.039019  0  0  -0.01262  -0.009521  0  4.005722  0
C  C49  1  0.75194870  0.33584557  0.44072813  1  0  -0.03637  0  3.782012  0  0  -0.012582  0  4.019088  0  0  -0.017634  0  4.039063  0  0  -0.012601  -0.009472  0  4.005755  0
C  C50  1  0.15719135  0.55839041  0.60669534  1  0  -0.168074  0  3.678085  0  0  -0.198217  0  3.928929  0  0  -0.200641  0  3.948492  0  0  -0.081878  -0.196381  0  3.915796  0
C  C51  1  0.84281384  0.44160955  0.39330450  1  0  -0.168123  0  3.678338  0  0  -0.198252  0  3.929182  0  0  -0.200677  0  3.948743  0  0  -0.081894  -0.196411  0  3.916037  0
C  C52  1  0.21018902  0.59610355  0.10444937  1  0  -0.059822  0  3.795015  0  0  -0.032069  0  4.02954  0  0  -0.039724  0  4.052813  0  0  -0.011016  -0.027212  0  4.013918  0
C  C53  1  0.78980898  0.40389776  0.89555177  1  0  -0.05982  0  3.794945  0  0  -0.032073  0  4.029487  0  0  -0.03973  0  4.052763  0  0  -0.011034  -0.027219  0  4.013867  0
C  C54  1  0.35255763  0.33790879  0.34019493  1  0  0.660738  0  3.897792  0  0  0.609873  0  4.184471  0  0  0.644246  0  4.178504  0  0  0.210872  0.586581  0  4.187623  0
C  C55  1  0.64744783  0.66209246  0.65980443  1  0  0.660819  0  3.89778  0  0  0.609937  0  4.184483  0  0  0.644312  0  4.178513  0  0  0.210896  0.586651  0  4.187632  0
C  C56  1  0.28101017  0.78279803  0.11822712  1  0  0.650722  0  3.901035  0  0  0.598138  0  4.191988  0  0  0.631837  0  4.186002  0  0  0.211368  0.575299  0  4.19524  0
C  C57  1  0.71898979  0.21720068  0.88177368  1  0  0.650822  0  3.901226  0  0  0.598223  0  4.192192  0  0  0.631925  0  4.186205  0  0  0.211438  0.575383  0  4.195445  0
C  C58  1  0.28347541  0.85583296  0.60381514  1  0  0.668557  0  3.894633  0  0  0.618973  0  4.182421  0  0  0.653902  0  4.173072  0  0  0.209803  0.59523  0  4.188025  0
C  C59  1  0.71652979  0.14416701  0.39618400  1  0  0.668322  0  3.894868  0  0  0.618726  0  4.182672  0  0  0.653654  0  4.173324  0  0  0.209631  0.594984  0  4.188267  0
C  C60  1  0.80199845  0.32093705  0.13165529  1  0  0.655338  0  3.910049  0  0  0.602439  0  4.203772  0  0  0.637019  0  4.196428  0  0  0.20976  0.578995  0  4.20795  0
C  C61  1  0.19800106  0.67906555  0.86834542  1  0  0.655398  0  3.909954  0  0  0.602501  0  4.203679  0  0  0.637085  0  4.196329  0  0  0.20975  0.579065  0  4.207855  0
C  C62  1  0.98003310  0.37267716  0.11255721  1  0  -0.054429  0  3.781816  0  0  -0.029442  0  4.021686  0  0  -0.037408  0  4.044405  0  0  -0.016718  -0.024398  0  4.006494  0
C  C63  1  0.01996862  0.62732413  0.88744408  1  0  -0.05443  0  3.781744  0  0  -0.029451  0  4.021612  0  0  -0.037416  0  4.044328  0  0  -0.016724  -0.024411  0  4.006422  0
N  N64  1  0.04122709  0.27136359  0.61634746  1  0  -0.708486  0  3.107805  0  0  -0.673371  0  3.338311  0  0  -0.691952  0  3.33882  0  0  -0.631762  -0.660036  0  3.337767  0
N  N65  1  0.95877437  0.72863641  0.38365222  1  0  -0.708516  0  3.107828  0  0  -0.673397  0  3.338335  0  0  -0.691978  0  3.338843  0  0  -0.631776  -0.66006  0  3.337797  0
N  N66  1  0.34789901  0.17325529  0.03720739  1  0  -0.680137  0  3.135318  0  0  -0.622951  0  3.375578  0  0  -0.645523  0  3.372416  0  0  -0.602786  -0.607056  0  3.377604  0
N  N67  1  0.65210023  0.82674602  0.96279311  1  0  -0.680092  0  3.135311  0  0  -0.622901  0  3.375604  0  0  -0.645474  0  3.372444  0  0  -0.602779  -0.607001  0  3.377622  0
O  O68  1  0.43797545  0.43674999  0.29964193  1  0  -0.716185  0  1.999255  0  0  -0.651655  0  2.246801  0  0  -0.681323  0  2.241129  0  0  -0.360167  -0.630809  0  2.250076  0
O  O69  1  0.56202575  0.56324871  0.70035753  1  0  -0.716226  0  1.999201  0  0  -0.651679  0  2.24673  0  0  -0.681346  0  2.241057  0  0  -0.360163  -0.630837  0  2.250017  0
O  O70  1  0.32683794  0.17296045  0.30502150  1  0  -0.649813  0  2.050162  0  0  -0.572911  0  2.285251  0  0  -0.603923  0  2.275492  0  0  -0.313972  -0.551234  0  2.291163  0
O  O71  1  0.67316548  0.82703695  0.69497715  1  0  -0.649828  0  2.050205  0  0  -0.572934  0  2.285323  0  0  -0.603946  0  2.275563  0  0  -0.313996  -0.551265  0  2.291257  0
O  O72  1  0.18458120  0.88892202  0.12285712  1  0  -0.61358  0  2.007205  0  0  -0.554215  0  2.236488  0  0  -0.580263  0  2.229266  0  0  -0.29953  -0.536008  0  2.240831  0
O  O73  1  0.81541805  0.11107929  0.87714268  1  0  -0.613614  0  2.007423  0  0  -0.554255  0  2.236728  0  0  -0.580297  0  2.229494  0  0  -0.299559  -0.536044  0  2.24107  0
O  O74  1  0.12355569  0.10658108  0.81378876  1  0  -0.885758  0  1.791681  0  0  -0.832955  0  1.969894  0  0  -0.851313  0  1.938597  0  0  -0.640104  -0.819817  0  1.991837  0
O  O75  1  0.87644304  0.89341766  0.18620920  1  0  -0.885729  0  1.791714  0  0  -0.832947  0  1.969909  0  0  -0.851296  0  1.938637  0  0  -0.640074  -0.819803  0  1.991856  0
O  O76  1  0.66010522  0.12580311  0.64571618  1  0  -0.880495  0  1.774209  0  0  -0.830373  0  1.944811  0  0  -0.849381  0  1.91471  0  0  -0.620077  -0.816756  0  1.965898  0
O  O77  1  0.33989748  0.87419687  0.35428495  1  0  -0.880487  0  1.774221  0  0  -0.830373  0  1.944839  0  0  -0.849383  0  1.914737  0  0  -0.620027  -0.816756  0  1.965925  0
O  O78  1  0.44527623  0.82891545  0.12684297  1  0  -0.726171  0  1.995987  0  0  -0.6469  0  2.239437  0  0  -0.676878  0  2.229311  0  0  -0.364372  -0.625706  0  2.24566  0
O  O79  1  0.55472373  0.17108326  0.87315713  1  0  -0.726211  0  1.99601  0  0  -0.646921  0  2.239454  0  0  -0.676899  0  2.229329  0  0  -0.364382  -0.62573  0  2.245684  0
O  O80  1  0.32604912  0.91471489  0.69658057  1  0  -0.714788  0  2.097777  0  0  -0.640654  0  2.352042  0  0  -0.671435  0  2.34222  0  0  -0.37331  -0.618935  0  2.358007  0
O  O81  1  0.67395536  0.08528767  0.30341827  1  0  -0.714671  0  2.097785  0  0  -0.640555  0  2.352067  0  0  -0.671337  0  2.34225  0  0  -0.373272  -0.618836  0  2.358022  0
O  O82  1  0.26953310  0.95345377  0.54957685  1  0  -0.683302  0  1.931564  0  0  -0.623446  0  2.153693  0  0  -0.648977  0  2.143552  0  0  -0.335809  -0.605457  0  2.160131  0
O  O83  1  0.73047360  0.04654747  0.45042258  1  0  -0.683213  0  1.931649  0  0  -0.623345  0  2.153766  0  0  -0.648875  0  2.143627  0  0  -0.335718  -0.605357  0  2.16019  0
O  O84  1  0.74615140  0.15893660  0.11911193  1  0  -0.670633  0  2.046041  0  0  -0.59096  0  2.287143  0  0  -0.621166  0  2.276027  0  0  -0.319032  -0.569859  0  2.294168  0
O  O85  1  0.25384910  0.84106470  0.88088722  1  0  -0.670656  0  2.046074  0  0  -0.59099  0  2.287183  0  0  -0.621208  0  2.276077  0  0  -0.319034  -0.569875  0  2.294175  0
O  O86  1  0.71349267  0.43413854  0.15964819  1  0  -0.697386  0  1.970187  0  0  -0.63789  0  2.220842  0  0  -0.66504  0  2.212809  0  0  -0.359071  -0.618752  0  2.225734  0
O  O87  1  0.28651029  0.56586273  0.84035455  1  0  -0.697445  0  1.970077  0  0  -0.637945  0  2.220724  0  0  -0.665093  0  2.212689  0  0  -0.359059  -0.618812  0  2.225616  0
