# generated using pymatgen
data_ZnH22C26N2O5F4
_symmetry_space_group_name_H-M   'P 1'
_cell_length_a   11.70226455
_cell_length_b   12.51990180
_cell_length_c   16.72505039
_cell_angle_alpha   89.99988056
_cell_angle_beta   90.63841280
_cell_angle_gamma   89.99986188
_symmetry_Int_Tables_number   1
_chemical_formula_structural   ZnH22C26N2O5F4
_chemical_formula_sum   'Zn4 H88 C104 N8 O20 F16'
_cell_volume   2450.25514172
_cell_formula_units_Z   4
loop_
 _symmetry_equiv_pos_site_id
 _symmetry_equiv_pos_as_xyz
  1  'x, y, z'
loop_
 _atom_site_type_symbol
 _atom_site_label
 _atom_site_symmetry_multiplicity
 _atom_site_fract_x
 _atom_site_fract_y
 _atom_site_fract_z
 _atom_site_occupancy
 _atom_site_pbe_bader_charge
 _atom_site_pbe_bader_spin_density
 _atom_site_pbe_cm5_charge
 _atom_site_pbe_ddec_charge
 _atom_site_pbe_ddec_spin_density
 _atom_site_pbe_ddec_sum_bond_order
 _atom_site_pbe_magmom
Zn  Zn0  1  0.35036526  0.24743490  0.25077998  1  1.250152  0  0.695472  0.75587  0  2.374866  0
Zn  Zn1  1  0.14963783  0.74743426  0.24921995  1  1.250336  0  0.695493  0.755919  0  2.374944  0
Zn  Zn2  1  0.64963109  0.75256403  0.74922000  1  1.250071  0  0.695472  0.7559  0  2.374849  0
Zn  Zn3  1  0.85036621  0.25256627  0.75077888  1  1.250334  0  0.695485  0.755923  0  2.374868  0
H  H4  1  0.27360358  0.27110905  0.42482004  1  0.108706  0  0.113793  0.089114  0  1.036712  0
H  H5  1  0.22639774  0.77110633  0.07518045  1  0.108747  0  0.113779  0.089107  0  1.036735  0
H  H6  1  0.72639534  0.72889387  0.57518116  1  0.108712  0  0.113793  0.089122  0  1.036706  0
H  H7  1  0.77360459  0.22889181  0.92481897  1  0.108698  0  0.113796  0.089141  0  1.036711  0
H  H8  1  0.18519662  0.07349525  0.23367095  1  0.138983  0  0.11522  0.086684  0  1.010276  0
H  H9  1  0.31480521  0.57349259  0.26633044  1  0.139193  0  0.115243  0.086709  0  1.010198  0
H  H10  1  0.81480059  0.92650688  0.76633143  1  0.138651  0  0.115238  0.086708  0  1.01016  0
H  H11  1  0.68519627  0.42650395  0.73366957  1  0.139666  0  0.115243  0.0867  0  1.010248  0
H  H12  1  0.12004047  0.19722914  0.50830261  1  0.1285  0  0.107935  0.129334  0  1.032624  0
H  H13  1  0.37995987  0.69722810  0.99169588  1  0.128516  0  0.107905  0.129284  0  1.032627  0
H  H14  1  0.87995844  0.80277139  0.49169679  1  0.128574  0  0.10793  0.129311  0  1.032647  0
H  H15  1  0.62004246  0.30277243  0.00830294  1  0.128561  0  0.107916  0.129279  0  1.032664  0
H  H16  1  0.03174987  0.98674449  0.31169706  1  0.124385  0  0.111279  0.130778  0  1.004553  0
H  H17  1  0.46825003  0.48674424  0.18830128  1  0.124359  0  0.111269  0.130771  0  1.004604  0
H  H18  1  0.96824905  0.01325524  0.68830533  1  0.124367  0  0.11126  0.130766  0  1.004562  0
H  H19  1  0.53175059  0.51325389  0.81169574  1  0.124375  0  0.111273  0.130779  0  1.004589  0
H  H20  1  0.91321862  0.98810836  0.43086270  1  0.023807  0  0.098604  0.102021  0  0.983864  0
H  H21  1  0.58678095  0.48810930  0.06913553  1  0.023854  0  0.09857  0.101988  0  0.983862  0
H  H22  1  0.08677858  0.01188898  0.56913549  1  0.023892  0  0.098569  0.101967  0  0.983927  0
H  H23  1  0.41322138  0.51188884  0.93086329  1  0.023877  0  0.098578  0.102007  0  0.983883  0
H  H24  1  0.92293033  0.09914601  0.49760063  1  0.072709  0  0.099268  0.111404  0  0.985913  0
H  H25  1  0.57706769  0.59914622  0.00239820  1  0.072735  0  0.099268  0.111398  0  0.985884  0
H  H26  1  0.07706517  0.90084973  0.50239935  1  0.072657  0  0.099248  0.111351  0  0.98593  0
H  H27  1  0.42293379  0.40085112  0.99760121  1  0.072725  0  0.099268  0.111391  0  0.985897  0
H  H28  1  0.91706071  0.52187118  0.06898162  1  0.05061  0  0.100835  0.106843  0  0.981198  0
H  H29  1  0.58293836  0.02187032  0.43101853  1  0.05062  0  0.100831  0.10682  0  0.981228  0
H  H30  1  0.08293820  0.47812936  0.93101778  1  0.050602  0  0.100839  0.10685  0  0.981198  0
H  H31  1  0.41706055  0.97812861  0.56898146  1  0.050584  0  0.100847  0.106876  0  0.981193  0
H  H32  1  0.91474219  0.40709161  0.00567568  1  0.063279  0  0.101767  0.112813  0  0.976562  0
H  H33  1  0.58525759  0.90708963  0.49432507  1  0.063419  0  0.10176  0.112784  0  0.97661  0
H  H34  1  0.08525843  0.59290972  0.99432493  1  0.06338  0  0.101756  0.112805  0  0.976617  0
H  H35  1  0.41474133  0.09290930  0.50567552  1  0.063423  0  0.101762  0.112808  0  0.976625  0
H  H36  1  0.02960473  0.51104444  0.19196879  1  0.112871  0  0.110371  0.125918  0  1.018482  0
H  H37  1  0.47039470  0.01104545  0.30803029  1  0.112866  0  0.110356  0.125919  0  1.018453  0
H  H38  1  0.97039504  0.48895529  0.80803001  1  0.112855  0  0.110374  0.125949  0  1.018495  0
H  H39  1  0.52960422  0.98895588  0.69197090  1  0.112852  0  0.110358  0.125913  0  1.018507  0
H  H40  1  0.10955704  0.30258154  0.99435347  1  0.157415  0  0.105169  0.124087  0  1.052866  0
H  H41  1  0.39044047  0.80258343  0.50564544  1  0.156987  0  0.105154  0.12406  0  1.052866  0
H  H42  1  0.89044188  0.69741740  0.00564533  1  0.156962  0  0.105156  0.124074  0  1.052871  0
H  H43  1  0.60955674  0.19741631  0.49435275  1  0.15696  0  0.10517  0.124076  0  1.052872  0
H  H44  1  0.18162228  0.41998754  0.27077018  1  0.094707  0  0.118563  0.092872  0  0.997858  0
H  H45  1  0.31837779  0.91998737  0.22922826  1  0.094679  0  0.118574  0.092876  0  0.997817  0
H  H46  1  0.81837834  0.58001220  0.72922923  1  0.094714  0  0.118569  0.092873  0  0.997834  0
H  H47  1  0.68162027  0.08001237  0.77077053  1  0.094715  0  0.118586  0.092892  0  0.997813  0
H  H48  1  0.26433085  0.22370821  0.07976236  1  0.128688  0  0.109593  0.077469  0  1.040886  0
H  H49  1  0.23566888  0.72370770  0.42023639  1  0.128662  0  0.109564  0.077441  0  1.040867  0
H  H50  1  0.73566892  0.77629072  0.92023644  1  0.128611  0  0.109564  0.077435  0  1.040886  0
H  H51  1  0.76432918  0.27629123  0.57976241  1  0.128709  0  0.109578  0.077415  0  1.040931  0
H  H52  1  0.58917969  0.58089086  0.29634125  1  0.01848  0  0.098769  0.112509  0  0.982912  0
H  H53  1  0.91082008  0.08089150  0.20365822  1  0.018495  0  0.098771  0.112497  0  0.9829  0
H  H54  1  0.41081922  0.41910887  0.70365994  1  0.018504  0  0.098782  0.112501  0  0.98293  0
H  H55  1  0.08917883  0.91910903  0.79634058  1  0.018477  0  0.098771  0.112506  0  0.982897  0
H  H56  1  0.70289939  0.51137175  0.34420952  1  0.052592  0  0.089624  0.097393  0  1.040772  0
H  H57  1  0.79710057  0.01137198  0.15578947  1  0.052613  0  0.089621  0.097387  0  1.040726  0
H  H58  1  0.29710038  0.48862719  0.65579049  1  0.052617  0  0.08963  0.097392  0  1.040759  0
H  H59  1  0.20289834  0.98862696  0.84420874  1  0.052632  0  0.089618  0.097412  0  1.040748  0
H  H60  1  0.73157197  0.84795580  0.36158947  1  0.036404  0  0.096014  0.104107  0  1.000033  0
H  H61  1  0.76842882  0.34795535  0.13841079  1  0.036427  0  0.096029  0.10412  0  1.000002  0
H  H62  1  0.26843122  0.15204473  0.63841056  1  0.036463  0  0.096034  0.10414  0  1.000004  0
H  H63  1  0.23156924  0.65204279  0.86158920  1  0.036446  0  0.096024  0.104106  0  1.000005  0
H  H64  1  0.60922631  0.80485105  0.30663561  1  0.049702  0  0.097679  0.110062  0  0.988606  0
H  H65  1  0.89077545  0.30485016  0.19336531  1  0.049718  0  0.097686  0.110049  0  0.988639  0
H  H66  1  0.39077688  0.19514869  0.69336561  1  0.04967  0  0.097709  0.110078  0  0.988703  0
H  H67  1  0.10922346  0.69514798  0.80663349  1  0.049696  0  0.097709  0.110085  0  0.988673  0
H  H68  1  0.83849245  0.57447846  0.24170943  1  0.006427  0  0.08549  0.081945  0  0.999101  0
H  H69  1  0.66150820  0.07447791  0.25829065  1  0.00643  0  0.085493  0.081971  0  0.999098  0
H  H70  1  0.16150476  0.42552047  0.75829056  1  0.006377  0  0.08548  0.081954  0  0.999081  0
H  H71  1  0.33849242  0.92552022  0.74170876  1  0.006426  0  0.085483  0.081937  0  0.999131  0
H  H72  1  0.71821716  0.51980971  0.19191714  1  0.014752  0  0.087225  0.078277  0  1.005262  0
H  H73  1  0.78178278  0.01980955  0.30808243  1  0.014754  0  0.087222  0.078268  0  1.00532  0
H  H74  1  0.28177919  0.48018922  0.80808284  1  0.014772  0  0.087222  0.078259  0  1.005311  0
H  H75  1  0.21821700  0.98018859  0.69191758  1  0.014774  0  0.087213  0.078285  0  1.005267  0
H  H76  1  0.75206585  0.86227719  0.20971042  1  0.039061  0  0.084815  0.080155  0  1.028747  0
H  H77  1  0.74793490  0.36227636  0.29028982  1  0.039067  0  0.084822  0.080165  0  1.028743  0
H  H78  1  0.24793648  0.13772254  0.79029020  1  0.039362  0  0.084803  0.080144  0  1.028736  0
H  H79  1  0.25206402  0.63772258  0.70971078  1  0.03905  0  0.084814  0.080159  0  1.028757  0
H  H80  1  0.85813615  0.78017413  0.25399566  1  0.042843  0  0.085602  0.086558  0  1.0045  0
H  H81  1  0.64186481  0.28017446  0.24600350  1  0.042859  0  0.085604  0.086549  0  1.004514  0
H  H82  1  0.14186447  0.21982401  0.74600435  1  0.042861  0  0.08561  0.086556  0  1.004477  0
H  H83  1  0.35813582  0.71982528  0.75399710  1  0.042853  0  0.085602  0.086531  0  1.004522  0
H  H84  1  0.63821032  0.70277053  0.17010267  1  0.029135  0  0.079142  0.073892  0  1.012388  0
H  H85  1  0.86179000  0.20277013  0.32989721  1  0.029119  0  0.079139  0.073906  0  1.012371  0
H  H86  1  0.36178775  0.29723000  0.82989852  1  0.029151  0  0.079154  0.073928  0  1.012386  0
H  H87  1  0.13821063  0.79722881  0.67010160  1  0.029123  0  0.079146  0.073889  0  1.012386  0
H  H88  1  0.77820092  0.69520567  0.13158120  1  0.033843  0  0.08616  0.088067  0  1.011903  0
H  H89  1  0.72179942  0.19520548  0.36841809  1  0.033859  0  0.086149  0.08804  0  1.011864  0
H  H90  1  0.22179800  0.30479326  0.86841939  1  0.033813  0  0.086132  0.088058  0  1.01191  0
H  H91  1  0.27820035  0.80479266  0.63158131  1  0.033849  0  0.08613  0.088025  0  1.011839  0
C  C92  1  0.46883003  0.33941695  0.37325027  1  1.60696  0  0.208182  0.597384  0  4.217323  0
C  C93  1  0.03117282  0.83941612  0.12674952  1  1.60697  0  0.208159  0.597434  0  4.217406  0
C  C94  1  0.53117060  0.66058278  0.62675213  1  1.607004  0  0.208127  0.597339  0  4.217475  0
C  C95  1  0.96883122  0.16058442  0.87324872  1  1.606958  0  0.208191  0.597473  0  4.217192  0
C  C96  1  0.48626744  0.42500218  0.43595247  1  0.142524  0  -0.024086  -0.205246  0  3.999782  0
C  C97  1  0.01373262  0.92500475  0.06404776  1  0.142302  0  -0.024072  -0.205291  0  3.999882  0
C  C98  1  0.51373062  0.57499835  0.56404812  1  0.14255  0  -0.024028  -0.205194  0  3.999645  0
C  C99  1  0.98626886  0.07499977  0.93595345  1  0.142306  0  -0.024027  -0.20523  0  3.999733  0
C  C100  1  0.58930478  0.43577845  0.47805305  1  0.50216  0  0.093102  0.152276  0  4.082089  0
C  C101  1  0.91069664  0.93577945  0.02194767  1  0.502396  0  0.093119  0.152382  0  4.082011  0
C  C102  1  0.41069414  0.56422368  0.52194635  1  0.502182  0  0.093073  0.152283  0  4.08186  0
C  C103  1  0.08930399  0.06422588  0.97805533  1  0.502409  0  0.093101  0.152359  0  4.081856  0
C  C104  1  0.60297343  0.50788115  0.54070852  1  0.523077  0  0.093647  0.164366  0  4.084614  0
C  C105  1  0.89702537  0.00788350  0.95929195  1  0.523062  0  0.093602  0.164289  0  4.084584  0
C  C106  1  0.39702548  0.49212098  0.45929148  1  0.52304  0  0.093666  0.164342  0  4.084672  0
C  C107  1  0.10297612  0.99212103  0.04070986  1  0.523017  0  0.093641  0.164297  0  4.084629  0
C  C108  1  0.47401158  0.02446802  0.92164540  1  0.462218  0  0.094748  0.163457  0  4.061305  0
C  C109  1  0.02599263  0.52446654  0.57835399  1  0.462229  0  0.094801  0.163598  0  4.061251  0
C  C110  1  0.52599075  0.97553251  0.07835163  1  0.462158  0  0.094766  0.163512  0  4.061214  0
C  C111  1  0.97401056  0.47553639  0.42164723  1  0.462333  0  0.09471  0.163565  0  4.061363  0
C  C112  1  0.45900492  0.10005481  0.98164825  1  0.529011  0  0.093728  0.153344  0  4.084452  0
C  C113  1  0.04099995  0.60005346  0.51834983  1  0.528815  0  0.093625  0.1533  0  4.084509  0
C  C114  1  0.54099570  0.89994492  0.01834877  1  0.5289  0  0.093668  0.153233  0  4.084596  0
C  C115  1  0.95900239  0.39994787  0.48165019  1  0.528912  0  0.093646  0.153231  0  4.084508  0
C  C116  1  0.48491617  0.07791212  0.06172305  1  0.155196  0  -0.022949  -0.200077  0  4.004539  0
C  C117  1  0.01508907  0.57791205  0.43827597  1  0.155322  0  -0.022917  -0.200192  0  4.00478  0
C  C118  1  0.51508530  0.92208841  0.93827278  1  0.155336  0  -0.022945  -0.200149  0  4.004691  0
C  C119  1  0.98491498  0.42209008  0.56172525  1  0.155335  0  -0.022974  -0.200131  0  4.004705  0
C  C120  1  0.46622232  0.16118427  0.12586984  1  1.632109  0  0.205615  0.594897  0  4.221926  0
C  C121  1  0.03378099  0.66118753  0.37413143  1  1.632007  0  0.205489  0.594767  0  4.221839  0
C  C122  1  0.53377488  0.83881467  0.87412835  1  1.632079  0  0.20566  0.595029  0  4.221613  0
C  C123  1  0.96622391  0.33881619  0.62586981  1  1.632066  0  0.205599  0.594876  0  4.221707  0
C  C124  1  0.21809410  0.20877320  0.40111376  1  0.440118  0  0.044688  0.09696  0  3.944205  0
C  C125  1  0.28190482  0.70877427  0.09888680  1  0.440317  0  0.04473  0.096952  0  3.944286  0
C  C126  1  0.78190140  0.79123053  0.59888681  1  0.440448  0  0.044636  0.09693  0  3.944281  0
C  C127  1  0.71809581  0.29122626  0.90111321  1  0.440188  0  0.04473  0.096908  0  3.944315  0
C  C128  1  0.16834231  0.09827493  0.29493473  1  0.427463  0  0.041506  0.090807  0  3.960892  0
C  C129  1  0.33166032  0.59827400  0.20506663  1  0.427533  0  0.041409  0.090681  0  3.960734  0
C  C130  1  0.83165405  0.90172880  0.70506704  1  0.427704  0  0.041471  0.090763  0  3.960695  0
C  C131  1  0.66834202  0.40172414  0.79493339  1  0.426755  0  0.041495  0.090792  0  3.960892  0
C  C132  1  0.13249566  0.16636954  0.44803890  1  0.05456  0  -0.083898  -0.18486  0  3.92508  0
C  C133  1  0.36750251  0.66637215  0.05195993  1  0.054284  0  -0.08387  -0.184774  0  3.925089  0
C  C134  1  0.86750069  0.83363259  0.55196168  1  0.054065  0  -0.083841  -0.184812  0  3.925228  0
C  C135  1  0.63249726  0.33362998  0.94803827  1  0.054281  0  -0.083859  -0.184708  0  3.925156  0
C  C136  1  0.08185491  0.05097747  0.33866335  1  -0.079495  0  -0.084033  -0.18436  0  3.92488  0
C  C137  1  0.41814698  0.55097567  0.16133808  1  -0.079506  0  -0.083989  -0.184357  0  3.924799  0
C  C138  1  0.91814315  0.94902466  0.66133843  1  -0.079333  0  -0.084002  -0.184356  0  3.924732  0
C  C139  1  0.58185450  0.44902326  0.83866194  1  -0.079507  0  -0.084012  -0.184353  0  3.924872  0
C  C140  1  0.06208243  0.08566136  0.41683625  1  -0.01259  0  0.020152  0.1807  0  3.933338  0
C  C141  1  0.43791851  0.58566293  0.08316273  1  -0.012556  0  0.02011  0.180694  0  3.933365  0
C  C142  1  0.93791393  0.91433757  0.58316433  1  -0.012553  0  0.020086  0.18066  0  3.93346  0
C  C143  1  0.56208467  0.41433840  0.91683610  1  -0.012404  0  0.020121  0.180691  0  3.933409  0
C  C144  1  0.97213137  0.03610077  0.46776794  1  -0.005417  0  -0.150869  -0.193783  0  3.912938  0
C  C145  1  0.52786596  0.53610341  0.03223218  1  0.014973  0  -0.150826  -0.19371  0  3.912987  0
C  C146  1  0.02786499  0.96389497  0.53223264  1  0.015023  0  -0.150802  -0.193607  0  3.91295  0
C  C147  1  0.47213466  0.46389633  0.96776842  1  -0.005518  0  -0.150863  -0.193787  0  3.91301  0
C  C148  1  0.97037488  0.46792825  0.03343959  1  -0.015871  0  -0.149434  -0.194214  0  3.908879  0
C  C149  1  0.52962645  0.96792647  0.46656048  1  -0.016014  0  -0.149421  -0.194118  0  3.90886  0
C  C150  1  0.02962659  0.53207548  0.96655983  1  0.004113  0  -0.149442  -0.194228  0  3.908929  0
C  C151  1  0.47037247  0.03207406  0.53344011  1  0.004084  0  -0.149458  -0.194279  0  3.908972  0
C  C152  1  0.05789277  0.41466281  0.08575568  1  -0.036998  0  0.01992  0.182386  0  3.930708  0
C  C153  1  0.44210561  0.91466265  0.41424337  1  -0.037001  0  0.01993  0.182375  0  3.930763  0
C  C154  1  0.94210615  0.58533612  0.91424372  1  -0.037054  0  0.019886  0.182306  0  3.930799  0
C  C155  1  0.55789330  0.08533709  0.58575543  1  -0.037031  0  0.019907  0.182334  0  3.930792  0
C  C156  1  0.07847048  0.44692411  0.16463664  1  0.024193  0  -0.081344  -0.183032  0  3.929512  0
C  C157  1  0.42152952  0.94692422  0.33536356  1  0.024174  0  -0.081307  -0.183013  0  3.929552  0
C  C158  1  0.92153014  0.55307402  0.83536337  1  0.02415  0  -0.081302  -0.183022  0  3.929468  0
C  C159  1  0.57847025  0.05307392  0.66463704  1  0.02423  0  -0.081304  -0.18299  0  3.929415  0
C  C160  1  0.12503710  0.33197363  0.05490031  1  -0.011121  0  -0.08632  -0.188127  0  3.920337  0
C  C161  1  0.37495978  0.83197513  0.44509825  1  -0.010612  0  -0.086344  -0.188164  0  3.920436  0
C  C162  1  0.87496096  0.66802371  0.94509968  1  -0.01057  0  -0.086336  -0.188118  0  3.920238  0
C  C163  1  0.62503657  0.16802460  0.55490113  1  -0.010613  0  -0.086326  -0.188113  0  3.920403  0
C  C164  1  0.16413268  0.39697947  0.20896085  1  0.429863  0  0.046229  0.095244  0  3.953384  0
C  C165  1  0.33586831  0.89697910  0.29103824  1  0.430408  0  0.046201  0.095252  0  3.953435  0
C  C166  1  0.83586538  0.60301866  0.79103914  1  0.430424  0  0.046194  0.09525  0  3.953425  0
C  C167  1  0.66413146  0.10302064  0.70896057  1  0.430337  0  0.046185  0.095244  0  3.95337  0
C  C168  1  0.21009863  0.28725906  0.10237018  1  0.416119  0  0.041004  0.093895  0  3.961739  0
C  C169  1  0.28990179  0.78725849  0.39762848  1  0.416128  0  0.041007  0.093976  0  3.961859  0
C  C170  1  0.78989943  0.71273987  0.89762922  1  0.416206  0  0.041068  0.094002  0  3.96161  0
C  C171  1  0.71009712  0.21274124  0.60237032  1  0.416119  0  0.041045  0.094015  0  3.961785  0
C  C172  1  0.70232175  0.67998327  0.36158895  1  0.931171  0  0.166997  0.488223  0  3.867821  0
C  C173  1  0.79768119  0.17998355  0.13841158  1  0.931119  0  0.167036  0.488294  0  3.867827  0
C  C174  1  0.29768145  0.32001486  0.63841407  1  0.93118  0  0.167023  0.488189  0  3.867972  0
C  C175  1  0.20231943  0.82001379  0.86158663  1  0.931213  0  0.166955  0.48815  0  3.868016  0
C  C176  1  0.68202030  0.58297143  0.30930299  1  -0.047653  0  -0.16947  -0.281228  0  3.912437  0
C  C177  1  0.81798033  0.08297071  0.19069767  1  -0.047672  0  -0.169444  -0.281155  0  3.9123  0
C  C178  1  0.31797862  0.41702911  0.69069999  1  -0.047641  0  -0.169521  -0.281192  0  3.912501  0
C  C179  1  0.18201944  0.91702743  0.80930173  1  -0.047669  0  -0.169475  -0.281226  0  3.91248  0
C  C180  1  0.70003328  0.78685877  0.31972156  1  -0.051288  0  -0.166689  -0.273103  0  3.913745  0
C  C181  1  0.79996937  0.28685813  0.18027880  1  -0.051236  0  -0.16672  -0.273145  0  3.913752  0
C  C182  1  0.29996991  0.21313936  0.68028146  1  -0.051378  0  -0.166749  -0.273177  0  3.913867  0
C  C183  1  0.20002954  0.71313921  0.81971940  1  -0.051292  0  -0.16673  -0.273128  0  3.913787  0
C  C184  1  0.74663320  0.58679418  0.22979714  1  0.007019  0  -0.165391  -0.123964  0  3.93264  0
C  C185  1  0.75336656  0.08679418  0.27020232  1  0.007  0  -0.16543  -0.124058  0  3.93276  0
C  C186  1  0.25336401  0.41320476  0.77020344  1  0.006997  0  -0.165389  -0.124005  0  3.932769  0
C  C187  1  0.24663406  0.91320475  0.72979710  1  0.006991  0  -0.165373  -0.124  0  3.932689  0
C  C188  1  0.76598967  0.78611839  0.24070145  1  -0.034597  0  -0.168397  -0.129565  0  3.916236  0
C  C189  1  0.73401128  0.28611767  0.25929891  1  -0.034705  0  -0.168396  -0.129532  0  3.916225  0
C  C190  1  0.23401096  0.21388055  0.75929976  1  -0.03496  0  -0.168396  -0.129521  0  3.916217  0
C  C191  1  0.26598934  0.71388127  0.74070110  1  -0.034727  0  -0.168391  -0.129513  0  3.916256  0
C  C192  1  0.72894275  0.69330947  0.18707209  1  -0.010131  0  -0.17426  -0.157488  0  3.954932  0
C  C193  1  0.77105844  0.19330852  0.31292781  1  -0.010142  0  -0.174229  -0.157465  0  3.954845  0
C  C194  1  0.27105616  0.30669027  0.81292850  1  -0.010128  0  -0.174233  -0.157502  0  3.954868  0
C  C195  1  0.22894219  0.80669042  0.68707220  1  -0.010141  0  -0.174242  -0.157438  0  3.954805  0
N  N196  1  0.23605220  0.17564443  0.32553232  1  -1.276524  0  -0.34069  -0.25306  0  3.603351  0
N  N197  1  0.26395193  0.67564294  0.17446893  1  -1.276823  0  -0.340638  -0.252936  0  3.603272  0
N  N198  1  0.76394415  0.82436090  0.67446886  1  -1.276558  0  -0.340612  -0.252962  0  3.603236  0
N  N199  1  0.73605126  0.32435600  0.82553109  1  -1.276523  0  -0.340712  -0.253045  0  3.60339  0
N  N200  1  0.23012606  0.31932708  0.17819267  1  -1.274254  0  -0.339153  -0.250497  0  3.599929  0
N  N201  1  0.26987684  0.81932516  0.32180536  1  -1.274839  0  -0.339113  -0.250555  0  3.600092  0
N  N202  1  0.76987286  0.68067106  0.82180673  1  -1.274834  0  -0.339172  -0.250601  0  3.600097  0
N  N203  1  0.73012293  0.18067377  0.67819345  1  -1.274776  0  -0.339177  -0.250613  0  3.600121  0
O  O204  1  0.41528047  0.37074722  0.30913830  1  -1.154158  0  -0.327734  -0.550242  0  2.322122  0
O  O205  1  0.08472486  0.87074449  0.19086205  1  -1.154377  0  -0.327763  -0.550299  0  2.322167  0
O  O206  1  0.58471504  0.62925012  0.69086526  1  -1.154195  0  -0.327753  -0.550292  0  2.322246  0
O  O207  1  0.91528259  0.12925365  0.80913561  1  -1.154356  0  -0.327815  -0.550371  0  2.322052  0
O  O208  1  0.50093607  0.24637783  0.38712523  1  -1.155144  0  -0.302321  -0.522414  0  2.12266  0
O  O209  1  0.99906755  0.74637997  0.11287340  1  -1.155119  0  -0.302316  -0.52244  0  2.122798  0
O  O210  1  0.49906542  0.75362191  0.61287717  1  -1.155153  0  -0.302268  -0.52237  0  2.122709  0
O  O211  1  0.00094162  0.25362056  0.88712367  1  -1.155154  0  -0.302266  -0.522403  0  2.122727  0
O  O212  1  0.40910858  0.12712727  0.18692368  1  -1.157693  0  -0.328869  -0.552021  0  2.318624  0
O  O213  1  0.09089567  0.62712978  0.31307585  1  -1.15756  0  -0.328806  -0.551963  0  2.318553  0
O  O214  1  0.59089032  0.87287326  0.81307213  1  -1.157733  0  -0.328838  -0.552005  0  2.318381  0
O  O215  1  0.90911180  0.37287395  0.68692659  1  -1.157702  0  -0.328854  -0.552003  0  2.318367  0
O  O216  1  0.50113355  0.25405877  0.11624524  1  -1.150019  0  -0.303686  -0.521747  0  2.114182  0
O  O217  1  0.99887005  0.75406176  0.38375518  1  -1.150078  0  -0.303628  -0.521662  0  2.114168  0
O  O218  1  0.49886621  0.74594096  0.88374998  1  -1.150029  0  -0.303779  -0.521875  0  2.114265  0
O  O219  1  0.00113228  0.24594196  0.61624543  1  -1.149999  0  -0.303717  -0.52178  0  2.114251  0
O  O220  1  0.71734571  0.67184331  0.43433027  1  -1.103482  0  -0.272868  -0.442697  0  2.126341  0
O  O221  1  0.78265981  0.17184223  0.06566969  1  -1.103435  0  -0.272906  -0.442757  0  2.126427  0
O  O222  1  0.28265919  0.32815323  0.56567275  1  -1.103407  0  -0.272856  -0.442646  0  2.126473  0
O  O223  1  0.21734167  0.82815032  0.93432733  1  -1.103439  0  -0.272811  -0.442612  0  2.126431  0
F  F224  1  0.68166352  0.37754948  0.45612252  1  -0.628893  0  -0.071131  -0.102967  0  1.448232  0
F  F225  1  0.81833805  0.87754983  0.04388008  1  -0.628857  0  -0.071156  -0.103035  0  1.448163  0
F  F226  1  0.31833625  0.62245504  0.54387688  1  -0.62893  0  -0.071119  -0.102973  0  1.448054  0
F  F227  1  0.18165830  0.12245949  0.95612050  1  -0.628897  0  -0.071125  -0.10301  0  1.448085  0
F  F228  1  0.70692138  0.51361745  0.57687095  1  -0.624553  0  -0.08368  -0.109493  0  1.423003  0
F  F229  1  0.79307911  0.01362093  0.92312832  1  -0.624538  0  -0.083625  -0.109415  0  1.422946  0
F  F230  1  0.29308009  0.48638708  0.42312607  1  -0.624528  0  -0.083633  -0.109448  0  1.423049  0
F  F231  1  0.20691981  0.98638200  0.07687526  1  -0.624577  0  -0.083636  -0.109448  0  1.423011  0
F  F232  1  0.44504054  0.05232781  0.84562169  1  -0.624345  0  -0.077382  -0.10256  0  1.401885  0
F  F233  1  0.05496360  0.55232285  0.65437766  1  -0.624331  0  -0.077346  -0.102602  0  1.401922  0
F  F234  1  0.55496350  0.94767432  0.15437536  1  -0.62425  0  -0.077361  -0.102562  0  1.401911  0
F  F235  1  0.94503532  0.44767689  0.34562533  1  -0.624441  0  -0.077318  -0.102572  0  1.401924  0
F  F236  1  0.41438986  0.19610037  0.96084577  1  -0.627791  0  -0.073277  -0.105388  0  1.456685  0
F  F237  1  0.08561475  0.69609726  0.53915395  1  -0.627786  0  -0.073254  -0.105364  0  1.456792  0
F  F238  1  0.58561076  0.80390256  0.03915424  1  -0.627757  0  -0.073254  -0.105337  0  1.456763  0
F  F239  1  0.91438245  0.30390646  0.46084663  1  -0.627741  0  -0.073228  -0.105317  0  1.456771  0
