# generated using pymatgen
data_ZnH19C19NO8
_symmetry_space_group_name_H-M   'P 1'
_cell_length_a   10.87534202
_cell_length_b   10.74498739
_cell_length_c   10.86125122
_cell_angle_alpha   83.94970667
_cell_angle_beta   84.66385316
_cell_angle_gamma   89.63433922
_symmetry_Int_Tables_number   1
_chemical_formula_structural   ZnH19C19NO8
_chemical_formula_sum   'Zn2 H38 C38 N2 O16'
_cell_volume   1256.64899809
_cell_formula_units_Z   2
loop_
 _symmetry_equiv_pos_site_id
 _symmetry_equiv_pos_as_xyz
  1  'x, y, z'
loop_
 _atom_site_type_symbol
 _atom_site_label
 _atom_site_symmetry_multiplicity
 _atom_site_fract_x
 _atom_site_fract_y
 _atom_site_fract_z
 _atom_site_occupancy
 _atom_site_pbe_bader_charge
 _atom_site_pbe_bader_spin_density
 _atom_site_pbe_cm5_charge
 _atom_site_pbe_ddec_charge
 _atom_site_pbe_ddec_spin_density
 _atom_site_pbe_ddec_sum_bond_order
 _atom_site_pbe_magmom
Zn  Zn0  1  0.33487194  0.53933821  0.51771433  1  1.293296  0  0.689442  0.849369  0  2.295458  0
Zn  Zn1  1  0.60416311  0.51918140  0.49098863  1  1.31254  0  0.701964  0.920619  0  2.208711  0
H  H2  1  0.41479597  0.06741250  0.69325073  1  0.066344  0  0.102212  0.097162  0  0.985754  0
H  H3  1  0.66962548  0.96623954  0.32013174  1  0.081852  0  0.094853  0.089422  0  1.011824  0
H  H4  1  0.32480215  0.97786776  0.48435179  1  0.033147  0  0.088739  0.068332  0  1.047499  0
H  H5  1  0.76051980  0.06159914  0.53688014  1  0.103033  0  0.09289  0.091813  0  1.054832  0
H  H6  1  0.81933518  0.89963790  0.46102591  1  0.62684  0  0.333863  0.3766  0  0.896612  0
H  H7  1  0.32390888  0.28638042  0.57838476  1  0.666967  0  0.312638  0.385349  0  0.938448  0
H  H8  1  0.82842317  0.20304481  0.33024770  1  0.628934  0  0.354856  0.389851  0  0.837353  0
H  H9  1  0.17053931  0.92485567  0.40870645  1  0.632751  0  0.349412  0.391773  0  0.853903  0
H  H10  1  0.73488177  0.98856327  0.79154601  1  0.033058  0  0.08641  0.114155  0  1.003614  0
H  H11  1  0.57961460  0.98836221  0.85868922  1  0.011857  0  0.084178  0.106559  0  1.025334  0
H  H12  1  0.67884288  0.86222876  0.90059698  1  0.034829  0  0.09135  0.121803  0  0.994125  0
H  H13  1  0.53563840  0.79652565  0.75209494  1  0.04535  0  0.091894  0.093188  0  1.000983  0
H  H14  1  0.68840444  0.79670415  0.68482231  1  0.069737  0  0.091686  0.098917  0  0.986564  0
H  H15  1  0.48231349  0.02269085  0.16958140  1  0.002339  0  0.085366  0.109966  0  1.003203  0
H  H16  1  0.33128762  0.04946191  0.23924590  1  0.028274  0  0.082335  0.105188  0  1.01587  0
H  H17  1  0.39801425  0.15706030  0.11677970  1  0.035911  0  0.091311  0.119858  0  0.998407  0
H  H18  1  0.40392012  0.24050680  0.32399441  1  0.060293  0  0.090885  0.102284  0  1.007395  0
H  H19  1  0.55369450  0.22358895  0.24952300  1  0.036984  0  0.088818  0.085738  0  1.019274  0
H  H20  1  0.60807590  0.21272022  0.94753000  1  0.015754  0  0.081675  0.102836  0  1.027828  0
H  H21  1  0.53566239  0.25773246  0.81009853  1  0.045989  0  0.081494  0.111634  0  1.014864  0
H  H22  1  0.69557601  0.21957359  0.79992235  1  0.027955  0  0.086227  0.11843  0  1.004572  0
H  H23  1  0.67187119  0.45004561  0.76844105  1  0.083412  0  0.090835  0.101497  0  1.04171  0
H  H24  1  0.74139763  0.40761195  0.90490838  1  0.031778  0  0.092994  0.093322  0  1.010834  0
H  H25  1  0.12568242  0.46518167  0.07041297  1  0.025608  0  0.087064  0.11718  0  1.002837  0
H  H26  1  0.17435748  0.41017164  0.21758133  1  0.061218  0  0.080464  0.116977  0  1.032472  0
H  H27  1  0.04942757  0.51870585  0.20570103  1  0.020369  0  0.077091  0.102487  0  1.04562  0
H  H28  1  0.24890693  0.62557911  0.24424148  1  0.010447  0  0.082775  0.082519  0  1.040492  0
H  H29  1  0.19104466  0.68487174  0.10468687  1  0.02915  0  0.092027  0.090609  0  1.018981  0
H  H30  1  0.74556495  0.59607412  0.15953168  1  0.062266  0  0.084407  0.128335  0  1.015572  0
H  H31  1  0.85888608  0.47831467  0.14078573  1  0.039244  0  0.078872  0.109594  0  1.037419  0
H  H32  1  0.79487382  0.55537116  0.00842576  1  0.009451  0  0.080806  0.105429  0  1.017114  0
H  H33  1  0.65329078  0.38674929  0.22009947  1  0.066709  0  0.086841  0.08292  0  1.056823  0
H  H34  1  0.70515428  0.33532170  0.07615471  1  0.023428  0  0.086975  0.078792  0  1.012607  0
H  H35  1  0.36936571  0.84014389  0.85432637  1  0.022497  0  0.081703  0.10842  0  1.038049  0
H  H36  1  0.20762043  0.86393846  0.85703548  1  0.050837  0  0.087994  0.121891  0  0.996234  0
H  H37  1  0.27772725  0.82777324  0.99820372  1  0.002784  0  0.081722  0.105518  0  1.02775  0
H  H38  1  0.26069259  0.65678336  0.78937904  1  0.083534  0  0.0915  0.103009  0  1.040588  0
H  H39  1  0.16666369  0.63965382  0.92860930  1  0.034511  0  0.094591  0.094999  0  0.985541  0
C  C40  1  0.45201054  0.51136559  0.13706575  1  -0.013494  0  -0.015783  -0.140395  0  3.894648  0
C  C41  1  0.45344007  0.52946796  0.87755759  1  -0.067038  0  -0.013376  -0.137971  0  3.896091  0
C  C42  1  0.45037040  0.53165383  0.73900812  1  1.524284  0  0.228359  0.616697  0  4.101639  0
C  C43  1  0.45370004  0.50583727  0.27579158  1  1.552055  0  0.226424  0.608658  0  4.118258  0
C  C44  1  0.56104437  0.27528548  0.53368124  1  1.517724  0  0.217984  0.599216  0  4.156801  0
C  C45  1  0.51762774  0.76139421  0.47509459  1  1.557579  0  0.222254  0.61913  0  4.130358  0
C  C46  1  0.47152304  0.04432739  0.61012404  1  -0.057333  0  -0.075251  -0.097017  0  3.621388  0
C  C47  1  0.61502116  0.99083818  0.40420940  1  -0.094369  0  -0.086183  -0.129173  0  3.666807  0
C  C48  1  0.42212364  0.99568668  0.49345393  1  -0.029185  0  -0.082283  -0.092075  0  3.647879  0
C  C49  1  0.66490840  0.04007207  0.52202586  1  -0.125942  0  -0.096347  -0.149767  0  3.674021  0
C  C50  1  0.57775999  0.94423995  0.60842317  1  0.059165  0  0.008319  0.117977  0  3.596257  0
C  C51  1  0.50837450  0.09015737  0.40582156  1  0.037361  0  0.006868  0.115821  0  3.603118  0
C  C52  1  0.52641339  0.89632816  0.48895055  1  -0.007983  0  -0.010605  -0.059074  0  3.65988  0
C  C53  1  0.55972895  0.13936714  0.52566220  1  0.006165  0  -0.011172  -0.066447  0  3.676399  0
C  C54  1  0.95078664  0.63457593  0.43231191  1  0.5473  0  0.147684  0.075412  0  3.889762  0
C  C55  1  0.08609011  0.42728268  0.48095317  1  0.506732  0  0.151079  0.083578  0  3.848971  0
C  C56  1  0.96530315  0.42129249  0.44559112  1  0.63161  0  0.155023  0.081743  0  3.904073  0
C  C57  1  0.07002110  0.64229750  0.47120523  1  0.529093  0  0.148159  0.083156  0  3.860813  0
C  C58  1  0.55317383  0.46961013  0.93529745  1  -0.007999  0  -0.002402  0.057522  0  3.862696  0
C  C59  1  0.35085558  0.56727987  0.07919595  1  0.001695  0  -0.000588  0.062262  0  3.87292  0
C  C60  1  0.55580762  0.46678695  0.06531632  1  0.009853  0  -0.000457  0.05866  0  3.870077  0
C  C61  1  0.35588347  0.58498189  0.94800103  1  -0.00803  0  -0.001196  0.057023  0  3.872328  0
C  C62  1  0.88071463  0.75196356  0.39372090  1  1.618848  0  0.241948  0.561381  0  4.139702  0
C  C63  1  0.16861237  0.31332118  0.49339966  1  1.622818  0  0.240161  0.567152  0  4.161294  0
C  C64  1  0.91077203  0.29399204  0.43780679  1  1.598933  0  0.246469  0.566377  0  4.146457  0
C  C65  1  0.12678730  0.76495631  0.49337102  1  1.597118  0  0.240499  0.546895  0  4.157865  0
C  C66  1  0.61410859  0.85884039  0.71732128  1  -0.042051  0  -0.165965  -0.156243  0  3.988435  0
C  C67  1  0.65407709  0.92850995  0.82277384  1  -0.061646  0  -0.241879  -0.346603  0  3.967895  0
C  C68  1  0.47198154  0.17095372  0.29413324  1  -0.020009  0  -0.170005  -0.162164  0  3.979919  0
C  C69  1  0.41822290  0.09553988  0.19974404  1  -0.04937  0  -0.239982  -0.332052  0  3.959978  0
C  C70  1  0.65445903  0.40277010  0.86220334  1  -0.031439  0  -0.175582  -0.166158  0  3.975461  0
C  C71  1  0.62167174  0.26526197  0.85467947  1  -0.088551  0  -0.245956  -0.348838  0  3.958011  0
C  C72  1  0.23219193  0.60196556  0.15177557  1  0.013349  0  -0.174136  -0.158149  0  3.982634  0
C  C73  1  0.14000937  0.49256850  0.16275065  1  -0.082118  0  -0.251111  -0.354529  0  3.940887  0
C  C74  1  0.67174215  0.41765536  0.12113879  1  -0.039482  0  -0.173232  -0.162656  0  4.002447  0
C  C75  1  0.77378616  0.51786820  0.10623568  1  -0.069718  0  -0.250363  -0.351887  0  3.938241  0
C  C76  1  0.25983854  0.66824705  0.88793785  1  -0.032305  0  -0.171119  -0.162722  0  3.963843  0
C  C77  1  0.27960536  0.80773223  0.90090041  1  -0.0629  0  -0.24444  -0.349642  0  3.953692  0
N  N78  1  0.13635605  0.53813187  0.49577706  1  -1.177249  0  -0.267419  -0.191836  0  3.424331  0
N  N79  1  0.89789877  0.52413748  0.42184305  1  -1.098147  0  -0.252748  -0.195285  0  3.232064  0
O  O80  1  0.34614821  0.51311871  0.69737110  1  -1.136538  0  -0.308885  -0.516857  0  2.368621  0
O  O81  1  0.55630406  0.52674456  0.31657980  1  -1.167085  0  -0.296909  -0.524183  0  2.418741  0
O  O82  1  0.35355538  0.48224664  0.34739565  1  -1.164369  0  -0.315538  -0.5605  0  2.408093  0
O  O83  1  0.55043848  0.55153177  0.66966363  1  -1.172041  0  -0.307387  -0.559209  0  2.422084  0
O  O84  1  0.45683555  0.32683486  0.55670737  1  -1.191762  0  -0.304433  -0.581716  0  2.370099  0
O  O85  1  0.62114650  0.70466209  0.46507742  1  -1.144652  0  -0.311153  -0.53243  0  2.344097  0
O  O86  1  0.41009047  0.71285245  0.47773965  1  -1.172042  0  -0.324188  -0.567939  0  2.337734  0
O  O87  1  0.66064111  0.34068527  0.50994836  1  -1.14642  0  -0.310185  -0.532004  0  2.279931  0
O  O88  1  0.84664906  0.77547851  0.29060143  1  -1.092825  0  -0.254208  -0.426386  0  2.084021  0
O  O89  1  0.86789666  0.82559948  0.48725673  1  -1.127049  0  -0.321103  -0.468444  0  2.28444  0
O  O90  1  0.17395331  0.23664794  0.41750080  1  -1.094714  0  -0.268411  -0.451735  0  2.095059  0
O  O91  1  0.23289551  0.31657153  0.59054008  1  -1.175678  0  -0.324806  -0.47782  0  2.340582  0
O  O92  1  0.91228303  0.21039160  0.52259384  1  -1.109776  0  -0.265634  -0.454995  0  2.123916  0
O  O93  1  0.86672830  0.28575025  0.32741038  1  -1.108786  0  -0.303916  -0.433655  0  2.264994  0
O  O94  1  0.15767516  0.78456738  0.59417498  1  -1.086727  0  -0.243125  -0.413691  0  2.101961  0
O  O95  1  0.13614778  0.84567636  0.38900929  1  -1.12614  0  -0.314925  -0.460759  0  2.248225  0
