# generated using pymatgen
data_NdCuH14C18(N2O5)2
_symmetry_space_group_name_H-M   'P 1'
_cell_length_a   9.69331029
_cell_length_b   10.85303802
_cell_length_c   12.47125941
_cell_angle_alpha   65.41475890
_cell_angle_beta   76.41204137
_cell_angle_gamma   63.73877027
_symmetry_Int_Tables_number   1
_chemical_formula_structural   NdCuH14C18(N2O5)2
_chemical_formula_sum   'Nd2 Cu2 H28 C36 N8 O20'
_cell_volume   1067.83571264
_cell_formula_units_Z   2
loop_
 _symmetry_equiv_pos_site_id
 _symmetry_equiv_pos_as_xyz
  1  'x, y, z'
loop_
 _atom_site_type_symbol
 _atom_site_label
 _atom_site_symmetry_multiplicity
 _atom_site_fract_x
 _atom_site_fract_y
 _atom_site_fract_z
 _atom_site_occupancy
 _atom_site_hle17_bader_spin_density
 _atom_site_hle17_ddec_charge
 _atom_site_hle17_ddec_spin_density
 _atom_site_hle17_ddec_sum_bond_order
 _atom_site_hle17_magmom
 _atom_site_hse06_10hf_bader_spin_density
 _atom_site_hse06_10hf_ddec_charge
 _atom_site_hse06_10hf_ddec_spin_density
 _atom_site_hse06_10hf_ddec_sum_bond_order
 _atom_site_hse06_10hf_magmom
 _atom_site_hse06_bader_spin_density
 _atom_site_hse06_ddec_charge
 _atom_site_hse06_ddec_spin_density
 _atom_site_hse06_ddec_sum_bond_order
 _atom_site_hse06_magmom
 _atom_site_pbe_bader_spin_density
 _atom_site_pbe_cm5_charge
 _atom_site_pbe_ddec_charge
 _atom_site_pbe_ddec_spin_density
 _atom_site_pbe_ddec_sum_bond_order
 _atom_site_pbe_magmom
Nd  Nd0  1  0.34983137  0.81079402  0.46959651  1  0  2.202639  0  1.654423  0  0  2.029308  0  2.134672  0  0  2.073205  0  2.090682  0  0  1.47513  1.995309  0  2.169163  0
Nd  Nd1  1  0.65016522  0.18920008  0.53040354  1  0  2.202604  0  1.654389  0  0  2.029159  0  2.134788  0  0  2.073065  0  2.090791  0  0  1.475112  1.995197  0  2.169227  0
Cu  Cu2  1  0.97106408  0.33971032  0.83787676  1  0  0.487876  0  1.634617  0  0  0.354645  0  2.077536  0  0  0.367159  0  2.036743  0  0  0.496982  0.34915  0  2.102247  0
Cu  Cu3  1  0.02892783  0.66029594  0.16211749  1  0  0.487834  0  1.634664  0  0  0.354613  0  2.077517  0  0  0.367137  0  2.036748  0  0  0.496977  0.349127  0  2.102268  0
H  H4  1  0.04892020  0.17255308  0.66244156  1  0  0.11569  0  0.941697  0  0  0.122717  0  1.004451  0  0  0.126248  0  0.999596  0  0  0.142908  0.119889  0  1.008345  0
H  H5  1  0.95108190  0.82745719  0.33755173  1  0  0.115734  0  0.941584  0  0  0.122754  0  1.004356  0  0  0.126286  0  0.999499  0  0  0.142924  0.119924  0  1.008255  0
H  H6  1  0.36855803  0.66822856  0.93256012  1  0  0.118783  0  0.941517  0  0  0.133546  0  0.989728  0  0  0.136076  0  0.989516  0  0  0.110527  0.131348  0  0.990728  0
H  H7  1  0.63144927  0.33178480  0.06743189  1  0  0.11873  0  0.941532  0  0  0.133522  0  0.989707  0  0  0.136056  0  0.98949  0  0  0.11053  0.131315  0  0.990719  0
H  H8  1  0.39746281  0.63475078  0.13851725  1  0  0.106962  0  0.944004  0  0  0.119034  0  0.999292  0  0  0.121775  0  0.997993  0  0  0.108217  0.116739  0  1.00055  0
H  H9  1  0.60253654  0.36526392  0.86147501  1  0  0.10696  0  0.94389  0  0  0.11898  0  0.999257  0  0  0.121738  0  0.997936  0  0  0.108172  0.116685  0  1.000517  0
H  H10  1  0.13305395  0.09770355  0.07216814  1  0  0.106619  0  0.955855  0  0  0.113136  0  1.028597  0  0  0.117167  0  1.024412  0  0  0.105199  0.110065  0  1.032025  0
H  H11  1  0.86693527  0.90230708  0.92782749  1  0  0.106596  0  0.955799  0  0  0.11313  0  1.028496  0  0  0.117159  0  1.02431  0  0  0.105207  0.110058  0  1.031934  0
H  H12  1  0.87662269  0.31555157  0.10830471  1  0  0.108666  0  0.956891  0  0  0.114489  0  1.029896  0  0  0.118694  0  1.025626  0  0  0.106248  0.111373  0  1.033284  0
H  H13  1  0.12339190  0.68444535  0.89168850  1  0  0.108733  0  0.95688  0  0  0.114616  0  1.029802  0  0  0.118824  0  1.02553  0  0  0.106294  0.111494  0  1.033204  0
H  H14  1  0.87171787  0.67812088  0.69122793  1  0  0.108546  0  0.90412  0  0  0.122534  0  0.955069  0  0  0.124905  0  0.951837  0  0  0.151654  0.120628  0  0.95761  0
H  H15  1  0.12827670  0.32189271  0.30877205  1  0  0.108568  0  0.904076  0  0  0.122552  0  0.955032  0  0  0.124923  0  0.951798  0  0  0.151655  0.120646  0  0.957576  0
H  H16  1  0.62231139  0.86095468  0.02783929  1  0  0.11599  0  0.942467  0  0  0.129863  0  0.992962  0  0  0.132442  0  0.992872  0  0  0.109234  0.127951  0  0.993081  0
H  H17  1  0.37769068  0.13903677  0.97217428  1  0  0.116059  0  0.942377  0  0  0.129876  0  0.992932  0  0  0.13248  0  0.992806  0  0  0.109234  0.127961  0  0.993059  0
H  H18  1  0.61863088  0.67839973  0.23098680  1  0  0.090442  0  0.98906  0  0  0.099045  0  1.055372  0  0  0.102022  0  1.053326  0  0  0.106526  0.096905  0  1.056816  0
H  H19  1  0.38137482  0.32158195  0.76902390  1  0  0.09039  0  0.989115  0  0  0.098954  0  1.055485  0  0  0.101933  0  1.053429  0  0  0.10651  0.096813  0  1.056937  0
H  H20  1  0.21109921  0.89348976  0.72630352  1  0  0.338569  0  0.894564  0  0  0.317432  0  0.957632  0  0  0.325954  0  0.950715  0  0  0.326974  0.311354  0  0.962597  0
H  H21  1  0.78891508  0.10652459  0.27368280  1  0  0.338512  0  0.89458  0  0  0.317387  0  0.95767  0  0  0.32591  0  0.950749  0  0  0.326942  0.31131  0  0.962632  0
H  H22  1  0.73829477  0.87011641  0.79123117  1  0  0.343692  0  0.903079  0  0  0.320914  0  0.968293  0  0  0.33042  0  0.960015  0  0  0.323218  0.314217  0  0.974122  0
H  H23  1  0.26170050  0.12988724  0.20877780  1  0  0.343673  0  0.903118  0  0  0.320896  0  0.968323  0  0  0.330399  0  0.960049  0  0  0.323202  0.314203  0  0.974138  0
H  H24  1  0.68989841  0.71020563  0.38594592  1  0  0.432343  0  0.822259  0  0  0.413497  0  0.879983  0  0  0.421657  0  0.86791  0  0  0.327239  0.40756  0  0.888121  0
H  H25  1  0.31010478  0.28978504  0.61405327  1  0  0.432386  0  0.822246  0  0  0.41351  0  0.879982  0  0  0.42167  0  0.867911  0  0  0.327233  0.407574  0  0.888161  0
H  H26  1  0.65458013  0.56783975  0.41525780  1  0  0.449295  0  0.848271  0  0  0.417301  0  0.912582  0  0  0.429138  0  0.89533  0  0  0.302574  0.40881  0  0.924941  0
H  H27  1  0.34542251  0.43214975  0.58474592  1  0  0.449272  0  0.848287  0  0  0.417288  0  0.912574  0  0  0.429124  0  0.895325  0  0  0.3026  0.408799  0  0.924931  0
H  H28  1  0.80206939  0.52595197  0.58949291  1  0  0.410568  0  0.860878  0  0  0.392089  0  0.913537  0  0  0.400105  0  0.901549  0  0  0.298908  0.38627  0  0.922329  0
H  H29  1  0.19794641  0.47403929  0.41050927  1  0  0.41053  0  0.861042  0  0  0.392058  0  0.913592  0  0  0.400073  0  0.901607  0  0  0.29888  0.386244  0  0.922376  0
H  H30  1  0.77691587  0.38263834  0.66413502  1  0  0.417511  0  0.885571  0  0  0.389752  0  0.944883  0  0  0.399527  0  0.930511  0  0  0.287225  0.382824  0  0.955076  0
H  H31  1  0.22308510  0.61735247  0.33586134  1  0  0.417565  0  0.885522  0  0  0.389808  0  0.944823  0  0  0.399582  0  0.930451  0  0  0.287249  0.38288  0  0.955016  0
C  C32  1  0.10091569  0.10324526  0.74686308  1  0  0.270585  0  3.591659  0  0  0.208752  0  3.857628  0  0  0.225881  0  3.867397  0  0  0.167033  0.197012  0  3.851744  0
C  C33  1  0.89908265  0.89676941  0.25313179  1  0  0.270622  0  3.591574  0  0  0.208826  0  3.857545  0  0  0.225957  0  3.867314  0  0  0.167161  0.197084  0  3.851661  0
C  C34  1  0.23005066  0.90220492  0.88993037  1  0  0.172768  0  3.769095  0  0  0.162105  0  4.011484  0  0  0.168141  0  4.032705  0  0  0.102885  0.157966  0  3.997587  0
C  C35  1  0.76994992  0.09780650  0.11006201  1  0  0.172813  0  3.768717  0  0  0.162146  0  4.011174  0  0  0.16818  0  4.032396  0  0  0.102861  0.158011  0  3.997269  0
C  C36  1  0.31641572  0.76034407  0.96333392  1  0  -0.1508  0  3.752539  0  0  -0.167484  0  4.006862  0  0  -0.171042  0  4.02448  0  0  -0.090051  -0.165827  0  3.994862  0
C  C37  1  0.68358422  0.23966628  0.03665896  1  0  -0.150865  0  3.752688  0  0  -0.167556  0  4.006978  0  0  -0.171114  0  4.024602  0  0  -0.090064  -0.165892  0  3.994979  0
C  C38  1  0.33213133  0.74279928  0.07718862  1  0  -0.077822  0  3.771699  0  0  -0.104747  0  4.031676  0  0  -0.102924  0  4.050588  0  0  -0.089303  -0.10425  0  4.016598  0
C  C39  1  0.66786563  0.25720783  0.92280838  1  0  -0.077755  0  3.771801  0  0  -0.104627  0  4.031766  0  0  -0.102817  0  4.050678  0  0  -0.089294  -0.104143  0  4.016665  0
C  C40  1  0.26909775  0.86390872  0.11561180  1  0  -0.078627  0  3.781814  0  0  -0.05833  0  4.021621  0  0  -0.068392  0  4.047102  0  0  -0.026999  -0.052112  0  4.003959  0
C  C41  1  0.73089531  0.13609743  0.88438547  1  0  -0.078673  0  3.782025  0  0  -0.058407  0  4.021868  0  0  -0.068472  0  4.047357  0  0  -0.026982  -0.052142  0  4.004141  0
C  C42  1  0.18396507  0.00560995  0.04130299  1  0  -0.132655  0  3.722467  0  0  -0.165054  0  3.977938  0  0  -0.163515  0  3.995958  0  0  -0.083707  -0.165999  0  3.966803  0
C  C43  1  0.81602655  0.99439729  0.95869578  1  0  -0.132632  0  3.722449  0  0  -0.165032  0  3.977959  0  0  -0.163488  0  3.995977  0  0  -0.083737  -0.165999  0  3.966827  0
C  C44  1  0.16463821  0.02413850  0.92760401  1  0  0.126939  0  3.825506  0  0  0.128701  0  4.06189  0  0  0.129082  0  4.087412  0  0  0.084376  0.128011  0  4.045485  0
C  C45  1  0.83536275  0.97586638  0.07239060  1  0  0.126903  0  3.825265  0  0  0.12868  0  4.061668  0  0  0.129062  0  4.087188  0  0  0.08436  0.127987  0  4.045265  0
C  C46  1  0.29918536  0.84067607  0.23538639  1  0  0.646019  0  3.914531  0  0  0.599665  0  4.202179  0  0  0.633263  0  4.19546  0  0  0.199435  0.57695  0  4.205942  0
C  C47  1  0.70080381  0.15932913  0.76461117  1  0  0.645811  0  3.914938  0  0  0.599451  0  4.202592  0  0  0.633049  0  4.195879  0  0  0.199343  0.576725  0  4.206354  0
C  C48  1  0.02161285  0.05857132  0.50524202  1  0  0.558076  0  3.934917  0  0  0.51605  0  4.233253  0  0  0.54672  0  4.222559  0  0  0.209709  0.495107  0  4.240086  0
C  C49  1  0.97837797  0.94142710  0.49476563  1  0  0.558101  0  3.934718  0  0  0.516069  0  4.233045  0  0  0.546741  0  4.222348  0  0  0.209694  0.495125  0  4.239879  0
C  C50  1  0.49261453  0.96198781  0.56860700  1  0  0.56052  0  3.938228  0  0  0.519415  0  4.237156  0  0  0.548961  0  4.227818  0  0  0.20747  0.499819  0  4.241693  0
C  C51  1  0.50737915  0.03801398  0.43139170  1  0  0.56039  0  3.938201  0  0  0.519338  0  4.237071  0  0  0.548886  0  4.227729  0  0  0.207448  0.499741  0  4.241607  0
C  C52  1  0.73278006  0.38349334  0.30234170  1  0  0.658496  0  3.894072  0  0  0.613406  0  4.176933  0  0  0.647909  0  4.169111  0  0  0.20707  0.590073  0  4.181264  0
C  C53  1  0.26722607  0.61648964  0.69765964  1  0  0.658414  0  3.894128  0  0  0.613343  0  4.17699  0  0  0.647848  0  4.169169  0  0  0.20701  0.590011  0  4.181317  0
C  C54  1  0.74826972  0.48791048  0.18114381  1  0  -0.086297  0  3.785861  0  0  -0.066894  0  4.028853  0  0  -0.076882  0  4.05347  0  0  -0.028628  -0.060383  0  4.012111  0
C  C55  1  0.25174188  0.51207772  0.81885705  1  0  -0.086302  0  3.786  0  0  -0.066918  0  4.029015  0  0  -0.076907  0  4.053631  0  0  -0.028651  -0.060408  0  4.012271  0
C  C56  1  0.82153798  0.43356382  0.08966512  1  0  -0.126255  0  3.717251  0  0  -0.15941  0  3.974337  0  0  -0.157959  0  3.992615  0  0  -0.081369  -0.160219  0  3.962704  0
C  C57  1  0.17847690  0.56642973  0.91033323  1  0  -0.126293  0  3.717222  0  0  -0.15949  0  3.9743  0  0  -0.158035  0  3.992566  0  0  -0.081327  -0.160298  0  3.962671  0
C  C58  1  0.81968504  0.53536925  0.97515716  1  0  0.128487  0  3.814909  0  0  0.13009  0  4.052369  0  0  0.130467  0  4.078077  0  0  0.083849  0.129446  0  4.03555  0
C  C59  1  0.18032096  0.46463100  0.02484373  1  0  0.128463  0  3.814813  0  0  0.130071  0  4.0523  0  0  0.130448  0  4.078013  0  0  0.083811  0.129425  0  4.035479  0
C  C60  1  0.84329066  0.65203384  0.78546537  1  0  0.287048  0  3.605255  0  0  0.223415  0  3.872142  0  0  0.241699  0  3.880617  0  0  0.175743  0.211514  0  3.866361  0
C  C61  1  0.15670581  0.34797204  0.21453856  1  0  0.287033  0  3.605219  0  0  0.223398  0  3.872102  0  0  0.241685  0  3.880573  0  0  0.175657  0.211496  0  3.866318  0
C  C62  1  0.75005399  0.68843648  0.95407359  1  0  0.167016  0  3.785014  0  0  0.157451  0  4.026707  0  0  0.163046  0  4.048967  0  0  0.103674  0.153626  0  4.011175  0
C  C63  1  0.24995017  0.31156044  0.04593364  1  0  0.166897  0  3.785156  0  0  0.157319  0  4.026853  0  0  0.16291  0  4.049124  0  0  0.103535  0.153495  0  4.011322  0
C  C64  1  0.67868350  0.74340325  0.04502186  1  0  -0.154065  0  3.772899  0  0  -0.171601  0  4.031701  0  0  -0.175585  0  4.050502  0  0  -0.092524  -0.168024  0  4.017396  0
C  C65  1  0.32132042  0.25659150  0.95498617  1  0  -0.154218  0  3.773062  0  0  -0.1717  0  4.031886  0  0  -0.175706  0  4.050684  0  0  -0.092516  -0.168123  0  4.01758  0
C  C66  1  0.67920936  0.64092456  0.15820210  1  0  -0.077764  0  3.78013  0  0  -0.109364  0  4.047248  0  0  -0.107485  0  4.065632  0  0  -0.088814  -0.11003  0  4.033269  0
C  C67  1  0.32079835  0.35906577  0.84180517  1  0  -0.077561  0  3.780341  0  0  -0.109124  0  4.047421  0  0  -0.10724  0  4.065812  0  0  -0.08875  -0.109788  0  4.033438  0
N  N68  1  0.08536684  0.14905972  0.83517364  1  0  -0.41959  0  3.40064  0  0  -0.340921  0  3.718919  0  0  -0.358586  0  3.726224  0  0  -0.405494  -0.329857  0  3.71379  0
N  N69  1  0.91462854  0.85094860  0.16482002  1  0  -0.419609  0  3.400485  0  0  -0.340957  0  3.718769  0  0  -0.35863  0  3.726092  0  0  -0.405532  -0.329897  0  3.713666  0
N  N70  1  0.18612448  0.95682834  0.77655620  1  0  -0.31981  0  3.364526  0  0  -0.2569  0  3.598926  0  0  -0.274878  0  3.610778  0  0  -0.36393  -0.245087  0  3.591192  0
N  N71  1  0.81388385  0.04317956  0.22343754  1  0  -0.319726  0  3.364423  0  0  -0.256893  0  3.598897  0  0  -0.274867  0  3.610749  0  0  -0.363956  -0.245084  0  3.591162  0
N  N72  1  0.87587820  0.51656969  0.86671137  1  0  -0.416591  0  3.401716  0  0  -0.339246  0  3.721202  0  0  -0.356722  0  3.727655  0  0  -0.403055  -0.328153  0  3.716241  0
N  N73  1  0.12412008  0.48343406  0.13328896  1  0  -0.416556  0  3.401634  0  0  -0.339182  0  3.721077  0  0  -0.356665  0  3.727551  0  0  -0.402981  -0.328083  0  3.716133  0
N  N74  1  0.76879723  0.75731120  0.83400061  1  0  -0.327822  0  3.351297  0  0  -0.264017  0  3.585448  0  0  -0.282071  0  3.595827  0  0  -0.363461  -0.251748  0  3.577942  0
N  N75  1  0.23120012  0.24269245  0.16600555  1  0  -0.327773  0  3.351451  0  0  -0.26397  0  3.585639  0  0  -0.282021  0  3.596018  0  0  -0.363353  -0.251701  0  3.578134  0
O  O76  1  0.28443161  0.95089195  0.25831332  1  0  -0.699009  0  2.044824  0  0  -0.642679  0  2.282363  0  0  -0.667428  0  2.273693  0  0  -0.376966  -0.625374  0  2.287826  0
O  O77  1  0.71554811  0.04911332  0.74169404  1  0  -0.69889  0  2.045135  0  0  -0.642518  0  2.28264  0  0  -0.667268  0  2.273972  0  0  -0.376841  -0.625214  0  2.288109  0
O  O78  1  0.34303152  0.71155343  0.31443560  1  0  -0.685064  0  1.991665  0  0  -0.626806  0  2.219635  0  0  -0.650979  0  2.210177  0  0  -0.349989  -0.60981  0  2.225785  0
O  O79  1  0.65696133  0.28845053  0.68556329  1  0  -0.684934  0  1.991713  0  0  -0.626642  0  2.219664  0  0  -0.650819  0  2.210213  0  0  -0.349938  -0.60965  0  2.22582  0
O  O80  1  0.16138837  0.04473779  0.48100939  1  0  -0.669595  0  2.021958  0  0  -0.622672  0  2.265972  0  0  -0.645694  0  2.256791  0  0  -0.394221  -0.606328  0  2.271627  0
O  O81  1  0.83861455  0.95525144  0.51900560  1  0  -0.669663  0  2.021946  0  0  -0.622721  0  2.265957  0  0  -0.645742  0  2.256775  0  0  -0.39424  -0.606383  0  2.271613  0
O  O82  1  0.91540167  0.15871864  0.53799273  1  0  -0.654005  0  2.08057  0  0  -0.60781  0  2.323265  0  0  -0.63032  0  2.314801  0  0  -0.373698  -0.591742  0  2.328723  0
O  O83  1  0.08459188  0.84128326  0.46200114  1  0  -0.653995  0  2.080303  0  0  -0.607808  0  2.32299  0  0  -0.63032  0  2.314525  0  0  -0.373695  -0.591733  0  2.328449  0
O  O84  1  0.63390097  0.65122330  0.44179493  1  0  -0.898446  0  1.808874  0  0  -0.846419  0  1.987727  0  0  -0.864093  0  1.956128  0  0  -0.610067  -0.833545  0  2.009754  0
O  O85  1  0.36609588  0.34877295  0.55820511  1  0  -0.89849  0  1.808902  0  0  -0.846429  0  1.987744  0  0  -0.864096  0  1.956132  0  0  -0.610103  -0.833558  0  2.009804  0
O  O86  1  0.46257536  0.84805105  0.60719036  1  0  -0.669626  0  2.014624  0  0  -0.62357  0  2.250994  0  0  -0.645119  0  2.241354  0  0  -0.385033  -0.608553  0  2.256968  0
O  O87  1  0.53741311  0.15194764  0.39280963  1  0  -0.669502  0  2.014842  0  0  -0.623447  0  2.251188  0  0  -0.64499  0  2.241534  0  0  -0.38495  -0.608433  0  2.25716  0
O  O88  1  0.78174809  0.24663127  0.32128982  1  0  -0.686591  0  2.038631  0  0  -0.632397  0  2.272214  0  0  -0.65764  0  2.264681  0  0  -0.359894  -0.61452  0  2.276697  0
O  O89  1  0.21825333  0.75335841  0.67870846  1  0  -0.686502  0  2.038509  0  0  -0.632341  0  2.272107  0  0  -0.657584  0  2.264576  0  0  -0.35984  -0.614453  0  2.276574  0
O  O90  1  0.66401773  0.43148996  0.38752114  1  0  -0.696804  0  1.992486  0  0  -0.632552  0  2.216608  0  0  -0.657619  0  2.205368  0  0  -0.361743  -0.614595  0  2.223712  0
O  O91  1  0.33598264  0.56849973  0.61247813  1  0  -0.6968  0  1.99255  0  0  -0.632553  0  2.216648  0  0  -0.65762  0  2.205406  0  0  -0.361725  -0.614596  0  2.223755  0
O  O92  1  0.84856593  0.43098735  0.65149532  1  0  -0.831658  0  1.809549  0  0  -0.783336  0  1.981041  0  0  -0.798796  0  1.948838  0  0  -0.603934  -0.772941  0  2.004003  0
O  O93  1  0.15144697  0.56899751  0.34850807  1  0  -0.83168  0  1.809629  0  0  -0.783359  0  1.981044  0  0  -0.798817  0  1.948845  0  0  -0.603955  -0.772967  0  2.004008  0
O  O94  1  0.51139340  0.02080597  0.63020967  1  0  -0.671187  0  2.006424  0  0  -0.626075  0  2.246805  0  0  -0.647884  0  2.237509  0  0  -0.387123  -0.610771  0  2.252383  0
O  O95  1  0.48860056  0.97918936  0.36978804  1  0  -0.671232  0  2.006174  0  0  -0.626141  0  2.246513  0  0  -0.647949  0  2.237216  0  0  -0.387176  -0.610832  0  2.25209  0
