# generated using pymatgen
data_HgH32C34(BrN2)2
_symmetry_space_group_name_H-M   'P 1'
_cell_length_a   10.43502088
_cell_length_b   10.44710446
_cell_length_c   16.29054105
_cell_angle_alpha   105.80192987
_cell_angle_beta   106.16642088
_cell_angle_gamma   98.16535468
_symmetry_Int_Tables_number   1
_chemical_formula_structural   HgH32C34(BrN2)2
_chemical_formula_sum   'Hg2 H64 C68 Br4 N8'
_cell_volume   1594.98835455
_cell_formula_units_Z   2
loop_
 _symmetry_equiv_pos_site_id
 _symmetry_equiv_pos_as_xyz
  1  'x, y, z'
loop_
 _atom_site_type_symbol
 _atom_site_label
 _atom_site_symmetry_multiplicity
 _atom_site_fract_x
 _atom_site_fract_y
 _atom_site_fract_z
 _atom_site_occupancy
 _atom_site_hle17_bader_spin_density
 _atom_site_hle17_ddec_charge
 _atom_site_hle17_ddec_spin_density
 _atom_site_hle17_ddec_sum_bond_order
 _atom_site_hle17_magmom
 _atom_site_hse06_10hf_bader_spin_density
 _atom_site_hse06_10hf_ddec_charge
 _atom_site_hse06_10hf_ddec_spin_density
 _atom_site_hse06_10hf_ddec_sum_bond_order
 _atom_site_hse06_10hf_magmom
 _atom_site_hse06_bader_spin_density
 _atom_site_hse06_ddec_charge
 _atom_site_hse06_ddec_spin_density
 _atom_site_hse06_ddec_sum_bond_order
 _atom_site_hse06_magmom
 _atom_site_pbe_bader_spin_density
 _atom_site_pbe_cm5_charge
 _atom_site_pbe_ddec_charge
 _atom_site_pbe_ddec_spin_density
 _atom_site_pbe_ddec_sum_bond_order
 _atom_site_pbe_magmom
Hg  Hg0  1  0.97531310  0.22512201  0.25000586  1  0  0.701212  0  2.139757  0  0  0.555446  0  2.648487  0  0  0.602234  0  2.614792  0  0  0.496991  0.523999  0  2.670355  0
Hg  Hg1  1  0.02468976  0.77487484  0.74999370  1  0  0.70127  0  2.139642  0  0  0.555497  0  2.648384  0  0  0.602291  0  2.614677  0  0  0.497023  0.524049  0  2.670253  0
H  H2  1  0.18500195  0.37184945  0.51713066  1  0  0.067568  0  0.950814  0  0  0.08567  0  1.014083  0  0  0.08635  0  1.014631  0  0  0.089317  0.085359  0  1.013621  0
H  H3  1  0.85480889  0.16796602  0.98310406  1  0  0.06902  0  0.950641  0  0  0.086171  0  1.014504  0  0  0.086915  0  1.014962  0  0  0.089317  0.085823  0  1.014083  0
H  H4  1  0.81500115  0.62814842  0.48286913  1  0  0.067557  0  0.950889  0  0  0.085643  0  1.014167  0  0  0.086324  0  1.014716  0  0  0.089287  0.085324  0  1.013713  0
H  H5  1  0.14519371  0.83203389  0.01690029  1  0  0.069004  0  0.950525  0  0  0.086168  0  1.014379  0  0  0.086912  0  1.014835  0  0  0.089304  0.085815  0  1.013965  0
H  H6  1  0.09782582  0.40596532  0.41893895  1  0  0.053329  0  0.978242  0  0  0.068059  0  1.054607  0  0  0.068521  0  1.054493  0  0  0.07459  0.067699  0  1.054855  0
H  H7  1  0.98743069  0.17886774  0.08119158  1  0  0.054156  0  0.978861  0  0  0.06868  0  1.054834  0  0  0.069144  0  1.054736  0  0  0.074652  0.068297  0  1.055098  0
H  H8  1  0.90217676  0.59403460  0.58106172  1  0  0.053354  0  0.978219  0  0  0.068068  0  1.054597  0  0  0.068528  0  1.054485  0  0  0.074597  0.067707  0  1.054843  0
H  H9  1  0.01256687  0.82113622  0.91881383  1  0  0.054136  0  0.978901  0  0  0.06868  0  1.054853  0  0  0.06912  0  1.054781  0  0  0.07466  0.068299  0  1.055115  0
H  H10  1  0.24332784  0.62136211  0.53651261  1  0  0.074014  0  0.957928  0  0  0.08987  0  1.020089  0  0  0.090415  0  1.02212  0  0  0.088016  0.089327  0  1.018893  0
H  H11  1  0.08510485  0.20649028  0.96358731  1  0  0.073586  0  0.959116  0  0  0.089777  0  1.020798  0  0  0.090296  0  1.022867  0  0  0.087641  0.08926  0  1.019564  0
H  H12  1  0.75667450  0.37863678  0.46348845  1  0  0.074045  0  0.957945  0  0  0.089885  0  1.020086  0  0  0.090431  0  1.022114  0  0  0.088042  0.089342  0  1.018891  0
H  H13  1  0.91489973  0.79351372  0.03642240  1  0  0.073683  0  0.959094  0  0  0.089768  0  1.020857  0  0  0.090286  0  1.022924  0  0  0.087634  0.089256  0  1.019623  0
H  H14  1  0.16179918  0.59111205  0.61406934  1  0  0.061407  0  0.97849  0  0  0.075202  0  1.051583  0  0  0.07654  0  1.050799  0  0  0.074425  0.074114  0  1.052328  0
H  H15  1  0.97692535  0.04755804  0.88596971  1  0  0.061312  0  0.978261  0  0  0.075071  0  1.051514  0  0  0.076468  0  1.050682  0  0  0.074153  0.073975  0  1.052263  0
H  H16  1  0.83820193  0.40888581  0.38593070  1  0  0.061433  0  0.978498  0  0  0.075175  0  1.051618  0  0  0.076512  0  1.050835  0  0  0.074414  0.074091  0  1.05236  0
H  H17  1  0.02307916  0.95245005  0.11403765  1  0  0.061285  0  0.978263  0  0  0.075057  0  1.051477  0  0  0.07645  0  1.050644  0  0  0.074143  0.073961  0  1.052225  0
H  H18  1  0.98102737  0.37223944  0.56682435  1  0  0.070941  0  0.939762  0  0  0.082246  0  1.004314  0  0  0.083732  0  1.004588  0  0  0.097758  0.081243  0  1.004191  0
H  H19  1  0.80520568  0.91435339  0.93317421  1  0  0.070746  0  0.939077  0  0  0.082206  0  1.003452  0  0  0.083693  0  1.003739  0  0  0.097591  0.081202  0  1.003317  0
H  H20  1  0.01897573  0.62775844  0.43317544  1  0  0.071  0  0.939663  0  0  0.082314  0  1.004222  0  0  0.083799  0  1.004497  0  0  0.097799  0.081309  0  1.004099  0
H  H21  1  0.19480315  0.08564758  0.06683143  1  0  0.070821  0  0.938898  0  0  0.082217  0  1.003346  0  0  0.083708  0  1.003636  0  0  0.097601  0.081214  0  1.00321  0
H  H22  1  0.57682573  0.05530574  0.43852984  1  0  0.094608  0  0.951495  0  0  0.105531  0  1.012919  0  0  0.108155  0  1.012606  0  0  0.099789  0.103701  0  1.013141  0
H  H23  1  0.61702066  0.63885988  0.06192169  1  0  0.093975  0  0.951463  0  0  0.104916  0  1.013094  0  0  0.107549  0  1.012765  0  0  0.099552  0.103037  0  1.013384  0
H  H24  1  0.42317567  0.94468906  0.56147033  1  0  0.09459  0  0.951549  0  0  0.105493  0  1.01299  0  0  0.10812  0  1.012664  0  0  0.09978  0.103654  0  1.013221  0
H  H25  1  0.38297401  0.36114920  0.93807183  1  0  0.093966  0  0.951461  0  0  0.104911  0  1.013084  0  0  0.107547  0  1.012751  0  0  0.099538  0.103018  0  1.013391  0
H  H26  1  0.83214634  0.38777515  0.67785342  1  0  0.081654  0  1.000892  0  0  0.088671  0  1.072797  0  0  0.092031  0  1.070665  0  0  0.084025  0.086275  0  1.074372  0
H  H27  1  0.70881524  0.65370173  0.82211990  1  0  0.082017  0  0.99783  0  0  0.088806  0  1.070175  0  0  0.092084  0  1.068102  0  0  0.083814  0.086466  0  1.071691  0
H  H28  1  0.16784525  0.61222471  0.32214531  1  0  0.08164  0  1.000865  0  0  0.088679  0  1.072746  0  0  0.092037  0  1.070615  0  0  0.084026  0.086285  0  1.074316  0
H  H29  1  0.29118197  0.34630532  0.17787432  1  0  0.082105  0  0.997882  0  0  0.088922  0  1.070173  0  0  0.092205  0  1.068103  0  0  0.083853  0.086579  0  1.071695  0
H  H30  1  0.92786093  0.20951778  0.61994370  1  0  0.083796  0  0.946677  0  0  0.096029  0  1.015853  0  0  0.096442  0  1.016466  0  0  0.110769  0.095819  0  1.015349  0
H  H31  1  0.58900471  0.80737313  0.88010930  1  0  0.082354  0  0.945184  0  0  0.095097  0  1.014116  0  0  0.095585  0  1.01467  0  0  0.110151  0.094843  0  1.013678  0
H  H32  1  0.07213788  0.79048314  0.38005587  1  0  0.083791  0  0.946688  0  0  0.096032  0  1.015866  0  0  0.096447  0  1.016473  0  0  0.110778  0.095821  0  1.015368  0
H  H33  1  0.41099292  0.19264006  0.11988792  1  0  0.082413  0  0.945064  0  0  0.095155  0  1.013991  0  0  0.09564  0  1.014542  0  0  0.11021  0.094903  0  1.013552  0
H  H34  1  0.81372515  0.04715085  0.57743561  1  0  0.091195  0  0.912291  0  0  0.108858  0  0.970668  0  0  0.110021  0  0.969545  0  0  0.11684  0.108089  0  0.97149  0
H  H35  1  0.46901251  0.73612645  0.92267515  1  0  0.091346  0  0.911864  0  0  0.108769  0  0.970485  0  0  0.109957  0  0.969348  0  0  0.117079  0.108041  0  0.971244  0
H  H36  1  0.18627567  0.95285007  0.42256493  1  0  0.091201  0  0.912297  0  0  0.10887  0  0.970681  0  0  0.110031  0  0.969562  0  0  0.116837  0.1081  0  0.971502  0
H  H37  1  0.53098294  0.26388161  0.07732079  1  0  0.091389  0  0.911881  0  0  0.10876  0  0.970566  0  0  0.109946  0  0.969429  0  0  0.117077  0.108035  0  0.971322  0
H  H38  1  0.90647426  0.90364324  0.21708281  1  0  0.101761  0  0.961572  0  0  0.111876  0  1.025441  0  0  0.114391  0  1.024382  0  0  0.098748  0.110261  0  1.026277  0
H  H39  1  0.68656845  0.18966507  0.28292169  1  0  0.101511  0  0.962379  0  0  0.111394  0  1.026535  0  0  0.113906  0  1.025492  0  0  0.098721  0.109787  0  1.027351  0
H  H40  1  0.09353684  0.09635468  0.78291962  1  0  0.101757  0  0.961555  0  0  0.111903  0  1.025385  0  0  0.11442  0  1.024323  0  0  0.098734  0.110286  0  1.026224  0
H  H41  1  0.31343772  0.81032873  0.71707976  1  0  0.101502  0  0.962365  0  0  0.111396  0  1.026517  0  0  0.113906  0  1.025474  0  0  0.098716  0.109789  0  1.027332  0
H  H42  1  0.38976587  0.17963448  0.42475854  1  0  0.080936  0  0.99749  0  0  0.088669  0  1.066614  0  0  0.092311  0  1.063665  0  0  0.081824  0.086131  0  1.068668  0
H  H43  1  0.75520369  0.46562401  0.07549990  1  0  0.080879  0  0.997462  0  0  0.088772  0  1.066529  0  0  0.092402  0  1.063578  0  0  0.081935  0.086226  0  1.068605  0
H  H44  1  0.61023010  0.82035416  0.57523776  1  0  0.08082  0  0.997524  0  0  0.088512  0  1.066713  0  0  0.092147  0  1.063777  0  0  0.081763  0.085969  0  1.068766  0
H  H45  1  0.24478729  0.53438199  0.92449428  1  0  0.081027  0  0.997363  0  0  0.088845  0  1.066519  0  0  0.092489  0  1.063556  0  0  0.081948  0.086297  0  1.068597  0
H  H46  1  0.73693224  0.83971770  0.46796594  1  0  0.09922  0  0.976318  0  0  0.107754  0  1.044797  0  0  0.110327  0  1.043794  0  0  0.100344  0.10573  0  1.045908  0
H  H47  1  0.37121052  0.76905604  0.03215006  1  0  0.099616  0  0.97631  0  0  0.108152  0  1.044655  0  0  0.110718  0  1.043669  0  0  0.100613  0.106143  0  1.045737  0
H  H48  1  0.26307139  0.16027813  0.53203419  1  0  0.099235  0  0.976397  0  0  0.107797  0  1.044828  0  0  0.110369  0  1.043826  0  0  0.100356  0.105766  0  1.045954  0
H  H49  1  0.62878685  0.23094282  0.96785258  1  0  0.099589  0  0.976301  0  0  0.108151  0  1.044619  0  0  0.110719  0  1.043629  0  0  0.100588  0.106141  0  1.045703  0
H  H50  1  0.79333144  0.67254542  0.21049963  1  0  0.089607  0  0.978066  0  0  0.102559  0  1.036457  0  0  0.104747  0  1.035939  0  0  0.090346  0.101073  0  1.036724  0
H  H51  1  0.46222394  0.08275455  0.28982901  1  0  0.08909  0  0.977578  0  0  0.101413  0  1.036905  0  0  0.103675  0  1.036264  0  0  0.089663  0.099962  0  1.03714  0
H  H52  1  0.20667714  0.32745452  0.78950210  1  0  0.089644  0  0.978041  0  0  0.102588  0  1.036436  0  0  0.10478  0  1.035916  0  0  0.090363  0.101096  0  1.036711  0
H  H53  1  0.53777912  0.91724741  0.71017271  1  0  0.089098  0  0.977588  0  0  0.10142  0  1.036921  0  0  0.103681  0  1.036284  0  0  0.089667  0.099969  0  1.037157  0
H  H54  1  0.71008118  0.64104031  0.33285128  1  0  0.088215  0  0.949768  0  0  0.101648  0  1.005256  0  0  0.104277  0  1.004396  0  0  0.09849  0.099592  0  1.006274  0
H  H55  1  0.30799605  0.87715018  0.16745147  1  0  0.088408  0  0.949462  0  0  0.102151  0  1.004436  0  0  0.104696  0  1.00368  0  0  0.098711  0.100138  0  1.005412  0
H  H56  1  0.28992314  0.35895859  0.66714768  1  0  0.08817  0  0.949777  0  0  0.101635  0  1.005226  0  0  0.104264  0  1.004365  0  0  0.098488  0.099578  0  1.006244  0
H  H57  1  0.69200679  0.12285075  0.83255249  1  0  0.088425  0  0.949433  0  0  0.102195  0  1.004382  0  0  0.104742  0  1.003622  0  0  0.098713  0.100179  0  1.005362  0
H  H58  1  0.64415860  0.51065491  0.66512767  1  0  0.084357  0  0.968523  0  0  0.093378  0  1.032234  0  0  0.096112  0  1.03118  0  0  0.092817  0.091485  0  1.032988  0
H  H59  1  0.84486557  0.47888478  0.83481204  1  0  0.084604  0  0.968876  0  0  0.093354  0  1.032771  0  0  0.096142  0  1.031667  0  0  0.093068  0.091436  0  1.033538  0
H  H60  1  0.35583056  0.48933880  0.33486832  1  0  0.084405  0  0.968575  0  0  0.093469  0  1.03224  0  0  0.096205  0  1.031188  0  0  0.092876  0.091575  0  1.032996  0
H  H61  1  0.15513783  0.52112742  0.16518664  1  0  0.084642  0  0.968861  0  0  0.093395  0  1.032742  0  0  0.096181  0  1.031639  0  0  0.093094  0.091476  0  1.033512  0
H  H62  1  0.42320219  0.40739447  0.53703851  1  0  0.085423  0  0.952224  0  0  0.099727  0  1.007564  0  0  0.101992  0  1.007396  0  0  0.098798  0.098053  0  1.00781  0
H  H63  1  0.87030962  0.38652131  0.96297523  1  0  0.086232  0  0.952437  0  0  0.100361  0  1.007811  0  0  0.102655  0  1.00762  0  0  0.099259  0.098698  0  1.008038  0
H  H64  1  0.57679048  0.59259722  0.46295529  1  0  0.085429  0  0.952169  0  0  0.099692  0  1.00754  0  0  0.10194  0  1.007392  0  0  0.098772  0.098032  0  1.00777  0
H  H65  1  0.12968264  0.61348163  0.03701863  1  0  0.086175  0  0.952449  0  0  0.100293  0  1.007847  0  0  0.102603  0  1.007631  0  0  0.099224  0.098632  0  1.008071  0
C  C66  1  0.10517835  0.42169143  0.48986561  1  0  -0.106253  0  3.653068  0  0  -0.15126  0  3.905779  0  0  -0.151465  0  3.919806  0  0  -0.164353  -0.151045  0  3.895795  0
C  C67  1  0.93191478  0.11535081  0.01025907  1  0  -0.109517  0  3.656097  0  0  -0.153358  0  3.907279  0  0  -0.153568  0  3.92132  0  0  -0.16469  -0.153104  0  3.897282  0
C  C68  1  0.89482398  0.57830746  0.51013361  1  0  -0.106311  0  3.653211  0  0  -0.151259  0  3.905847  0  0  -0.151466  0  3.919875  0  0  -0.164353  -0.151031  0  3.895854  0
C  C69  1  0.06808454  0.88465215  0.98974463  1  0  -0.109479  0  3.656077  0  0  -0.15332  0  3.907153  0  0  -0.153516  0  3.9212  0  0  -0.164671  -0.153071  0  3.897172  0
C  C70  1  0.92611739  0.20452044  0.44692391  1  0  0.335513  0  3.645035  0  0  0.297377  0  3.923076  0  0  0.317008  0  3.935037  0  0  0.236932  0.285693  0  3.913546  0
C  C71  1  0.75735405  0.97926035  0.05304070  1  0  0.335985  0  3.640165  0  0  0.297715  0  3.918901  0  0  0.317414  0  3.930751  0  0  0.237053  0.285987  0  3.909442  0
C  C72  1  0.07388571  0.79547743  0.55307649  1  0  0.335405  0  3.645165  0  0  0.297355  0  3.923107  0  0  0.316986  0  3.935069  0  0  0.236913  0.285672  0  3.913575  0
C  C73  1  0.24264459  0.02073545  0.94696039  1  0  0.335983  0  3.640212  0  0  0.297737  0  3.918919  0  0  0.317437  0  3.930767  0  0  0.237072  0.286011  0  3.909459  0
C  C74  1  0.14608168  0.57484702  0.54191697  1  0  -0.129104  0  3.646398  0  0  -0.169572  0  3.895075  0  0  -0.170605  0  3.908444  0  0  -0.168316  -0.168408  0  3.885597  0
C  C75  1  0.03297059  0.10397395  0.95813097  1  0  -0.12944  0  3.648284  0  0  -0.170184  0  3.896279  0  0  -0.171292  0  3.909743  0  0  -0.168117  -0.169006  0  3.886746  0
C  C76  1  0.85392066  0.42515187  0.45808286  1  0  -0.129208  0  3.646511  0  0  -0.169584  0  3.895038  0  0  -0.170618  0  3.908409  0  0  -0.168349  -0.168426  0  3.885554  0
C  C77  1  0.96703597  0.89603007  0.04187664  1  0  -0.12953  0  3.648438  0  0  -0.170137  0  3.896289  0  0  -0.171232  0  3.90974  0  0  -0.168076  -0.168964  0  3.886758  0
C  C78  1  0.96760182  0.35504801  0.49476995  1  0  -0.068861  0  3.662153  0  0  -0.064331  0  3.889554  0  0  -0.068336  0  3.905033  0  0  -0.081496  -0.061434  0  3.87801  0
C  C79  1  0.86017194  0.97298570  0.00525977  1  0  -0.066678  0  3.655978  0  0  -0.062055  0  3.882295  0  0  -0.06607  0  3.897764  0  0  -0.080935  -0.059151  0  3.870779  0
C  C80  1  0.03240152  0.64495089  0.50523006  1  0  -0.068902  0  3.6621  0  0  -0.064477  0  3.889693  0  0  -0.068478  0  3.905169  0  0  -0.081581  -0.06158  0  3.878143  0
C  C81  1  0.13982943  0.02701318  0.99474418  1  0  -0.06668  0  3.655803  0  0  -0.062002  0  3.882105  0  0  -0.066015  0  3.897572  0  0  -0.080902  -0.059102  0  3.870588  0
C  C82  1  0.88368513  0.00202300  0.34635089  1  0  0.144832  0  3.846956  0  0  0.140514  0  4.098  0  0  0.144464  0  4.121512  0  0  0.079756  0.137359  0  4.083031  0
C  C83  1  0.65552056  0.03744479  0.15371371  1  0  0.143551  0  3.848479  0  0  0.13883  0  4.099632  0  0  0.142784  0  4.123131  0  0  0.078909  0.135682  0  4.084645  0
C  C84  1  0.11631774  0.99797385  0.65364990  1  0  0.144651  0  3.847011  0  0  0.140374  0  4.098019  0  0  0.144324  0  4.121523  0  0  0.079683  0.137213  0  4.083064  0
C  C85  1  0.34448410  0.96255104  0.84629090  1  0  0.143588  0  3.848472  0  0  0.138756  0  4.09977  0  0  0.142675  0  4.123318  0  0  0.078873  0.135606  0  4.084785  0
C  C86  1  0.71662464  0.21324442  0.55972232  1  0  0.057475  0  3.7551  0  0  0.08179  0  3.988504  0  0  0.080799  0  4.013002  0  0  -0.0177  0.082329  0  3.971911  0
C  C87  1  0.65311597  0.65688832  0.94050452  1  0  0.05672  0  3.755145  0  0  0.081082  0  3.988243  0  0  0.080156  0  4.01269  0  0  -0.017238  0.081565  0  3.971702  0
C  C88  1  0.28337399  0.78675138  0.44027631  1  0  0.057482  0  3.755128  0  0  0.081877  0  3.988449  0  0  0.080885  0  4.012948  0  0  -0.017706  0.08241  0  3.971856  0
C  C89  1  0.34687800  0.34311770  0.05948895  1  0  0.056622  0  3.755459  0  0  0.08107  0  3.988471  0  0  0.080149  0  4.012905  0  0  -0.017347  0.081555  0  3.97192  0
C  C90  1  0.83742627  0.98276262  0.41692087  1  0  0.102873  0  3.789398  0  0  0.088986  0  4.041346  0  0  0.093173  0  4.063138  0  0  0.088944  0.087363  0  4.025248  0
C  C91  1  0.56555726  0.92056513  0.08317365  1  0  0.102384  0  3.790408  0  0  0.089634  0  4.041261  0  0  0.09385  0  4.062986  0  0  0.089553  0.088011  0  4.025186  0
C  C92  1  0.16257660  0.01723423  0.58307992  1  0  0.103148  0  3.789195  0  0  0.089214  0  4.041162  0  0  0.093408  0  4.062941  0  0  0.08898  0.087578  0  4.025088  0
C  C93  1  0.43444263  0.07943170  0.91682907  1  0  0.102328  0  3.790381  0  0  0.089647  0  4.041216  0  0  0.093874  0  4.062949  0  0  0.089519  0.088024  0  4.025141  0
C  C94  1  0.59120758  0.15437092  0.48895521  1  0  -0.120833  0  3.748726  0  0  -0.143168  0  3.997652  0  0  -0.145589  0  4.019146  0  0  -0.096393  -0.141489  0  3.98297  0
C  C95  1  0.66543254  0.60263373  0.01138810  1  0  -0.118477  0  3.745564  0  0  -0.140985  0  3.994533  0  0  -0.143419  0  4.016  0  0  -0.095571  -0.13924  0  3.979827  0
C  C96  1  0.40879404  0.84562490  0.51104396  1  0  -0.120833  0  3.748703  0  0  -0.143162  0  3.997561  0  0  -0.145581  0  4.019055  0  0  -0.096367  -0.141471  0  3.98288  0
C  C97  1  0.33456195  0.39737024  0.98860572  1  0  -0.118563  0  3.745775  0  0  -0.141102  0  3.994687  0  0  -0.143541  0  4.016157  0  0  -0.095619  -0.139342  0  3.979984  0
C  C98  1  0.73359599  0.34034286  0.62373487  1  0  -0.122426  0  3.754074  0  0  -0.137856  0  3.988859  0  0  -0.141483  0  4.01157  0  0  -0.09602  -0.135224  0  3.973447  0
C  C99  1  0.71590056  0.60959005  0.87633690  1  0  -0.122488  0  3.752949  0  0  -0.137908  0  3.987931  0  0  -0.141478  0  4.010682  0  0  -0.095562  -0.135295  0  3.972487  0
C  C100  1  0.26639812  0.65965497  0.37626333  1  0  -0.122438  0  3.754231  0  0  -0.137919  0  3.989036  0  0  -0.141545  0  4.011751  0  0  -0.096031  -0.135286  0  3.973625  0
C  C101  1  0.28409165  0.39041697  0.12365767  1  0  -0.122662  0  3.753078  0  0  -0.138134  0  3.988026  0  0  -0.141713  0  4.010773  0  0  -0.095637  -0.135525  0  3.972598  0
C  C102  1  0.83537722  0.14440085  0.56437990  1  0  -0.026363  0  3.642478  0  0  -0.095209  0  3.893507  0  0  -0.089947  0  3.903153  0  0  -0.044325  -0.098748  0  3.887018  0
C  C103  1  0.57947077  0.77077645  0.93573705  1  0  -0.024589  0  3.639209  0  0  -0.093252  0  3.889732  0  0  -0.088119  0  3.89945  0  0  -0.044437  -0.096752  0  3.883206  0
C  C104  1  0.16462336  0.85559905  0.43562103  1  0  -0.026356  0  3.64257  0  0  -0.095269  0  3.893621  0  0  -0.090005  0  3.90327  0  0  -0.04434  -0.098805  0  3.887125  0
C  C105  1  0.42052345  0.22923058  0.06425849  1  0  -0.024628  0  3.639441  0  0  -0.093277  0  3.889952  0  0  -0.088141  0  3.899672  0  0  -0.04446  -0.096779  0  3.883427  0
C  C106  1  0.86950122  0.89030094  0.27117080  1  0  -0.138254  0  3.750058  0  0  -0.156529  0  4.000427  0  0  -0.158965  0  4.020454  0  0  -0.097817  -0.156068  0  3.988137  0
C  C107  1  0.61905569  0.09846458  0.22893075  1  0  -0.137908  0  3.749887  0  0  -0.155848  0  4.000042  0  0  -0.158312  0  4.020117  0  0  -0.097902  -0.155396  0  3.987749  0
C  C108  1  0.13050665  0.10969594  0.72883149  1  0  -0.138152  0  3.750047  0  0  -0.156452  0  4.000367  0  0  -0.15889  0  4.020393  0  0  -0.09774  -0.155987  0  3.988076  0
C  C109  1  0.38094619  0.90153226  0.77107171  1  0  -0.137921  0  3.750008  0  0  -0.155838  0  4.000196  0  0  -0.158295  0  4.020288  0  0  -0.097889  -0.155387  0  3.987903  0
C  C110  1  0.48599904  0.22380259  0.48132486  1  0  -0.082841  0  3.805433  0  0  -0.093234  0  4.054236  0  0  -0.095505  0  4.075651  0  0  -0.100112  -0.091643  0  4.039646  0
C  C111  1  0.74255537  0.50511310  0.01892892  1  0  -0.083116  0  3.802227  0  0  -0.093669  0  4.051173  0  0  -0.095936  0  4.072605  0  0  -0.100672  -0.092071  0  4.036565  0
C  C112  1  0.51399741  0.77618809  0.51867188  1  0  -0.082639  0  3.805331  0  0  -0.093003  0  4.054123  0  0  -0.095268  0  4.075529  0  0  -0.100063  -0.091407  0  4.03953  0
C  C113  1  0.25743642  0.49488779  0.98106450  1  0  -0.083079  0  3.802043  0  0  -0.093562  0  4.050954  0  0  -0.095842  0  4.072386  0  0  -0.100528  -0.091961  0  4.036343  0
C  C114  1  0.77453467  0.85384824  0.41425854  1  0  -0.150789  0  3.768815  0  0  -0.17144  0  4.027766  0  0  -0.174307  0  4.048207  0  0  -0.099168  -0.168875  0  4.012831  0
C  C115  1  0.43928386  0.86026618  0.08589804  1  0  -0.150906  0  3.772286  0  0  -0.171798  0  4.031017  0  0  -0.174675  0  4.051418  0  0  -0.099986  -0.16924  0  4.016098  0
C  C116  1  0.22546895  0.14614759  0.58574098  1  0  -0.150989  0  3.768889  0  0  -0.171662  0  4.027866  0  0  -0.174534  0  4.048304  0  0  -0.099224  -0.169091  0  4.012931  0
C  C117  1  0.56071826  0.13973168  0.91410525  1  0  -0.15086  0  3.77214  0  0  -0.171772  0  4.030851  0  0  -0.174649  0  4.051248  0  0  -0.099932  -0.169214  0  4.015932  0
C  C118  1  0.80616676  0.76171826  0.26808754  1  0  -0.081746  0  3.788319  0  0  -0.096911  0  4.038276  0  0  -0.098759  0  4.059992  0  0  -0.103919  -0.095904  0  4.024239  0
C  C119  1  0.49357861  0.03805671  0.23211476  1  0  -0.080693  0  3.786726  0  0  -0.095366  0  4.036659  0  0  -0.097242  0  4.058322  0  0  -0.103421  -0.094394  0  4.022637  0
C  C120  1  0.19383834  0.23827962  0.73191260  1  0  -0.081776  0  3.788274  0  0  -0.096948  0  4.038258  0  0  -0.098801  0  4.059976  0  0  -0.103932  -0.095934  0  4.024217  0
C  C121  1  0.50642351  0.96194115  0.76788730  1  0  -0.080694  0  3.786883  0  0  -0.095367  0  4.036826  0  0  -0.097243  0  4.058489  0  0  -0.103401  -0.094395  0  4.022803  0
C  C122  1  0.75919456  0.74370372  0.33826678  1  0  -0.06823  0  3.780907  0  0  -0.083781  0  4.034601  0  0  -0.085576  0  4.05657  0  0  -0.09913  -0.082941  0  4.019947  0
C  C123  1  0.40524535  0.92087449  0.16193373  1  0  -0.068386  0  3.782547  0  0  -0.084143  0  4.036167  0  0  -0.085881  0  4.058182  0  0  -0.098796  -0.083344  0  4.021512  0
C  C124  1  0.24081131  0.25629315  0.66173454  1  0  -0.068159  0  3.780962  0  0  -0.083735  0  4.034676  0  0  -0.085529  0  4.056646  0  0  -0.099137  -0.082893  0  4.020016  0
C  C125  1  0.59475600  0.07912439  0.83806838  1  0  -0.068345  0  3.782594  0  0  -0.084131  0  4.036208  0  0  -0.085869  0  4.058223  0  0  -0.098761  -0.083331  0  4.021553  0
C  C126  1  0.62814970  0.40984448  0.61628868  1  0  -0.063996  0  3.77819  0  0  -0.072458  0  4.018486  0  0  -0.074774  0  4.041623  0  0  -0.091607  -0.070836  0  4.00259  0
C  C127  1  0.79303780  0.51177620  0.88375256  1  0  -0.064576  0  3.777857  0  0  -0.072669  0  4.017891  0  0  -0.075015  0  4.040952  0  0  -0.092292  -0.071033  0  4.002062  0
C  C128  1  0.37184539  0.59015335  0.38370785  1  0  -0.064086  0  3.778451  0  0  -0.072613  0  4.018773  0  0  -0.07493  0  4.041908  0  0  -0.091707  -0.070991  0  4.002881  0
C  C129  1  0.20695989  0.48823290  0.11624395  1  0  -0.064587  0  3.777966  0  0  -0.072676  0  4.018003  0  0  -0.07502  0  4.041067  0  0  -0.092272  -0.071038  0  4.002172  0
C  C130  1  0.50462679  0.35209477  0.54457017  1  0  -0.075155  0  3.780713  0  0  -0.08944  0  4.025888  0  0  -0.091846  0  4.048726  0  0  -0.093411  -0.087423  0  4.010173  0
C  C131  1  0.80733923  0.46028634  0.95554345  1  0  -0.07641  0  3.780214  0  0  -0.090642  0  4.02552  0  0  -0.09308  0  4.04836  0  0  -0.093778  -0.088638  0  4.009807  0
C  C132  1  0.49536441  0.64789486  0.45542362  1  0  -0.075177  0  3.780766  0  0  -0.089392  0  4.025916  0  0  -0.091786  0  4.048754  0  0  -0.093343  -0.087387  0  4.010196  0
C  C133  1  0.19265452  0.53971865  0.04445287  1  0  -0.076313  0  3.780138  0  0  -0.090554  0  4.02543  0  0  -0.092997  0  4.048262  0  0  -0.093776  -0.08855  0  4.009716  0
Br  Br134  1  0.21007062  0.16656497  0.26373951  1  0  -0.45846  0  1.005597  0  0  -0.409194  0  1.296769  0  0  -0.426772  0  1.276553  0  0  -0.224824  -0.397721  0  1.310402  0
Br  Br135  1  0.90269697  0.44583706  0.23610458  1  0  -0.458706  0  1.003213  0  0  -0.409466  0  1.293856  0  0  -0.427039  0  1.273676  0  0  -0.225348  -0.397995  0  1.307515  0
Br  Br136  1  0.78993882  0.83346463  0.73626574  1  0  -0.458476  0  1.005518  0  0  -0.409202  0  1.296679  0  0  -0.426778  0  1.27646  0  0  -0.224848  -0.397729  0  1.310312  0
Br  Br137  1  0.09729000  0.55415561  0.76389699  1  0  -0.458712  0  1.003229  0  0  -0.409449  0  1.293878  0  0  -0.427026  0  1.273703  0  0  -0.225328  -0.397976  0  1.307536  0
N  N138  1  0.93721850  0.14085437  0.36700034  1  0  -0.445301  0  3.148969  0  0  -0.381512  0  3.429936  0  0  -0.405238  0  3.446889  0  0  -0.334704  -0.366232  0  3.418196  0
N  N139  1  0.77369984  0.07034861  0.13297451  1  0  -0.445693  0  3.151648  0  0  -0.381666  0  3.432755  0  0  -0.405494  0  3.449848  0  0  -0.335304  -0.366369  0  3.421019  0
N  N140  1  0.06278537  0.85914249  0.63300063  1  0  -0.445192  0  3.148906  0  0  -0.381433  0  3.429842  0  0  -0.405159  0  3.446789  0  0  -0.334667  -0.366151  0  3.418107  0
N  N141  1  0.22630210  0.92964414  0.86702847  1  0  -0.445754  0  3.151654  0  0  -0.381726  0  3.432832  0  0  -0.405542  0  3.449933  0  0  -0.335362  -0.366424  0  3.421088  0
N  N142  1  0.86705650  0.11246013  0.47985963  1  0  -0.16076  0  3.470469  0  0  -0.076209  0  3.698144  0  0  -0.093716  0  3.721189  0  0  -0.237376  -0.064692  0  3.681903  0
N  N143  1  0.63224579  0.88718603  0.02017876  1  0  -0.160451  0  3.465688  0  0  -0.077122  0  3.694209  0  0  -0.094657  0  3.717271  0  0  -0.236224  -0.065586  0  3.677968  0
N  N144  1  0.13294485  0.88753876  0.52014064  1  0  -0.16089  0  3.470595  0  0  -0.076308  0  3.698236  0  0  -0.093818  0  3.72128  0  0  -0.237397  -0.064788  0  3.681997  0
N  N145  1  0.36775057  0.11281283  0.97982124  1  0  -0.160438  0  3.465763  0  0  -0.077119  0  3.694266  0  0  -0.094661  0  3.717328  0  0  -0.236209  -0.065584  0  3.678026  0
