# generated using pymatgen
data_CuH28C26(NO4)2
_symmetry_space_group_name_H-M   'P 1'
_cell_length_a   9.07853880
_cell_length_b   11.08715044
_cell_length_c   13.41256989
_cell_angle_alpha   107.71280513
_cell_angle_beta   89.99967165
_cell_angle_gamma   90.00028504
_symmetry_Int_Tables_number   1
_chemical_formula_structural   CuH28C26(NO4)2
_chemical_formula_sum   'Cu2 H56 C52 N4 O16'
_cell_volume   1286.04305967
_cell_formula_units_Z   2
loop_
 _symmetry_equiv_pos_site_id
 _symmetry_equiv_pos_as_xyz
  1  'x, y, z'
loop_
 _atom_site_type_symbol
 _atom_site_label
 _atom_site_symmetry_multiplicity
 _atom_site_fract_x
 _atom_site_fract_y
 _atom_site_fract_z
 _atom_site_occupancy
 _atom_site_hle17_ddec_charge
 _atom_site_hle17_ddec_spin_density
 _atom_site_hle17_ddec_sum_bond_order
 _atom_site_hle17_magmom
 _atom_site_hse06_10hf_ddec_charge
 _atom_site_hse06_10hf_ddec_spin_density
 _atom_site_hse06_10hf_ddec_sum_bond_order
 _atom_site_hse06_10hf_magmom
 _atom_site_hse06_ddec_charge
 _atom_site_hse06_ddec_spin_density
 _atom_site_hse06_ddec_sum_bond_order
 _atom_site_hse06_magmom
 _atom_site_pbe_cm5_charge
 _atom_site_pbe_ddec_charge
 _atom_site_pbe_ddec_spin_density
 _atom_site_pbe_ddec_sum_bond_order
 _atom_site_pbe_magmom
Cu  Cu0  1  0.00000016  0.00000202  0.99999958  1  0.855402  -0.700369  1.835927  -0.514  0.824579  -0.778087  2.226628  -0.622  0.914128  -0.842425  2.158402  -0.705  0.746972  0.770892  -0.733835  2.272643  -0.57
Cu  Cu1  1  0.49999988  0.99999811  0.49999964  1  0.855403  -0.700386  1.836009  -0.514  0.824543  -0.77809  2.226709  -0.622  0.914094  -0.842426  2.158485  -0.705  0.746964  0.770863  -0.733823  2.27272  -0.57
H  H2  1  0.62613000  0.06980040  0.68540541  1  0.352845  0.00026  0.956988  0.0  0.322385  0.000242  1.047023  0.0  0.334069  0.000261  1.029866  0.0  0.277376  0.313968  0.000189  1.057138  0.0
H  H3  1  0.12613200  0.93020106  0.81459663  1  0.352782  0.000259  0.95705  0.0  0.322288  0.000242  1.047139  0.0  0.333974  0.000261  1.02998  0.0  0.27735  0.313881  0.000189  1.057206  0.0
H  H4  1  0.37386672  0.93019899  0.31459610  1  0.35279  0.000259  0.957003  0.0  0.32239  0.000242  1.047006  0.0  0.334072  0.000261  1.029854  0.0  0.277376  0.313972  0.000189  1.05707  0.0
H  H5  1  0.87386913  0.06979927  0.18540437  1  0.352816  0.000259  0.957004  0.0  0.322342  0.000242  1.047071  0.0  0.334026  0.000261  1.029915  0.0  0.277371  0.313928  0.000188  1.057159  0.0
H  H6  1  0.76362154  0.06813493  0.88358947  1  0.093494  -0.000845  0.945494  -0.002  0.104147  -0.000692  1.004998  -0.001  0.106182  -0.000482  1.003335  -0.001  0.123099  0.102418  -0.000864  1.006524  -0.002
H  H7  1  0.26361863  0.93186314  0.61640822  1  0.093468  -0.000846  0.945527  -0.002  0.104164  -0.000692  1.004997  -0.001  0.106199  -0.000482  1.003332  -0.001  0.123081  0.102435  -0.000864  1.006525  -0.002
H  H8  1  0.23637738  0.93186445  0.11640832  1  0.093549  -0.000844  0.945477  -0.002  0.10419  -0.000692  1.004998  -0.001  0.106224  -0.000482  1.003335  -0.001  0.123109  0.102462  -0.000863  1.006528  -0.002
H  H9  1  0.73637809  0.06813341  0.38359110  1  0.093495  -0.000844  0.945536  -0.002  0.10418  -0.000692  1.005006  -0.001  0.106214  -0.000482  1.003344  -0.001  0.12311  0.102455  -0.000863  1.006536  -0.002
H  H10  1  0.43670679  0.77294444  0.82381554  1  0.105174  -0.000279  0.973592  -0.001  0.115441  9e-06  1.036128  0.0  0.117755  5.1e-05  1.034978  0.0  0.10754  0.113834  -5e-05  1.036948  0.0
H  H11  1  0.93670142  0.22705225  0.67618486  1  0.105266  -0.000278  0.97352  -0.001  0.115527  9e-06  1.036062  0.0  0.117844  5.1e-05  1.034905  0.0  0.107545  0.113913  -5.1e-05  1.036877  0.0
H  H12  1  0.56329654  0.22705495  0.17618672  1  0.105297  -0.000274  0.973508  -0.001  0.115548  9e-06  1.036048  0.0  0.117865  5.1e-05  1.034892  0.0  0.107556  0.113938  -5.1e-05  1.036867  0.0
H  H13  1  0.06329530  0.77294619  0.32381567  1  0.105296  -0.000275  0.973535  -0.001  0.115551  9e-06  1.03606  0.0  0.117867  5.1e-05  1.034906  0.0  0.10756  0.113941  -5e-05  1.03688  0.0
H  H14  1  0.59247669  0.66844664  0.92973456  1  0.106074  -0.000499  0.954227  0.0  0.113107  -0.000514  1.016462  -0.001  0.116366  -0.00037  1.01594  0.0  0.107511  0.110765  -0.000622  1.016905  -0.001
H  H15  1  0.09247382  0.33155188  0.57026614  1  0.106077  -0.000498  0.95421  0.0  0.113112  -0.000514  1.016446  -0.001  0.116371  -0.00037  1.015925  0.0  0.107505  0.11077  -0.000622  1.016888  -0.001
H  H16  1  0.40752664  0.33155464  0.07026743  1  0.106071  -0.000498  0.954176  0.0  0.113102  -0.000514  1.016416  -0.001  0.116361  -0.00037  1.015895  0.0  0.107517  0.110762  -0.000623  1.016858  -0.001
H  H17  1  0.90752400  0.66844562  0.42973416  1  0.106045  -0.000497  0.954227  0.0  0.113082  -0.000514  1.01646  -0.001  0.116342  -0.00037  1.015938  0.0  0.107506  0.110741  -0.000622  1.016902  -0.001
H  H18  1  0.83071200  0.77224751  0.00542545  1  0.093404  -0.000833  0.947756  -0.002  0.098154  -0.000683  1.016108  -0.001  0.101113  -0.000477  1.012633  -0.001  0.120374  0.095789  -0.000839  1.018788  -0.002
H  H19  1  0.33071150  0.22775537  0.49457634  1  0.093411  -0.000833  0.947709  -0.002  0.09816  -0.000683  1.016058  -0.001  0.101118  -0.000477  1.012584  -0.001  0.120378  0.095795  -0.000838  1.018735  -0.002
H  H20  1  0.16929023  0.22775661  0.99457576  1  0.093375  -0.000831  0.947754  -0.002  0.098141  -0.000683  1.016093  -0.001  0.101098  -0.000477  1.012622  -0.001  0.120378  0.095776  -0.000838  1.018772  -0.002
H  H21  1  0.66928852  0.77224402  0.50542443  1  0.093384  -0.000832  0.947831  -0.002  0.098147  -0.000683  1.016166  -0.001  0.101105  -0.000477  1.012693  -0.001  0.120391  0.095781  -0.000839  1.018845  -0.002
H  H22  1  0.39852195  0.94823964  0.75639811  1  0.056383  -0.000369  0.938153  -0.001  0.068749  -0.000197  1.00526  0.0  0.06944  -0.000122  1.003997  0.0  0.098313  0.067913  -0.00031  1.006668  0.0
H  H23  1  0.89852155  0.05175599  0.74360292  1  0.056345  -0.000371  0.938151  -0.001  0.068702  -0.000198  1.005278  0.0  0.069395  -0.000122  1.004012  0.0  0.09827  0.067864  -0.00031  1.006688  0.0
H  H24  1  0.60147587  0.05175690  0.24360195  1  0.056373  -0.000369  0.938186  -0.001  0.068738  -0.000198  1.005289  0.0  0.06943  -0.000122  1.004025  0.0  0.09831  0.067902  -0.00031  1.006702  0.0
H  H25  1  0.10147848  0.94824151  0.25639812  1  0.056339  -0.000371  0.93819  -0.001  0.068708  -0.000198  1.00529  0.0  0.0694  -0.000122  1.004027  0.0  0.098293  0.067873  -0.00031  1.006698  0.0
H  H26  1  0.48930241  0.09241751  0.82079827  1  0.048967  -0.000111  0.947089  0.0  0.066175  -5.6e-05  1.009618  0.0  0.066052  -5.8e-05  1.009764  0.0  0.099936  0.066193  -4.8e-05  1.009589  0.0
H  H27  1  0.98930555  0.90757934  0.67920346  1  0.048912  -0.000107  0.947118  0.0  0.066117  -5.6e-05  1.009654  0.0  0.065991  -5.8e-05  1.009806  0.0  0.099922  0.066135  -4.8e-05  1.009623  0.0
H  H28  1  0.51069432  0.90757999  0.17920203  1  0.048932  -0.000108  0.947097  0.0  0.06614  -5.6e-05  1.009633  0.0  0.066015  -5.8e-05  1.009782  0.0  0.099935  0.066161  -4.8e-05  1.009603  0.0
H  H29  1  0.01069557  0.09241816  0.32079833  1  0.048946  -0.000107  0.947104  0.0  0.066154  -5.6e-05  1.009638  0.0  0.066031  -5.9e-05  1.009786  0.0  0.099934  0.066174  -4.7e-05  1.009607  0.0
H  H30  1  0.30833222  0.54315719  0.75214230  1  0.13116  0.000103  0.976376  0.0  0.142503  3.9e-05  1.036183  0.0  0.145555  3e-05  1.0348  0.0  0.106774  0.140323  4.8e-05  1.037239  0.0
H  H31  1  0.80831772  0.45685333  0.74786130  1  0.131075  0.0001  0.976325  0.0  0.142394  3.9e-05  1.036188  0.0  0.145447  3e-05  1.034802  0.0  0.106654  0.140214  4.8e-05  1.037245  0.0
H  H32  1  0.69167332  0.45684694  0.24786040  1  0.131173  0.000101  0.976355  0.0  0.142488  3.9e-05  1.036196  0.0  0.145542  3e-05  1.03481  0.0  0.106739  0.140308  4.9e-05  1.037254  0.0
H  H33  1  0.19167460  0.54314889  0.25213644  1  0.131108  9.9e-05  0.976348  0.0  0.142411  3.9e-05  1.036215  0.0  0.145466  3e-05  1.034828  0.0  0.106697  0.140231  4.7e-05  1.037272  0.0
H  H34  1  0.19902680  0.67843243  0.16000557  1  0.134955  0.000201  0.956693  0.0  0.151389  8.4e-05  1.024355  0.0  0.154445  7.5e-05  1.021824  0.0  0.095739  0.149045  8.5e-05  1.026381  0.0
H  H35  1  0.69903053  0.32156627  0.33999494  1  0.134937  0.0002  0.956712  0.0  0.151374  8.4e-05  1.02437  0.0  0.154429  7.5e-05  1.021839  0.0  0.09572  0.149033  8.3e-05  1.026392  0.0
H  H36  1  0.80097322  0.32157075  0.83999689  1  0.134975  0.000202  0.956676  0.0  0.15141  8.4e-05  1.024343  0.0  0.154466  7.5e-05  1.021811  0.0  0.09574  0.149064  8.3e-05  1.026367  0.0
H  H37  1  0.30097060  0.67842932  0.66000115  1  0.13498  0.000205  0.956712  0.0  0.151416  8.3e-05  1.024374  0.0  0.154472  7.5e-05  1.021843  0.0  0.095744  0.149069  8.2e-05  1.026397  0.0
H  H38  1  0.05310118  0.56680933  0.11688640  1  0.123249  0.000107  0.945186  0.0  0.141284  4.7e-05  1.009833  0.0  0.142898  5.2e-05  1.009909  0.0  0.095006  0.140111  4.3e-05  1.00984  0.0
H  H39  1  0.55310302  0.43318609  0.38311087  1  0.123219  0.000107  0.945173  0.0  0.141266  4.7e-05  1.009806  0.0  0.14288  5.3e-05  1.009881  0.0  0.094989  0.140095  4.2e-05  1.009814  0.0
H  H40  1  0.94689884  0.43319195  0.88311484  1  0.123202  0.000103  0.945198  0.0  0.141266  4.7e-05  1.009826  0.0  0.14288  5.3e-05  1.009901  0.0  0.095007  0.140092  4.3e-05  1.009835  0.0
H  H41  1  0.44689921  0.56680950  0.61688671  1  0.123245  0.000106  0.945197  0.0  0.141284  4.7e-05  1.009855  0.0  0.142898  5.3e-05  1.009929  0.0  0.095005  0.140111  4.2e-05  1.009862  0.0
H  H42  1  0.04168359  0.71992459  0.09893953  1  0.147715  -0.000164  0.947658  0.0  0.167888  -0.000101  1.003541  0.0  0.170379  -4.9e-05  1.002458  0.0  0.101976  0.166106  -0.000157  1.004317  0.0
H  H43  1  0.54168544  0.28007365  0.40105998  1  0.147756  -0.000162  0.947643  0.0  0.16792  -0.000101  1.003535  0.0  0.17041  -4.9e-05  1.002451  0.0  0.101989  0.166138  -0.000156  1.004308  0.0
H  H44  1  0.95831864  0.28007669  0.90106096  1  0.147738  -0.000163  0.947632  0.0  0.167934  -0.000101  1.003485  0.0  0.170425  -4.9e-05  1.002401  0.0  0.102011  0.166151  -0.000157  1.004259  0.0
H  H45  1  0.45831679  0.71992479  0.59893832  1  0.147746  -0.000164  0.947633  0.0  0.167958  -0.000101  1.003464  0.0  0.170448  -4.9e-05  1.00238  0.0  0.102004  0.166175  -0.000159  1.004239  0.0
H  H46  1  0.41518020  0.30442670  0.74892666  1  0.132286  7.4e-05  0.944144  0.0  0.154543  5.2e-05  0.998892  0.0  0.155332  4.4e-05  1.000207  0.0  0.098925  0.153972  5.6e-05  0.997917  0.0
H  H47  1  0.91517483  0.69557466  0.75107201  1  0.132213  7.2e-05  0.944228  0.0  0.154543  5.2e-05  0.9989  0.0  0.155335  4.4e-05  1.000209  0.0  0.098909  0.153957  5.8e-05  0.997942  0.0
H  H48  1  0.58481983  0.69557458  0.25107384  1  0.13231  7.1e-05  0.944075  0.0  0.154566  5.2e-05  0.998824  0.0  0.155354  4.4e-05  1.00014  0.0  0.098948  0.153997  5.9e-05  0.997849  0.0
H  H49  1  0.08481858  0.30442189  0.24892805  1  0.132327  6.7e-05  0.944116  0.0  0.154569  5.2e-05  0.998878  0.0  0.155358  4.4e-05  1.000194  0.0  0.098926  0.153997  5.6e-05  0.997903  0.0
H  H50  1  0.30932120  0.24247988  0.83391731  1  0.121545  -3.5e-05  0.947351  0.0  0.138296  -2.8e-05  1.015532  0.0  0.139611  -2.2e-05  1.015621  0.0  0.095349  0.137279  -4.2e-05  1.015655  0.0
H  H51  1  0.80932575  0.75752306  0.66608365  1  0.121544  -3.5e-05  0.947403  0.0  0.138305  -2.8e-05  1.015574  0.0  0.139621  -2.2e-05  1.015665  0.0  0.095368  0.137287  -4.1e-05  1.015696  0.0
H  H52  1  0.69067772  0.75752235  0.16608417  1  0.121525  -3.7e-05  0.947368  0.0  0.138266  -2.8e-05  1.015565  0.0  0.139579  -2.2e-05  1.015656  0.0  0.095347  0.13725  -4.3e-05  1.015688  0.0
H  H53  1  0.19067428  0.24247822  0.33391834  1  0.12153  -3.5e-05  0.947408  0.0  0.138284  -2.8e-05  1.015573  0.0  0.139597  -2.2e-05  1.015664  0.0  0.095345  0.137268  -4.1e-05  1.015696  0.0
H  H54  1  0.48237002  0.31684501  0.87551482  1  0.119487  -4.4e-05  0.93308  0.0  0.139692  -2.9e-05  0.99365  0.0  0.141476  -2.2e-05  0.992745  0.0  0.094805  0.138451  -2.6e-05  0.994255  0.0
H  H55  1  0.98236456  0.68315180  0.62448246  1  0.119444  -4.4e-05  0.933113  0.0  0.139666  -2.9e-05  0.993681  0.0  0.141454  -2.2e-05  0.992775  0.0  0.094799  0.13843  -2.6e-05  0.994282  0.0
H  H56  1  0.51763110  0.68315343  0.12448497  1  0.11944  -4.3e-05  0.933093  0.0  0.139677  -2.9e-05  0.993631  0.0  0.141463  -2.2e-05  0.992724  0.0  0.094812  0.138439  -2.7e-05  0.994236  0.0
H  H57  1  0.01763106  0.31684475  0.37551835  1  0.119477  -4.4e-05  0.93315  0.0  0.139686  -2.9e-05  0.993709  0.0  0.141477  -2.2e-05  0.992797  0.0  0.094802  0.138447  -2.5e-05  0.994313  0.0
C  C58  1  0.72157236  0.97879716  0.89018087  1  0.083036  0.012428  3.665962  0.008  0.048299  0.00314  3.914376  0.002  0.056672  0.004805  3.93321  0.003  0.050253  0.042849  0.001869  3.902712  0.001
C  C59  1  0.22157168  0.02120268  0.60981668  1  0.083042  0.012428  3.665989  0.008  0.048242  0.003141  3.914421  0.002  0.05662  0.004803  3.933247  0.003  0.050262  0.042785  0.001858  3.902762  0.001
C  C60  1  0.27842766  0.02120222  0.10981766  1  0.082943  0.012425  3.665993  0.008  0.048197  0.003141  3.914417  0.002  0.056577  0.004803  3.933238  0.003  0.050223  0.042743  0.001871  3.902759  0.001
C  C61  1  0.77842615  0.97879765  0.39018284  1  0.082991  0.012417  3.666034  0.008  0.048204  0.00314  3.914474  0.002  0.05659  0.004809  3.933285  0.003  0.050218  0.042743  0.001867  3.90282  0.001
C  C62  1  0.58941457  0.92729441  0.84300706  1  0.017249  -0.009992  3.732063  -0.011  0.042701  -0.003738  3.96662  -0.005  0.036001  -0.003387  3.990604  -0.004  -0.007317  0.046725  -0.003983  3.950707  -0.005
C  C63  1  0.08941270  0.07270316  0.65699191  1  0.017279  -0.009994  3.731984  -0.011  0.042737  -0.003741  3.966537  -0.005  0.036035  -0.003382  3.990525  -0.004  -0.0073  0.046758  -0.00398  3.95062  -0.005
C  C64  1  0.41058435  0.07270403  0.15699272  1  0.017328  -0.009992  3.731961  -0.011  0.042792  -0.00374  3.966482  -0.005  0.036091  -0.003386  3.990468  -0.004  -0.007282  0.046814  -0.003986  3.950569  -0.005
C  C65  1  0.91058623  0.92729623  0.34300811  1  0.017324  -0.009987  3.731932  -0.011  0.042793  -0.003738  3.966464  -0.005  0.036093  -0.003388  3.990453  -0.004  -0.007293  0.046816  -0.003981  3.950551  -0.005
C  C66  1  0.54109472  0.81437130  0.85785195  1  -0.049924  0.013839  3.682607  0.009  -0.073402  0.004884  3.917691  0.003  -0.069945  0.00546  3.937538  0.003  -0.064425  -0.07587  0.004463  3.904614  0.002
C  C67  1  0.04108925  0.18562612  0.64214643  1  -0.050017  0.013837  3.682444  0.009  -0.073486  0.004888  3.917509  0.003  -0.070031  0.005454  3.937358  0.003  -0.064443  -0.075941  0.004463  3.904422  0.002
C  C68  1  0.45890861  0.18562809  0.14214882  1  -0.050051  0.013824  3.682401  0.009  -0.07351  0.004889  3.917479  0.003  -0.070054  0.005455  3.937326  0.003  -0.06445  -0.075971  0.004469  3.904399  0.002
C  C69  1  0.95890857  0.81437232  0.35785335  1  -0.050043  0.013817  3.68253  0.009  -0.073505  0.004887  3.917608  0.003  -0.070051  0.005461  3.937458  0.003  -0.064432  -0.075966  0.00446  3.904528  0.002
C  C70  1  0.62647587  0.75698024  0.91727016  1  -0.117771  -0.010059  3.748161  -0.011  -0.126684  -0.003755  3.99778  -0.005  -0.134627  -0.003438  4.019233  -0.004  -0.082672  -0.121488  -0.004001  3.983327  -0.005
C  C71  1  0.12647456  0.24301837  0.58272819  1  -0.117829  -0.010059  3.748172  -0.011  -0.126752  -0.003754  3.997805  -0.005  -0.134693  -0.003438  4.019257  -0.004  -0.082692  -0.121558  -0.004  3.983349  -0.005
C  C72  1  0.37352526  0.24302009  0.08272935  1  -0.117835  -0.010059  3.748142  -0.011  -0.126742  -0.003756  3.997792  -0.005  -0.134683  -0.003436  4.019244  -0.004  -0.082699  -0.12155  -0.004004  3.983338  -0.005
C  C73  1  0.87352656  0.75698007  0.41727160  1  -0.117785  -0.010051  3.748177  -0.011  -0.126701  -0.003755  3.997811  -0.005  -0.134643  -0.003439  4.019265  -0.004  -0.08269  -0.121506  -0.004001  3.983356  -0.005
C  C74  1  0.75829113  0.81342518  0.95991818  1  0.119912  0.010981  3.680905  0.007  0.088982  0.002326  3.93711  0.001  0.098304  0.003963  3.954855  0.003  0.044893  0.083036  0.001121  3.925428  0.0
C  C75  1  0.25828874  0.18657476  0.54008149  1  0.119927  0.010976  3.680884  0.007  0.089003  0.002324  3.937083  0.001  0.098325  0.003962  3.954828  0.003  0.044905  0.083057  0.001125  3.925399  0.0
C  C76  1  0.24171000  0.18657704  0.04008181  1  0.119937  0.010973  3.680936  0.007  0.088971  0.002328  3.937187  0.001  0.098293  0.00396  3.954932  0.003  0.044849  0.083027  0.001124  3.925504  0.0
C  C77  1  0.74170799  0.81342273  0.45991880  1  0.119934  0.01097  3.680969  0.007  0.08899  0.002326  3.937199  0.001  0.098312  0.003966  3.954943  0.003  0.044837  0.083044  0.00112  3.925514  0.0
C  C78  1  0.50747346  0.99243258  0.77611518  1  0.106998  -0.000556  3.681911  0.0  0.046444  -0.000509  3.947678  0.0  0.055383  -0.000315  3.952352  0.0  -0.073367  0.040611  -0.000632  3.944492  -0.001
C  C79  1  0.00747392  0.00756474  0.72388406  1  0.10709  -0.000558  3.681879  0.0  0.046548  -0.000509  3.947617  0.0  0.055486  -0.000317  3.952291  0.0  -0.073299  0.040723  -0.000631  3.944422  -0.001
C  C80  1  0.49252657  0.00756681  0.22388485  1  0.107076  -0.00056  3.681864  0.0  0.046529  -0.00051  3.947616  0.0  0.055471  -0.000315  3.952285  0.0  -0.073339  0.040693  -0.000631  3.944431  -0.001
C  C81  1  0.99252611  0.99243370  0.27611573  1  0.10704  -0.000558  3.681913  0.0  0.046485  -0.00051  3.947666  0.0  0.055421  -0.000316  3.952343  0.0  -0.073332  0.040653  -0.000633  3.944478  -0.001
C  C82  1  0.15113624  0.76013447  0.90011408  1  0.661626  0.005126  3.916403  0.006  0.616796  0.000484  4.218214  0.001  0.655734  0.000975  4.208785  0.001  0.205921  0.590659  -2.8e-05  4.22339  0.002
C  C83  1  0.65113160  0.23986896  0.59988837  1  0.661679  0.005123  3.916174  0.006  0.616832  0.000486  4.217997  0.001  0.655776  0.000973  4.208568  0.001  0.20589  0.590698  -2.9e-05  4.223177  0.002
C  C84  1  0.84886598  0.23986870  0.09988615  1  0.661601  0.005126  3.916287  0.006  0.616774  0.000486  4.21809  0.001  0.655719  0.000975  4.20866  0.001  0.205915  0.590638  -3.1e-05  4.223272  0.002
C  C85  1  0.34886622  0.76013043  0.40011240  1  0.661739  0.005128  3.916245  0.006  0.616954  0.000485  4.218021  0.001  0.655894  0.000975  4.208583  0.001  0.205985  0.590816  -2.6e-05  4.223204  0.002
C  C86  1  0.18490178  0.59247225  0.99360542  1  0.303782  0.00521  3.647027  0.003  0.290412  0.001725  3.920417  0.001  0.305195  0.001755  3.933605  0.001  0.081777  0.280696  0.001731  3.911202  0.001
C  C87  1  0.68489895  0.40752939  0.50639719  1  0.303649  0.005213  3.647139  0.003  0.290351  0.00172  3.920505  0.001  0.305143  0.001766  3.933695  0.001  0.081827  0.28063  0.00173  3.911287  0.001
C  C88  1  0.81510265  0.40752809  0.00639633  1  0.303718  0.005214  3.647056  0.003  0.290401  0.001725  3.920431  0.001  0.305192  0.00176  3.933626  0.001  0.081805  0.280675  0.00176  3.91121  0.001
C  C89  1  0.31510328  0.59246905  0.49360185  1  0.303621  0.005217  3.646958  0.003  0.290332  0.00173  3.9203  0.001  0.305116  0.001769  3.933488  0.001  0.081786  0.280615  0.001723  3.911085  0.001
C  C90  1  0.20088173  0.63685195  0.90848380  1  -0.217956  -0.009105  3.83669  -0.01  -0.212673  -0.005264  4.097845  -0.006  -0.22535  -0.003865  4.119165  -0.005  -0.058823  -0.204261  -0.006311  4.083246  -0.007
C  C91  1  0.70087349  0.36315257  0.59151723  1  -0.21794  -0.009107  3.836735  -0.01  -0.212665  -0.005261  4.097871  -0.006  -0.225357  -0.003868  4.119209  -0.005  -0.058868  -0.204268  -0.006307  4.083289  -0.007
C  C92  1  0.79912601  0.36315218  0.09151815  1  -0.217921  -0.009107  3.836735  -0.01  -0.21263  -0.005264  4.097848  -0.006  -0.225332  -0.003867  4.119197  -0.005  -0.058858  -0.204228  -0.006314  4.083263  -0.007
C  C93  1  0.29912543  0.63684586  0.40848032  1  -0.217953  -0.009109  3.836647  -0.01  -0.212752  -0.005266  4.09784  -0.006  -0.225427  -0.003871  4.119158  -0.005  -0.058897  -0.204351  -0.006311  4.083259  -0.007
C  C94  1  0.27899786  0.54044532  0.82963481  1  -0.253734  -0.001146  3.796841  -0.001  -0.288322  -0.001079  4.054372  -0.001  -0.292761  -0.000714  4.0753  -0.001  -0.130047  -0.285265  -0.001366  4.040165  -0.002
C  C95  1  0.77898294  0.45956132  0.67036794  1  -0.253726  -0.001146  3.796644  -0.001  -0.288237  -0.001079  4.054202  -0.001  -0.292671  -0.000714  4.075132  -0.001  -0.129947  -0.285174  -0.001372  4.04  -0.002
C  C96  1  0.72100877  0.45955786  0.17036840  1  -0.253801  -0.001145  3.796841  -0.001  -0.288337  -0.001079  4.054386  -0.001  -0.292769  -0.000715  4.075317  -0.001  -0.130029  -0.285277  -0.00137  4.040187  -0.002
C  C97  1  0.22100938  0.54044185  0.32963303  1  -0.253633  -0.00114  3.79667  -0.001  -0.288122  -0.001078  4.05425  -0.001  -0.292562  -0.000711  4.075177  -0.001  -0.129913  -0.285057  -0.001373  4.040045  -0.002
C  C98  1  0.30718365  0.44428519  0.87017838  1  0.276388  -0.000834  3.730894  -0.001  0.272514  -0.000212  4.005368  0.0  0.281234  -0.00018  4.023176  0.0  0.058584  0.266705  -0.000294  3.993132  0.0
C  C99  1  0.80717737  0.55571774  0.62982035  1  0.276516  -0.000831  3.730627  -0.001  0.272533  -0.000212  4.005308  0.0  0.281253  -0.000181  4.023119  0.0  0.058579  0.266721  -0.000276  3.993069  0.0
C  C100  1  0.69281858  0.55571514  0.12982113  1  0.276411  -0.000828  3.730704  -0.001  0.272478  -0.000212  4.005286  0.0  0.281198  -0.00018  4.023093  0.0  0.058589  0.266674  -0.00029  3.993053  0.0
C  C101  1  0.19281605  0.44428164  0.37017744  1  0.276474  -0.00083  3.73063  -0.001  0.27247  -0.000215  4.005261  0.0  0.281192  -0.000184  4.02307  0.0  0.058572  0.266658  -0.000273  3.993023  0.0
C  C102  1  0.11595522  0.64194314  0.09813189  1  -0.391671  -0.000404  3.721059  -0.001  -0.47376  -0.000143  3.965864  0.0  -0.477575  -4e-05  3.970356  0.0  -0.245222  -0.47074  -0.000255  3.962722  0.0
C  C103  1  0.61595754  0.35805437  0.40186716  1  -0.391628  -0.000405  3.721044  -0.001  -0.473743  -0.000143  3.965888  0.0  -0.477557  -4.2e-05  3.97038  0.0  -0.245216  -0.470729  -0.000256  3.962741  0.0
C  C104  1  0.88404811  0.35805815  0.90186861  1  -0.391621  -0.000404  3.720955  -0.001  -0.473775  -0.000143  3.965807  0.0  -0.477589  -4.1e-05  3.970295  0.0  -0.245241  -0.470755  -0.000252  3.96266  0.0
C  C105  1  0.38404690  0.64194217  0.59813067  1  -0.391662  -0.000406  3.721096  -0.001  -0.473819  -0.000141  3.96592  0.0  -0.477627  -4.1e-05  3.970399  0.0  -0.245244  -0.470797  -0.000253  3.962773  0.0
C  C106  1  0.38199614  0.32049400  0.83040404  1  -0.368712  -0.000108  3.756313  0.0  -0.450517  -7.2e-05  3.998733  0.0  -0.453537  -4.1e-05  4.008033  0.0  -0.238569  -0.448168  -0.000104  3.992257  0.0
C  C107  1  0.88198917  0.67950631  0.66959449  1  -0.368658  -0.000106  3.756395  0.0  -0.450495  -7.3e-05  3.998824  0.0  -0.453518  -4.1e-05  4.008122  0.0  -0.238545  -0.448134  -0.000106  3.992361  0.0
C  C108  1  0.61800498  0.67950539  0.16959598  1  -0.368681  -0.000107  3.756245  0.0  -0.450471  -7.3e-05  3.9987  0.0  -0.45349  -4.2e-05  4.008  0.0  -0.238586  -0.448125  -0.000104  3.992229  0.0
C  C109  1  0.11800424  0.32049213  0.33040529  1  -0.368787  -0.000103  3.756337  0.0  -0.450538  -7.3e-05  3.998809  0.0  -0.453563  -4e-05  4.008103  0.0  -0.238563  -0.448192  -0.000103  3.992335  0.0
N  N110  1  0.80446635  0.92305399  0.94636462  1  -0.287337  -0.076389  3.347677  -0.099  -0.236406  -0.052186  3.639005  -0.072  -0.266357  -0.042886  3.661287  -0.064  -0.34819  -0.218757  -0.057771  3.625792  -0.076
N  N111  1  0.30446428  0.07694609  0.55363342  1  -0.28728  -0.076386  3.347684  -0.099  -0.236327  -0.052185  3.638993  -0.072  -0.266277  -0.042885  3.66128  -0.064  -0.348167  -0.218677  -0.057762  3.62578  -0.076
N  N112  1  0.19553478  0.07694729  0.05363439  1  -0.287284  -0.076387  3.347675  -0.099  -0.236333  -0.052187  3.63899  -0.072  -0.266285  -0.042885  3.661273  -0.064  -0.348151  -0.218689  -0.057772  3.62578  -0.076
N  N113  1  0.69553355  0.92305329  0.44636586  1  -0.287283  -0.076388  3.34773  -0.099  -0.236341  -0.052188  3.639054  -0.072  -0.266292  -0.042887  3.661341  -0.064  -0.348131  -0.21869  -0.057768  3.625842  -0.076
O  O114  1  0.07944066  0.82983273  0.98009661  1  -0.614711  -0.08737  2.15461  -0.12  -0.586398  -0.056647  2.447628  -0.086  -0.630219  -0.042768  2.440814  -0.07  -0.325778  -0.557248  -0.065737  2.451692  -0.094
O  O115  1  0.57943957  0.17016670  0.51990212  1  -0.614815  -0.087374  2.154522  -0.12  -0.586416  -0.056648  2.447499  -0.086  -0.630234  -0.042772  2.440673  -0.07  -0.325771  -0.557266  -0.06575  2.451564  -0.094
O  O116  1  0.92056047  0.17016855  0.01990239  1  -0.614742  -0.087374  2.154583  -0.12  -0.586429  -0.056645  2.44762  -0.086  -0.630244  -0.042772  2.440791  -0.07  -0.325794  -0.557271  -0.06574  2.45168  -0.094
O  O117  1  0.42055825  0.82983268  0.48009492  1  -0.614723  -0.087369  2.154583  -0.12  -0.586456  -0.056643  2.447625  -0.086  -0.630281  -0.042769  2.440821  -0.07  -0.325804  -0.557304  -0.065737  2.451692  -0.094
O  O118  1  0.18084411  0.79022124  0.81848646  1  -0.614884  0.000475  1.971317  -0.001  -0.563131  0.000545  2.197467  -0.001  -0.588634  0.001264  2.186493  0.0  -0.311413  -0.545518  -0.000126  2.204085  -0.001
O  O119  1  0.68084409  0.20978322  0.68151463  1  -0.614904  0.000484  1.971331  -0.001  -0.563145  0.000543  2.197464  -0.001  -0.588648  0.001268  2.186487  0.0  -0.311378  -0.545523  -0.000125  2.204086  -0.001
O  O120  1  0.81915592  0.20977814  0.18151281  1  -0.614882  0.00048  1.971303  -0.001  -0.563131  0.000542  2.19745  -0.001  -0.588633  0.001268  2.186473  0.0  -0.311391  -0.545511  -0.00013  2.204073  -0.001
O  O121  1  0.31915263  0.79021901  0.31848610  1  -0.61492  0.000476  1.971343  -0.001  -0.563198  0.000545  2.197479  -0.001  -0.588699  0.001265  2.186505  0.0  -0.311421  -0.545578  -0.000131  2.204097  -0.001
O  O122  1  0.58782817  0.98339470  0.68223633  1  -0.582647  0.000408  2.07894  -0.001  -0.54131  0.001264  2.330376  0.0  -0.560105  0.001594  2.313178  0.0  -0.420205  -0.527791  0.000762  2.340499  0.0
O  O123  1  0.08783560  0.01660758  0.81776234  1  -0.582608  0.000409  2.07884  -0.001  -0.541242  0.001265  2.330353  0.0  -0.56003  0.001593  2.313142  0.0  -0.420214  -0.527737  0.000763  2.340433  0.0
O  O124  1  0.41217076  0.01660374  0.31776495  1  -0.582672  0.000408  2.078862  -0.001  -0.541384  0.001263  2.330278  0.0  -0.560178  0.001596  2.31307  0.0  -0.420241  -0.527863  0.000762  2.34036  0.0
O  O125  1  0.91217104  0.98339369  0.18223592  1  -0.582628  0.00041  2.078855  -0.001  -0.541284  0.001263  2.330337  0.0  -0.560076  0.001593  2.313137  0.0  -0.420232  -0.527768  0.000763  2.340433  0.0
O  O126  1  0.25023693  0.47543424  0.97110608  1  -0.264069  0.000126  2.307572  0.0  -0.18957  0.000108  2.522643  0.0  -0.207147  0.000118  2.526893  0.0  -0.1316  -0.177772  0.000108  2.519537  0.0
O  O127  1  0.75023241  0.52456853  0.52889358  1  -0.263976  0.000125  2.307467  0.0  -0.189561  0.000109  2.522659  0.0  -0.207147  0.000118  2.526916  0.0  -0.131592  -0.177755  0.000104  2.519544  0.0
O  O128  1  0.74976640  0.52456419  0.02889072  1  -0.264004  0.000124  2.307428  0.0  -0.189556  0.000108  2.522567  0.0  -0.207133  0.000118  2.526816  0.0  -0.131598  -0.177757  0.000109  2.519458  0.0
O  O129  1  0.24976321  0.47543180  0.47110444  1  -0.264075  0.000126  2.307463  0.0  -0.189548  0.000107  2.522552  0.0  -0.207133  0.000118  2.526809  0.0  -0.131612  -0.177747  0.000107  2.51944  0.0
