# generated using pymatgen
data_ZnH4C16Cl5O4
_symmetry_space_group_name_H-M   'P 1'
_cell_length_a   7.45231619
_cell_length_b   17.70806616
_cell_length_c   34.66640097
_cell_angle_alpha   89.91886991
_cell_angle_beta   90.05450604
_cell_angle_gamma   90.13363587
_symmetry_Int_Tables_number   1
_chemical_formula_structural   ZnH4C16Cl5O4
_chemical_formula_sum   'Zn4 H16 C64 Cl20 O16'
_cell_volume   4574.77093548
_cell_formula_units_Z   4
loop_
 _symmetry_equiv_pos_site_id
 _symmetry_equiv_pos_as_xyz
  1  'x, y, z'
loop_
 _atom_site_type_symbol
 _atom_site_label
 _atom_site_symmetry_multiplicity
 _atom_site_fract_x
 _atom_site_fract_y
 _atom_site_fract_z
 _atom_site_occupancy
 _atom_site_pbe_bader_charge
 _atom_site_pbe_bader_spin_density
 _atom_site_pbe_cm5_charge
 _atom_site_pbe_ddec_charge
 _atom_site_pbe_ddec_spin_density
 _atom_site_pbe_ddec_sum_bond_order
 _atom_site_pbe_magmom
Zn  Zn0  1  0.65354762  0.00019544  0.50013980  1  1.30504  0  0.724325  0.96937  0  2.139079  0
Zn  Zn1  1  0.28964976  0.00992516  0.49999382  1  1.304738  0  0.72228  0.964369  0  2.108854  0
Zn  Zn2  1  0.25594488  0.99933416  0.00004263  1  1.308391  0  0.724713  0.970637  0  2.138937  0
Zn  Zn3  1  0.61988770  0.00971687  0.00022277  1  1.303421  0  0.722307  0.963983  0  2.110084  0
H  H4  1  0.24951003  0.98529204  0.74556069  1  0.083632  0  0.106355  0.118905  0  0.972058  0
H  H5  1  0.66063904  0.98563770  0.75460597  1  0.079213  0  0.106508  0.119359  0  0.971856  0
H  H6  1  0.24907392  0.98634185  0.25460632  1  0.075709  0  0.106398  0.118928  0  0.972151  0
H  H7  1  0.66010473  0.98482372  0.24562328  1  0.078099  0  0.106268  0.118771  0  0.972025  0
H  H8  1  0.64482930  0.77859480  0.50008407  1  0.113641  0  0.097672  0.112308  0  1.046299  0
H  H9  1  0.67041061  0.63881902  0.50003540  1  0.07732  0  0.104966  0.108627  0  1.001972  0
H  H10  1  0.09117090  0.62428409  0.49997633  1  0.073876  0  0.109393  0.125739  0  0.99056  0
H  H11  1  0.70038771  0.38906819  0.49999219  1  0.094259  0  0.109262  0.125908  0  0.990049  0
H  H12  1  0.14318933  0.23678876  0.49997046  1  0.118563  0  0.09784  0.108988  0  1.051458  0
H  H13  1  0.12097643  0.37673276  0.49994178  1  0.056799  0  0.105152  0.107733  0  1.002864  0
H  H14  1  0.26381547  0.77783850  0.00056657  1  0.123411  0  0.097446  0.111687  0  1.047973  0
H  H15  1  0.23761823  0.63812299  0.99977158  1  0.070618  0  0.10532  0.108588  0  1.001619  0
H  H16  1  0.81669284  0.62433765  0.99794131  1  0.084754  0  0.109274  0.125812  0  0.99049  0
H  H17  1  0.20814868  0.38773391  0.99848334  1  0.100586  0  0.108815  0.124958  0  0.990852  0
H  H18  1  0.76628250  0.23713094  0.99926924  1  0.12464  0  0.097655  0.108867  0  1.052726  0
H  H19  1  0.78762847  0.37711269  0.99861288  1  0.055808  0  0.105626  0.108585  0  1.001378  0
C  C20  1  0.36758353  0.86553626  0.50003670  1  1.544731  0  0.21332  0.600185  0  4.153684  0
C  C21  1  0.54724800  0.99905809  0.57262918  1  1.558984  0  0.214949  0.61795  0  4.178397  0
C  C22  1  0.42384511  0.14889876  0.50004261  1  1.565784  0  0.219177  0.613  0  4.124115  0
C  C23  1  0.54776482  0.99935272  0.42755112  1  1.621009  0  0.215003  0.618528  0  4.176913  0
C  C24  1  0.54124737  0.86519030  0.99999496  1  1.552191  0  0.212149  0.59904  0  4.155106  0
C  C25  1  0.36242786  0.99874060  0.92753514  1  1.554472  0  0.21464  0.617511  0  4.178692  0
C  C26  1  0.48607843  0.14841081  0.99980683  1  1.534902  0  0.220317  0.61547  0  4.122124  0
C  C27  1  0.36246759  0.99866730  0.07264291  1  1.560931  0  0.215268  0.619092  0  4.175684  0
C  C28  1  0.35956832  0.99333763  0.88422917  1  0.141755  0  -0.017313  -0.110677  0  3.949603  0
C  C29  1  0.41930093  0.92731570  0.86621435  1  0.06856  0  0.011066  0.070376  0  4.035627  0
C  C30  1  0.42786271  0.92328438  0.82575449  1  0.118533  0  0.010263  0.045035  0  4.016905  0
C  C31  1  0.37423017  0.98517297  0.80297490  1  0.070775  0  -0.012534  0.026296  0  3.984798  0
C  C32  1  0.31128282  0.05060878  0.82156578  1  0.088878  0  0.009025  0.042878  0  4.019622  0
C  C33  1  0.30558599  0.05523445  0.86196153  1  0.118448  0  0.010764  0.07164  0  4.044461  0
C  C34  1  0.37918503  0.98341471  0.76034983  1  0.090481  0  -0.093929  -0.113182  0  4.017347  0
C  C35  1  0.53095800  0.98351458  0.73981740  1  -0.034603  0  -0.09514  -0.116091  0  4.019195  0
C  C36  1  0.59873891  0.05084637  0.67852141  1  0.109026  0  0.008718  0.042886  0  4.019748  0
C  C37  1  0.53579692  0.98527669  0.69719092  1  0.04819  0  -0.011482  0.027476  0  3.984238  0
C  C38  1  0.48186513  0.92333481  0.67448459  1  0.116046  0  0.009564  0.044219  0  4.016837  0
C  C39  1  0.49020178  0.92743076  0.63402136  1  0.083352  0  0.011275  0.070699  0  4.036256  0
C  C40  1  0.55016599  0.99355585  0.61592940  1  0.136051  0  -0.017561  -0.111511  0  3.949772  0
C  C41  1  0.60435042  0.05551475  0.63811994  1  0.118951  0  0.010356  0.071505  0  4.044243  0
C  C42  1  0.35923746  0.99328601  0.11594471  1  0.094232  0  -0.017858  -0.112779  0  3.950126  0
C  C43  1  0.41884333  0.92728160  0.13412168  1  0.136437  0  0.011626  0.070719  0  4.035848  0
C  C44  1  0.42722541  0.92334653  0.17459225  1  0.115947  0  0.009854  0.045304  0  4.015853  0
C  C45  1  0.37356634  0.98532379  0.19721187  1  0.054502  0  -0.012587  0.02688  0  3.983407  0
C  C46  1  0.31070647  0.05071804  0.17844847  1  0.098705  0  0.009158  0.04247  0  4.019845  0
C  C47  1  0.30512779  0.05523981  0.13804503  1  0.11277  0  0.011004  0.072522  0  4.04439  0
C  C48  1  0.37861889  0.98378665  0.23984147  1  0.085693  0  -0.094444  -0.114373  0  4.018373  0
C  C49  1  0.53046918  0.98336603  0.26040343  1  -0.019486  0  -0.094014  -0.113777  0  4.018827  0
C  C50  1  0.60015146  0.05070535  0.32155458  1  0.103569  0  0.009067  0.042616  0  4.020069  0
C  C51  1  0.53570091  0.98531891  0.30302275  1  0.048877  0  -0.013083  0.025942  0  3.985233  0
C  C52  1  0.48081726  0.92361344  0.32584368  1  0.13558  0  0.010105  0.045492  0  4.016671  0
C  C53  1  0.48962486  0.92775231  0.36629892  1  0.064922  0  0.011521  0.07026  0  4.035471  0
C  C54  1  0.55080765  0.99374287  0.38426270  1  0.082853  0  -0.017843  -0.111546  0  3.948918  0
C  C55  1  0.60607151  0.05546881  0.36194745  1  0.108932  0  0.010485  0.0717  0  4.043689  0
C  C56  1  0.35904126  0.78125790  0.50002978  1  -0.000952  0  -0.021694  -0.099598  0  3.920824  0
C  C57  1  0.52520489  0.74350413  0.50005078  1  0.001658  0  -0.081488  -0.069579  0  3.982358  0
C  C58  1  0.53913514  0.66575177  0.50003191  1  -0.000442  0  -0.082535  -0.131401  0  3.945673  0
C  C59  1  0.38164793  0.62131002  0.49999966  1  0.001188  0  0.009323  0.169926  0  4.105529  0
C  C60  1  0.21391770  0.65772857  0.49999806  1  0.103092  0  -0.08712  -0.199283  0  3.914933  0
C  C61  1  0.20233260  0.73638119  0.50000888  1  0.059148  0  0.026126  0.145136  0  4.027666  0
C  C62  1  0.39147133  0.54165858  0.49998037  1  -0.482486  0  -0.034884  -0.092705  0  4.090601  0
C  C63  1  0.40125363  0.47287398  0.49997178  1  0.165806  0  -0.035794  -0.094998  0  4.091305  0
C  C64  1  0.40974313  0.39317952  0.49997284  1  0.067962  0  0.009368  0.169941  0  4.107476  0
C  C65  1  0.57673532  0.35621734  0.49998082  1  0.059921  0  -0.086374  -0.199521  0  3.917672  0
C  C66  1  0.58659087  0.27759829  0.49999221  1  0.023596  0  0.025817  0.14616  0  4.018724  0
C  C67  1  0.42898290  0.23313511  0.50000527  1  0.062563  0  -0.016727  -0.094739  0  3.914782  0
C  C68  1  0.26365103  0.27134335  0.49998437  1  -0.02392  0  -0.078196  -0.066828  0  3.980454  0
C  C69  1  0.25155000  0.34921633  0.49996872  1  -0.018388  0  -0.081953  -0.130823  0  3.946238  0
C  C70  1  0.54951963  0.78094446  0.99964564  1  -0.003299  0  -0.021026  -0.098717  0  3.921256  0
C  C71  1  0.38330554  0.74294903  0.99997881  1  -0.013852  0  -0.081696  -0.069705  0  3.986104  0
C  C72  1  0.36903591  0.66518410  0.99957002  1  -0.017144  0  -0.082862  -0.131046  0  3.947991  0
C  C73  1  0.52626415  0.62092974  0.99887647  1  0.009506  0  0.010052  0.170108  0  4.106065  0
C  C74  1  0.69409050  0.65760231  0.99853198  1  0.103802  0  -0.086514  -0.198597  0  3.914155  0
C  C75  1  0.70603150  0.73626828  0.99888272  1  0.083742  0  0.025476  0.144793  0  4.027585  0
C  C76  1  0.51621539  0.54124954  0.99857836  1  0.174324  0  -0.035682  -0.093777  0  4.090053  0
C  C77  1  0.50683022  0.47243632  0.99843933  1  -0.492226  0  -0.035223  -0.093979  0  4.091042  0
C  C78  1  0.49875583  0.39271519  0.99856184  1  0.046914  0  0.009967  0.169579  0  4.10733  0
C  C79  1  0.33198316  0.35523904  0.99865714  1  -0.025313  0  -0.086624  -0.198891  0  3.917005  0
C  C80  1  0.32258610  0.27658911  0.99907289  1  0.083642  0  0.026234  0.14647  0  4.017457  0
C  C81  1  0.48050072  0.23260436  0.99934688  1  0.06366  0  -0.017983  -0.096098  0  3.915578  0
C  C82  1  0.64559626  0.27129854  0.99912198  1  -0.014296  0  -0.077809  -0.06697  0  3.980835  0
C  C83  1  0.65722038  0.34921790  0.99875306  1  -0.001392  0  -0.082573  -0.131453  0  3.945175  0
Cl  Cl84  1  0.23798434  0.13674502  0.88452932  1  -0.164271  0  0.004436  -0.039884  0  1.524604  0
Cl  Cl85  1  0.24515976  0.12627410  0.79383008  1  -0.174691  0  -0.000109  -0.055782  0  1.536439  0
Cl  Cl86  1  0.47950379  0.85105638  0.89414326  1  -0.169011  0  0.008264  -0.032671  0  1.551746  0
Cl  Cl87  1  0.50057355  0.84149023  0.80420981  1  -0.169981  0  -0.004843  -0.060228  0  1.563376  0
Cl  Cl88  1  0.40883405  0.84144597  0.69615424  1  -0.171316  0  -0.004802  -0.060198  0  1.562615  0
Cl  Cl89  1  0.42929746  0.85116902  0.60619250  1  -0.167867  0  0.008088  -0.032563  0  1.549445  0
Cl  Cl90  1  0.66517547  0.12656627  0.70616309  1  -0.173865  0  0.000139  -0.055506  0  1.536734  0
Cl  Cl91  1  0.67198119  0.13716585  0.61545781  1  -0.163524  0  0.004774  -0.039593  0  1.523915  0
Cl  Cl92  1  0.23770581  0.13670031  0.11526840  1  -0.163304  0  0.004546  -0.039665  0  1.523265  0
Cl  Cl93  1  0.24459342  0.12645767  0.20599390  1  -0.173711  0  -4.6e-05  -0.055759  0  1.536074  0
Cl  Cl94  1  0.47935646  0.85098964  0.10638031  1  -0.170691  0  0.007745  -0.03276  0  1.548263  0
Cl  Cl95  1  0.49998857  0.84161161  0.19634190  1  -0.169108  0  -0.004678  -0.060479  0  1.562768  0
Cl  Cl96  1  0.40607475  0.84190478  0.30435057  1  -0.179288  0  -0.004826  -0.060548  0  1.563181  0
Cl  Cl97  1  0.42778689  0.85169088  0.39426523  1  -0.167725  0  0.008349  -0.032217  0  1.55078  0
Cl  Cl98  1  0.66804780  0.12608143  0.29375184  1  -0.173787  0  6e-06  -0.05552  0  1.535975  0
Cl  Cl99  1  0.67534675  0.13695763  0.38444076  1  -0.16175  0  0.004626  -0.039786  0  1.52347  0
Cl  Cl100  1  0.98902651  0.77404714  0.49999180  1  -0.181707  0  0.012489  -0.04998  0  1.575599  0
Cl  Cl101  1  0.80018272  0.23984670  0.49998266  1  -0.189057  0  0.009492  -0.053946  0  1.589919  0
Cl  Cl102  1  0.91945446  0.77422541  0.99814547  1  -0.189862  0  0.012468  -0.050036  0  1.575918  0
Cl  Cl103  1  0.10918819  0.23824388  0.99922911  1  -0.178788  0  0.009683  -0.053438  0  1.590021  0
O  O104  1  0.52339964  0.89483375  0.50009817  1  -1.170647  0  -0.313131  -0.579535  0  2.378902  0
O  O105  1  0.22141521  0.90444926  0.49996653  1  -1.112091  0  -0.315055  -0.528149  0  2.306687  0
O  O106  1  0.39556867  0.00819342  0.55717758  1  -1.153973  0  -0.301348  -0.551076  0  2.301867  0
O  O107  1  0.69881507  0.99399418  0.55521825  1  -1.106709  0  -0.311024  -0.515905  0  2.242498  0
O  O108  1  0.26576481  0.11834528  0.49999082  1  -1.123609  0  -0.317094  -0.523603  0  2.254857  0
O  O109  1  0.56922137  0.11196866  0.50012972  1  -1.17318  0  -0.31061  -0.577375  0  2.41719  0
O  O110  1  0.69918035  0.99420023  0.44508885  1  -1.108536  0  -0.310977  -0.516266  0  2.241782  0
O  O111  1  0.39601184  0.00859927  0.44287703  1  -1.151864  0  -0.301525  -0.551492  0  2.301228  0
O  O112  1  0.38550624  0.89425121  0.00011182  1  -1.171786  0  -0.312786  -0.579306  0  2.381046  0
O  O113  1  0.68754667  0.90429273  0.00014354  1  -1.110426  0  -0.314584  -0.527682  0  2.307448  0
O  O114  1  0.51412735  0.00799237  0.94299253  1  -1.151358  0  -0.301473  -0.550871  0  2.300825  0
O  O115  1  0.21080386  0.99344193  0.94494047  1  -1.10792  0  -0.311096  -0.516849  0  2.242836  0
O  O116  1  0.64420205  0.11822648  0.99997496  1  -1.121405  0  -0.317347  -0.52413  0  2.25351  0
O  O117  1  0.34078160  0.11113046  0.99999316  1  -1.161378  0  -0.311206  -0.579026  0  2.419649  0
O  O118  1  0.21099487  0.99333586  0.05513177  1  -1.109298  0  -0.310983  -0.516583  0  2.242138  0
O  O119  1  0.51431763  0.00798065  0.05730470  1  -1.152831  0  -0.30163  -0.550876  0  2.301034  0
