# generated using pymatgen
data_ZnP2H10(C2O)4
_symmetry_space_group_name_H-M   'P 1'
_cell_length_a   7.28369594
_cell_length_b   10.46164317
_cell_length_c   15.86445887
_cell_angle_alpha   105.37413769
_cell_angle_beta   90.00052354
_cell_angle_gamma   89.99997157
_symmetry_Int_Tables_number   1
_chemical_formula_structural   ZnP2H10(C2O)4
_chemical_formula_sum   'Zn4 P8 H40 C32 O16'
_cell_volume   1165.60374765
_cell_formula_units_Z   4
loop_
 _symmetry_equiv_pos_site_id
 _symmetry_equiv_pos_as_xyz
  1  'x, y, z'
loop_
 _atom_site_type_symbol
 _atom_site_label
 _atom_site_symmetry_multiplicity
 _atom_site_fract_x
 _atom_site_fract_y
 _atom_site_fract_z
 _atom_site_occupancy
 _atom_site_hle17_bader_spin_density
 _atom_site_hle17_ddec_charge
 _atom_site_hle17_ddec_spin_density
 _atom_site_hle17_ddec_sum_bond_order
 _atom_site_hle17_magmom
 _atom_site_hse06_10hf_bader_spin_density
 _atom_site_hse06_10hf_ddec_charge
 _atom_site_hse06_10hf_ddec_spin_density
 _atom_site_hse06_10hf_ddec_sum_bond_order
 _atom_site_hse06_10hf_magmom
 _atom_site_hse06_bader_spin_density
 _atom_site_hse06_ddec_charge
 _atom_site_hse06_ddec_spin_density
 _atom_site_hse06_ddec_sum_bond_order
 _atom_site_hse06_magmom
 _atom_site_pbe_bader_spin_density
 _atom_site_pbe_cm5_charge
 _atom_site_pbe_ddec_charge
 _atom_site_pbe_ddec_spin_density
 _atom_site_pbe_ddec_sum_bond_order
 _atom_site_pbe_magmom
Zn  Zn0  1  0.41297833  0.62161855  0.41776465  1  0  1.234591  0  1.794616  0  0  1.070991  0  2.27807  0  0  1.114162  0  2.213572  0  0  0.715268  1.040504  0  2.322784  0
Zn  Zn1  1  0.91297878  0.87837908  0.58223271  1  0  1.234638  0  1.79461  0  0  1.070996  0  2.278045  0  0  1.114146  0  2.213568  0  0  0.715252  1.040505  0  2.322758  0
Zn  Zn2  1  0.58702356  0.37837991  0.58223403  1  0  1.234744  0  1.794558  0  0  1.071048  0  2.278029  0  0  1.114219  0  2.213529  0  0  0.715286  1.040555  0  2.322746  0
Zn  Zn3  1  0.08701900  0.12161938  0.41776471  1  0  1.234704  0  1.794544  0  0  1.071  0  2.278014  0  0  1.11417  0  2.213518  0  0  0.715269  1.040512  0  2.322734  0
P  P4  1  0.09420445  0.80823850  0.39650595  1  0  1.559672  0  4.890011  0  0  1.407493  0  5.37972  0  0  1.457633  0  5.342678  0  0  0.34181  1.372454  0  5.40476  0
P  P5  1  0.59420683  0.69176266  0.60349572  1  0  1.55987  0  4.889775  0  0  1.407744  0  5.379345  0  0  1.457878  0  5.3423  0  0  0.341934  1.372703  0  5.404381  0
P  P6  1  0.90578921  0.19175898  0.60349445  1  0  1.559695  0  4.890016  0  0  1.407607  0  5.379536  0  0  1.457742  0  5.342498  0  0  0.341867  1.372569  0  5.404576  0
P  P7  1  0.40579370  0.30824075  0.39650193  1  0  1.559725  0  4.889834  0  0  1.407677  0  5.379343  0  0  1.457811  0  5.342298  0  0  0.341851  1.372637  0  5.404378  0
P  P8  1  0.78216475  0.93882669  0.31333288  1  0  1.136347  0  4.327732  0  0  1.03843  0  4.768114  0  0  1.068518  0  4.759058  0  0  0.251056  1.017236  0  4.774708  0
P  P9  1  0.28217381  0.56117372  0.68666378  1  0  1.136299  0  4.32772  0  0  1.038406  0  4.768126  0  0  1.068495  0  4.759062  0  0  0.251011  1.017216  0  4.774723  0
P  P10  1  0.21782891  0.06117176  0.68666328  1  0  1.136343  0  4.32769  0  0  1.038431  0  4.768098  0  0  1.068508  0  4.759047  0  0  0.251002  1.017236  0  4.774698  0
P  P11  1  0.71782946  0.43882872  0.31333811  1  0  1.136141  0  4.327685  0  0  1.038331  0  4.768064  0  0  1.068416  0  4.759009  0  0  0.250992  1.017136  0  4.774647  0
H  H12  1  0.02086657  0.79320059  0.24650100  1  0  0.177863  0  0.923756  0  0  0.192791  0  0.969019  0  0  0.196089  0  0.968319  0  0  0.118463  0.190485  0  0.969526  0
H  H13  1  0.52086780  0.70680045  0.75349783  1  0  0.177882  0  0.92375  0  0  0.192819  0  0.968988  0  0  0.196116  0  0.968287  0  0  0.11848  0.190512  0  0.969496  0
H  H14  1  0.97913807  0.20680084  0.75349694  1  0  0.177815  0  0.92378  0  0  0.192745  0  0.969049  0  0  0.196042  0  0.968349  0  0  0.118443  0.190438  0  0.969557  0
H  H15  1  0.47913272  0.29320197  0.24649965  1  0  0.177842  0  0.923845  0  0  0.192769  0  0.969111  0  0  0.196067  0  0.968411  0  0  0.118451  0.19046  0  0.969619  0
H  H16  1  0.85230074  0.71052311  0.29512749  1  0  0.190246  0  0.948876  0  0  0.19997  0  1.006383  0  0  0.20344  0  1.006124  0  0  0.117205  0.197174  0  1.007253  0
H  H17  1  0.35230039  0.78947741  0.70487074  1  0  0.190265  0  0.948858  0  0  0.199971  0  1.006367  0  0  0.203439  0  1.006107  0  0  0.117203  0.197175  0  1.007239  0
H  H18  1  0.14770115  0.28947634  0.70486947  1  0  0.190289  0  0.948848  0  0  0.199992  0  1.006357  0  0  0.203461  0  1.006095  0  0  0.117215  0.197195  0  1.007227  0
H  H19  1  0.64769876  0.21052204  0.29512811  1  0  0.190268  0  0.948834  0  0  0.199979  0  1.006353  0  0  0.203449  0  1.006091  0  0  0.11722  0.197182  0  1.007223  0
H  H20  1  0.54429582  0.84029664  0.37948147  1  0  0.16941  0  0.960521  0  0  0.185154  0  1.023548  0  0  0.187898  0  1.022461  0  0  0.107871  0.183151  0  1.02445  0
H  H21  1  0.04429937  0.65970343  0.62051665  1  0  0.169421  0  0.96052  0  0  0.185165  0  1.023555  0  0  0.187909  0  1.022469  0  0  0.107879  0.183163  0  1.024455  0
H  H22  1  0.45570745  0.15970678  0.62051996  1  0  0.169443  0  0.960417  0  0  0.185192  0  1.023437  0  0  0.187938  0  1.022345  0  0  0.107891  0.183188  0  1.024339  0
H  H23  1  0.95570389  0.34029603  0.37948473  1  0  0.16937  0  0.96057  0  0  0.185121  0  1.023605  0  0  0.187864  0  1.022518  0  0  0.107882  0.183118  0  1.024504  0
H  H24  1  0.50466524  0.01217252  0.38921805  1  0  0.188149  0  0.937269  0  0  0.204093  0  0.992571  0  0  0.207046  0  0.991855  0  0  0.113097  0.201926  0  0.993252  0
H  H25  1  0.00466699  0.48782763  0.61077923  1  0  0.188078  0  0.937317  0  0  0.204016  0  0.992627  0  0  0.206968  0  0.991912  0  0  0.113043  0.201851  0  0.993305  0
H  H26  1  0.49533940  0.98782792  0.61078161  1  0  0.188125  0  0.937293  0  0  0.204084  0  0.992574  0  0  0.207038  0  0.991857  0  0  0.113087  0.201918  0  0.993255  0
H  H27  1  0.99533216  0.51217382  0.38922185  1  0  0.188009  0  0.937312  0  0  0.203977  0  0.99259  0  0  0.206929  0  0.991875  0  0  0.113032  0.201812  0  0.99327  0
H  H28  1  0.67171126  0.96499440  0.45744548  1  0  0.192975  0  0.959393  0  0  0.211072  0  1.009965  0  0  0.214039  0  1.009366  0  0  0.114307  0.208859  0  1.010531  0
H  H29  1  0.17171061  0.53500388  0.54255224  1  0  0.192939  0  0.959394  0  0  0.211024  0  1.009999  0  0  0.21399  0  1.009399  0  0  0.114283  0.208812  0  1.010562  0
H  H30  1  0.32829339  0.03500604  0.54255292  1  0  0.193022  0  0.959324  0  0  0.211096  0  1.009933  0  0  0.214063  0  1.009332  0  0  0.114312  0.208886  0  1.010489  0
H  H31  1  0.82828854  0.46499757  0.45744948  1  0  0.192945  0  0.959438  0  0  0.211029  0  1.01004  0  0  0.213996  0  1.009439  0  0  0.114292  0.208811  0  1.010609  0
H  H32  1  0.46739388  0.77030564  0.23405978  1  0  0.108294  0  0.947113  0  0  0.119169  0  1.006422  0  0  0.122171  0  1.004872  0  0  0.109555  0.116918  0  1.007746  0
H  H33  1  0.96741182  0.72970102  0.76594504  1  0  0.108317  0  0.947266  0  0  0.119206  0  1.006546  0  0  0.122208  0  1.004998  0  0  0.109577  0.116958  0  1.007869  0
H  H34  1  0.53259566  0.22969780  0.76594544  1  0  0.108304  0  0.94717  0  0  0.119195  0  1.00647  0  0  0.122198  0  1.004919  0  0  0.109553  0.116944  0  1.007795  0
H  H35  1  0.03261205  0.27031236  0.23406504  1  0  0.10839  0  0.947004  0  0  0.119268  0  1.006308  0  0  0.122272  0  1.004757  0  0  0.1096  0.117017  0  1.007632  0
H  H36  1  0.34009989  0.71576347  0.08382216  1  0  0.082931  0  0.974824  0  0  0.094381  0  1.034342  0  0  0.096979  0  1.033632  0  0  0.097426  0.092533  0  1.034933  0
H  H37  1  0.84013176  0.78423509  0.91618324  1  0  0.082747  0  0.975011  0  0  0.094238  0  1.034501  0  0  0.096828  0  1.033798  0  0  0.097324  0.09239  0  1.035092  0
H  H38  1  0.65987592  0.28423603  0.91618426  1  0  0.082716  0  0.97497  0  0  0.094206  0  1.034467  0  0  0.096801  0  1.033759  0  0  0.097318  0.092357  0  1.035058  0
H  H39  1  0.15990721  0.21577730  0.08382730  1  0  0.082855  0  0.974845  0  0  0.094338  0  1.034344  0  0  0.096912  0  1.033655  0  0  0.097373  0.092482  0  1.034944  0
H  H40  1  0.47153646  0.81664191  0.97226333  1  0  0.08589  0  0.951773  0  0  0.095933  0  1.013004  0  0  0.098434  0  1.012635  0  0  0.100043  0.094119  0  1.013336  0
H  H41  1  0.97156859  0.68334591  0.02773636  1  0  0.085886  0  0.951716  0  0  0.09592  0  1.012972  0  0  0.098425  0  1.012597  0  0  0.100026  0.094105  0  1.013305  0
H  H42  1  0.52843523  0.18335161  0.02773764  1  0  0.085856  0  0.951739  0  0  0.095917  0  1.01296  0  0  0.098415  0  1.012594  0  0  0.100005  0.094102  0  1.013291  0
H  H43  1  0.02845665  0.31665061  0.97227018  1  0  0.085896  0  0.951791  0  0  0.095934  0  1.013029  0  0  0.098437  0  1.012658  0  0  0.100049  0.09412  0  1.01336  0
H  H44  1  0.73065217  0.97810042  0.01205641  1  0  0.084675  0  0.953106  0  0  0.096839  0  1.009677  0  0  0.099423  0  1.009195  0  0  0.101081  0.09497  0  1.010125  0
H  H45  1  0.23067961  0.52188307  0.98793837  1  0  0.084636  0  0.952971  0  0  0.096729  0  1.009643  0  0  0.099313  0  1.009162  0  0  0.101104  0.094866  0  1.010095  0
H  H46  1  0.26932364  0.02189208  0.98793935  1  0  0.08468  0  0.953059  0  0  0.096807  0  1.009676  0  0  0.099391  0  1.009193  0  0  0.101113  0.094939  0  1.010129  0
H  H47  1  0.76933327  0.47810251  0.01205808  1  0  0.084726  0  0.952923  0  0  0.096836  0  1.009569  0  0  0.09942  0  1.009086  0  0  0.101111  0.094974  0  1.010016  0
H  H48  1  0.86156283  0.03212819  0.16239795  1  0  0.095725  0  0.955919  0  0  0.104703  0  1.019234  0  0  0.107686  0  1.017817  0  0  0.103425  0.102547  0  1.020322  0
H  H49  1  0.36158283  0.46786155  0.83759336  1  0  0.095695  0  0.955896  0  0  0.104598  0  1.019304  0  0  0.107583  0  1.017881  0  0  0.103374  0.102443  0  1.020391  0
H  H50  1  0.13842122  0.96786529  0.83759483  1  0  0.095752  0  0.955846  0  0  0.10464  0  1.019262  0  0  0.107621  0  1.017845  0  0  0.103393  0.102487  0  1.020348  0
H  H51  1  0.63842456  0.53212600  0.16240091  1  0  0.095795  0  0.955856  0  0  0.104696  0  1.019243  0  0  0.107678  0  1.017826  0  0  0.103387  0.102541  0  1.02033  0
C  C52  1  0.93670714  0.80058722  0.30517107  1  0  -0.728455  0  3.592037  0  0  -0.722165  0  3.827076  0  0  -0.738195  0  3.829568  0  0  -0.177151  -0.710827  0  3.82564  0
C  C53  1  0.43670940  0.69941541  0.69482726  1  0  -0.728556  0  3.592081  0  0  -0.722241  0  3.827101  0  0  -0.738261  0  3.829576  0  0  -0.177132  -0.710896  0  3.825659  0
C  C54  1  0.06329201  0.19941322  0.69482607  1  0  -0.72845  0  3.592005  0  0  -0.72216  0  3.827083  0  0  -0.738181  0  3.829564  0  0  -0.17713  -0.710822  0  3.82565  0
C  C55  1  0.56329113  0.30058702  0.30517085  1  0  -0.728396  0  3.592112  0  0  -0.722181  0  3.827283  0  0  -0.738206  0  3.829769  0  0  -0.177096  -0.710836  0  3.82584  0
C  C56  1  0.60904326  0.93801749  0.39217840  1  0  -0.593592  0  3.560208  0  0  -0.644787  0  3.781176  0  0  -0.654635  0  3.78539  0  0  -0.243449  -0.637603  0  3.77838  0
C  C57  1  0.10904526  0.56198267  0.60781875  1  0  -0.593459  0  3.560202  0  0  -0.644646  0  3.781186  0  0  -0.654493  0  3.785404  0  0  -0.243373  -0.637464  0  3.778381  0
C  C58  1  0.39096001  0.06198394  0.60782079  1  0  -0.593617  0  3.559995  0  0  -0.644821  0  3.781033  0  0  -0.65467  0  3.785244  0  0  -0.243446  -0.637635  0  3.778239  0
C  C59  1  0.89095526  0.43801680  0.39218326  1  0  -0.59331  0  3.560227  0  0  -0.644524  0  3.78118  0  0  -0.654371  0  3.785399  0  0  -0.243343  -0.637338  0  3.778386  0
C  C60  1  0.67508894  0.90346606  0.20703052  1  0  -0.20312  0  3.752652  0  0  -0.162625  0  3.992867  0  0  -0.171317  0  4.018496  0  0  -0.024306  -0.156771  0  3.975676  0
C  C61  1  0.17510558  0.59652925  0.79296670  1  0  -0.202913  0  3.752454  0  0  -0.162448  0  3.992677  0  0  -0.171138  0  4.018307  0  0  -0.024271  -0.15662  0  3.975525  0
C  C62  1  0.32490060  0.09652745  0.79296856  1  0  -0.203142  0  3.752551  0  0  -0.162646  0  3.99276  0  0  -0.171338  0  4.018391  0  0  -0.02432  -0.156803  0  3.975591  0
C  C63  1  0.82490318  0.40347318  0.20703267  1  0  -0.202969  0  3.752338  0  0  -0.162474  0  3.992522  0  0  -0.171165  0  4.018154  0  0  -0.024318  -0.156622  0  3.975325  0
C  C64  1  0.52711992  0.81491988  0.18543339  1  0  -0.047018  0  3.728395  0  0  -0.066379  0  3.964884  0  0  -0.066551  0  3.986543  0  0  -0.076442  -0.06613  0  3.950279  0
C  C65  1  0.02713968  0.68508018  0.81456592  1  0  -0.047175  0  3.728404  0  0  -0.066552  0  3.964937  0  0  -0.066727  0  3.986595  0  0  -0.076488  -0.066297  0  3.950341  0
C  C66  1  0.47286550  0.18508058  0.81456878  1  0  -0.047017  0  3.728199  0  0  -0.066414  0  3.964734  0  0  -0.066587  0  3.986393  0  0  -0.076419  -0.066161  0  3.950135  0
C  C67  1  0.97288144  0.31493021  0.18544113  1  0  -0.047164  0  3.728199  0  0  -0.066551  0  3.964741  0  0  -0.066724  0  3.986391  0  0  -0.076476  -0.066299  0  3.950132  0
C  C68  1  0.45512405  0.78428826  0.10091430  1  0  -0.080801  0  3.781178  0  0  -0.090905  0  4.024323  0  0  -0.094486  0  4.046897  0  0  -0.093046  -0.088526  0  4.008981  0
C  C69  1  0.95515426  0.71571242  0.89908692  1  0  -0.080499  0  3.780967  0  0  -0.090617  0  4.024061  0  0  -0.094188  0  4.046645  0  0  -0.092847  -0.088236  0  4.008714  0
C  C70  1  0.54485038  0.21571221  0.89908977  1  0  -0.080458  0  3.780996  0  0  -0.090571  0  4.024103  0  0  -0.094148  0  4.046684  0  0  -0.092838  -0.08819  0  4.008756  0
C  C71  1  0.04487921  0.28429995  0.10092047  1  0  -0.080668  0  3.781189  0  0  -0.09078  0  4.024276  0  0  -0.094336  0  4.046867  0  0  -0.092921  -0.088395  0  4.008937  0
C  C72  1  0.52886070  0.84154601  0.03817003  1  0  -0.067602  0  3.777705  0  0  -0.082399  0  4.026636  0  0  -0.083239  0  4.048526  0  0  -0.0889  -0.081592  0  4.011634  0
C  C73  1  0.02887928  0.65844512  0.96182649  1  0  -0.067645  0  3.777393  0  0  -0.082466  0  4.026338  0  0  -0.083309  0  4.048222  0  0  -0.088966  -0.081657  0  4.011335  0
C  C74  1  0.47112472  0.15844849  0.96182860  1  0  -0.067597  0  3.777542  0  0  -0.082428  0  4.026487  0  0  -0.083266  0  4.048375  0  0  -0.088918  -0.081619  0  4.011482  0
C  C75  1  0.97113634  0.34155732  0.03817604  1  0  -0.067647  0  3.777763  0  0  -0.082446  0  4.026696  0  0  -0.083288  0  4.048578  0  0  -0.08894  -0.081638  0  4.011695  0
C  C76  1  0.67460832  0.93124645  0.06023644  1  0  -0.08249  0  3.78783  0  0  -0.09309  0  4.037129  0  0  -0.096794  0  4.059799  0  0  -0.091842  -0.090583  0  4.021574  0
C  C77  1  0.17463751  0.56874489  0.93976009  1  0  -0.082391  0  3.787479  0  0  -0.092931  0  4.03674  0  0  -0.096633  0  4.059412  0  0  -0.091763  -0.090435  0  4.021192  0
C  C78  1  0.32536474  0.06875202  0.93976350  1  0  -0.082501  0  3.787654  0  0  -0.093074  0  4.036926  0  0  -0.096774  0  4.059589  0  0  -0.091834  -0.090571  0  4.021374  0
C  C79  1  0.82538086  0.43125060  0.06023808  1  0  -0.082507  0  3.787639  0  0  -0.093077  0  4.036939  0  0  -0.096778  0  4.059607  0  0  -0.091871  -0.09058  0  4.021395  0
C  C80  1  0.74829701  0.96194563  0.14439594  1  0  -0.055441  0  3.755734  0  0  -0.076749  0  3.997202  0  0  -0.076894  0  4.018914  0  0  -0.08245  -0.076488  0  3.982381  0
C  C81  1  0.24831494  0.53804382  0.85559868  1  0  -0.055517  0  3.755792  0  0  -0.076725  0  3.997211  0  0  -0.076872  0  4.018924  0  0  -0.082473  -0.07646  0  3.982402  0
C  C82  1  0.25168978  0.03804688  0.85560171  1  0  -0.055508  0  3.755795  0  0  -0.076719  0  3.997223  0  0  -0.076864  0  4.018935  0  0  -0.082474  -0.076455  0  3.982406  0
C  C83  1  0.75169657  0.46195066  0.14439679  1  0  -0.055623  0  3.755804  0  0  -0.07684  0  3.997221  0  0  -0.076985  0  4.018932  0  0  -0.082469  -0.076579  0  3.982403  0
O  O84  1  0.24072722  0.70441438  0.35546642  1  0  -0.872184  0  1.961463  0  0  -0.781111  0  2.251631  0  0  -0.80966  0  2.225629  0  0  -0.388891  -0.760918  0  2.269113  0
O  O85  1  0.74072622  0.79559193  0.64453361  1  0  -0.872218  0  1.961346  0  0  -0.781191  0  2.251559  0  0  -0.809739  0  2.225561  0  0  -0.388913  -0.760993  0  2.269044  0
O  O86  1  0.75927193  0.29558805  0.64453232  1  0  -0.872226  0  1.961526  0  0  -0.781155  0  2.251698  0  0  -0.809699  0  2.22569  0  0  -0.388914  -0.760961  0  2.269181  0
O  O87  1  0.25927293  0.20440950  0.35546496  1  0  -0.872264  0  1.961375  0  0  -0.781205  0  2.251554  0  0  -0.809759  0  2.225562  0  0  -0.388897  -0.761012  0  2.269039  0
O  O88  1  0.17450595  0.94857351  0.42546931  1  0  -0.907385  0  2.07114  0  0  -0.810627  0  2.365357  0  0  -0.83853  0  2.339002  0  0  -0.379957  -0.790815  0  2.382832  0
O  O89  1  0.67451472  0.55142977  0.57453747  1  0  -0.90744  0  2.071008  0  0  -0.810671  0  2.365169  0  0  -0.838567  0  2.338809  0  0  -0.380041  -0.790888  0  2.382711  0
O  O90  1  0.82548908  0.05142497  0.57453315  1  0  -0.9073  0  2.071121  0  0  -0.810645  0  2.365391  0  0  -0.838551  0  2.339048  0  0  -0.379958  -0.790833  0  2.382867  0
O  O91  1  0.32548031  0.44857265  0.42546000  1  0  -0.907303  0  2.070893  0  0  -0.810685  0  2.365178  0  0  -0.838586  0  2.33882  0  0  -0.380048  -0.790888  0  2.382682  0
O  O92  1  0.98504412  0.76894816  0.46870966  1  0  -0.879215  0  1.988773  0  0  -0.785082  0  2.284745  0  0  -0.813464  0  2.25884  0  0  -0.382144  -0.76503  0  2.302076  0
O  O93  1  0.48504860  0.73104860  0.53128974  1  0  -0.879272  0  1.988713  0  0  -0.785151  0  2.284662  0  0  -0.813553  0  2.258799  0  0  -0.382204  -0.765099  0  2.302  0
O  O94  1  0.01494953  0.23104932  0.53129011  1  0  -0.879241  0  1.988642  0  0  -0.785129  0  2.284628  0  0  -0.813519  0  2.258742  0  0  -0.382212  -0.76508  0  2.301964  0
O  O95  1  0.51494643  0.26895581  0.46870934  1  0  -0.879287  0  1.988819  0  0  -0.785109  0  2.284689  0  0  -0.813511  0  2.258826  0  0  -0.382175  -0.76506  0  2.302027  0
O  O96  1  0.88373042  0.07133212  0.32926273  1  0  -0.789565  0  1.975588  0  0  -0.705067  0  2.255992  0  0  -0.729707  0  2.236288  0  0  -0.361983  -0.687554  0  2.269736  0
O  O97  1  0.38373615  0.42866857  0.67073372  1  0  -0.789659  0  1.975505  0  0  -0.705237  0  2.255977  0  0  -0.729885  0  2.23628  0  0  -0.362034  -0.687697  0  2.269678  0
O  O98  1  0.11627011  0.92866632  0.67073217  1  0  -0.789636  0  1.975572  0  0  -0.705163  0  2.255983  0  0  -0.729787  0  2.236265  0  0  -0.362016  -0.687646  0  2.269741  0
O  O99  1  0.61626849  0.57133385  0.32926501  1  0  -0.789447  0  1.975489  0  0  -0.705105  0  2.255979  0  0  -0.729743  0  2.236273  0  0  -0.361992  -0.687587  0  2.269718  0
