# generated using pymatgen
data_NaH7C4N8O3
_symmetry_space_group_name_H-M   'P 1'
_cell_length_a   6.66887718
_cell_length_b   7.24978887
_cell_length_c   10.67480582
_cell_angle_alpha   108.84286029
_cell_angle_beta   98.63966835
_cell_angle_gamma   103.70150590
_symmetry_Int_Tables_number   1
_chemical_formula_structural   NaH7C4N8O3
_chemical_formula_sum   'Na2 H14 C8 N16 O6'
_cell_volume   459.89376734
_cell_formula_units_Z   2
loop_
 _symmetry_equiv_pos_site_id
 _symmetry_equiv_pos_as_xyz
  1  'x, y, z'
loop_
 _atom_site_type_symbol
 _atom_site_label
 _atom_site_symmetry_multiplicity
 _atom_site_fract_x
 _atom_site_fract_y
 _atom_site_fract_z
 _atom_site_occupancy
 _atom_site_hle17_bader_spin_density
 _atom_site_hle17_ddec_charge
 _atom_site_hle17_ddec_spin_density
 _atom_site_hle17_ddec_sum_bond_order
 _atom_site_hle17_magmom
 _atom_site_hse06_10hf_bader_spin_density
 _atom_site_hse06_10hf_ddec_charge
 _atom_site_hse06_10hf_ddec_spin_density
 _atom_site_hse06_10hf_ddec_sum_bond_order
 _atom_site_hse06_10hf_magmom
 _atom_site_hse06_bader_spin_density
 _atom_site_hse06_ddec_charge
 _atom_site_hse06_ddec_spin_density
 _atom_site_hse06_ddec_sum_bond_order
 _atom_site_hse06_magmom
 _atom_site_pbe_bader_spin_density
 _atom_site_pbe_cm5_charge
 _atom_site_pbe_ddec_charge
 _atom_site_pbe_ddec_spin_density
 _atom_site_pbe_ddec_sum_bond_order
 _atom_site_pbe_magmom
Na  Na0  1  0.95137494  0.30210833  0.05895538  1  0  0.871581  0  0.436899  0  0  0.804797  0  0.625772  0  0  0.816121  0  0.602116  0  0  0.69706  0.796496  0  0.642668  0
Na  Na1  1  0.04862203  0.69788997  0.94104305  1  0  0.871586  0  0.436891  0  0  0.804794  0  0.625779  0  0  0.816118  0  0.602125  0  0  0.697053  0.796492  0  0.642677  0
H  H2  1  0.26648809  0.74487487  0.54011061  1  0  0.316364  0  0.961237  0  0  0.287667  0  1.042219  0  0  0.297384  0  1.033668  0  0  0.29065  0.280818  0  1.048216  0
H  H3  1  0.73351135  0.25512650  0.45988967  1  0  0.316391  0  0.961209  0  0  0.287686  0  1.042188  0  0  0.297402  0  1.033638  0  0  0.290662  0.280838  0  1.048185  0
H  H4  1  0.29342889  0.53012753  0.58278422  1  0  0.321381  0  0.963145  0  0  0.292967  0  1.043673  0  0  0.302395  0  1.035668  0  0  0.293682  0.286233  0  1.049431  0
H  H5  1  0.70657159  0.46987231  0.41721489  1  0  0.321375  0  0.963148  0  0  0.292948  0  1.043688  0  0  0.302376  0  1.035684  0  0  0.293674  0.286215  0  1.049448  0
H  H6  1  0.17958036  0.80345328  0.31138966  1  0  0.313436  0  0.901616  0  0  0.287959  0  0.970247  0  0  0.298806  0  0.961119  0  0  0.323576  0.28011  0  0.976893  0
H  H7  1  0.82042061  0.19654809  0.68861077  1  0  0.313424  0  0.901629  0  0  0.287944  0  0.970265  0  0  0.298792  0  0.961134  0  0  0.323572  0.280096  0  0.976908  0
H  H8  1  0.29758305  0.43063763  0.92413830  1  0  0.387301  0  0.932801  0  0  0.348396  0  1.010444  0  0  0.358409  0  0.995826  0  0  0.290488  0.341341  0  1.020711  0
H  H9  1  0.70241791  0.56936374  0.07586213  1  0  0.387285  0  0.932826  0  0  0.348383  0  1.010465  0  0  0.358395  0  0.995846  0  0  0.290488  0.341328  0  1.020731  0
H  H10  1  0.36630858  0.55016977  0.08411591  1  0  0.39892  0  0.908209  0  0  0.362704  0  0.981841  0  0  0.372244  0  0.967714  0  0  0.295392  0.355977  0  0.991796  0
H  H11  1  0.63369038  0.44983006  0.91588399  1  0  0.398908  0  0.908224  0  0  0.362688  0  0.981863  0  0  0.372229  0  0.967735  0  0  0.295389  0.355961  0  0.991818  0
H  H12  1  0.65064882  0.05315713  0.17303918  1  0  0.378735  0  0.947295  0  0  0.336129  0  1.030955  0  0  0.346855  0  1.015456  0  0  0.279119  0.328622  0  1.041747  0
H  H13  1  0.34934967  0.94684117  0.82696034  1  0  0.378779  0  0.947239  0  0  0.336168  0  1.030892  0  0  0.346894  0  1.015393  0  0  0.27913  0.32866  0  1.041686  0
H  H14  1  0.50990490  0.13580923  0.08727839  1  0  0.411239  0  0.856805  0  0  0.389488  0  0.922672  0  0  0.398157  0  0.909517  0  0  0.305844  0.383347  0  0.931991  0
H  H15  1  0.49009445  0.86419671  0.91272664  1  0  0.411218  0  0.856882  0  0  0.389457  0  0.92272  0  0  0.398126  0  0.909566  0  0  0.305826  0.383318  0  0.932035  0
C  C16  1  0.20220461  0.48040125  0.37749507  1  0  0.612943  0  3.863539  0  0  0.56464  0  4.151715  0  0  0.595248  0  4.150229  0  0  0.244035  0.544065  0  4.152105  0
C  C17  1  0.79779786  0.51960011  0.62250644  1  0  0.613053  0  3.863572  0  0  0.564774  0  4.151673  0  0  0.595385  0  4.150182  0  0  0.244079  0.544183  0  4.152089  0
C  C18  1  0.19092343  0.26057456  0.33336574  1  0  -0.028756  0  3.689671  0  0  -0.026206  0  3.948044  0  0  -0.033092  0  3.966654  0  0  0.096966  -0.022033  0  3.935808  0
C  C19  1  0.80907561  0.73942069  0.66663315  1  0  -0.028828  0  3.68965  0  0  -0.026271  0  3.948013  0  0  -0.033156  0  3.966621  0  0  0.096918  -0.022091  0  3.935774  0
C  C20  1  0.21864019  0.13180762  0.40424776  1  0  0.10166  0  3.710805  0  0  0.074728  0  3.974039  0  0  0.082571  0  3.990796  0  0  0.124184  0.069489  0  3.96304  0
C  C21  1  0.78136078  0.86819376  0.59575174  1  0  0.101642  0  3.71073  0  0  0.074672  0  3.974021  0  0  0.082514  0  3.990775  0  0  0.124155  0.069431  0  3.963018  0
C  C22  1  0.27446639  0.16292797  0.54732127  1  0  0.230386  0  3.835847  0  0  0.207659  0  4.121029  0  0  0.214218  0  4.136785  0  0  0.21302  0.203201  0  4.110528  0
C  C23  1  0.72553258  0.83707187  0.45267769  1  0  0.230368  0  3.835894  0  0  0.207648  0  4.121072  0  0  0.214206  0  4.136825  0  0  0.213034  0.203193  0  4.110567  0
N  N24  1  0.26172077  0.59260906  0.51029172  1  0  -0.664935  0  3.158079  0  0  -0.624729  0  3.405951  0  0  -0.649466  0  3.401319  0  0  -0.563299  -0.607512  0  3.408795  0
N  N25  1  0.73827972  0.40739079  0.48970739  1  0  -0.664976  0  3.157991  0  0  -0.624756  0  3.405865  0  0  -0.649495  0  3.401239  0  0  -0.563292  -0.607537  0  3.40872  0
N  N26  1  0.13975954  0.14456714  0.19700563  1  0  -0.257756  0  3.071682  0  0  -0.238644  0  3.365808  0  0  -0.241409  0  3.376143  0  0  -0.249153  -0.236353  0  3.358719  0
N  N27  1  0.86023943  0.85543269  0.80299333  1  0  -0.257771  0  3.07178  0  0  -0.23866  0  3.365905  0  0  -0.241426  0  3.37624  0  0  -0.249161  -0.236371  0  3.358815  0
N  N28  1  0.13374222  0.95578098  0.17998995  1  0  -0.086341  0  2.96397  0  0  -0.082367  0  3.263482  0  0  -0.080655  0  3.272887  0  0  -0.134947  -0.083398  0  3.257166  0
N  N29  1  0.86625826  0.04421886  0.82001009  1  0  -0.086307  0  2.96404  0  0  -0.082335  0  3.263544  0  0  -0.080623  0  3.27295  0  0  -0.134925  -0.083369  0  3.257228  0
N  N30  1  0.18053933  0.94599046  0.30418609  1  0  -0.17252  0  3.403874  0  0  -0.118892  0  3.653688  0  0  -0.132244  0  3.668248  0  0  -0.239246  -0.10988  0  3.644188  0
N  N31  1  0.81946114  0.05400937  0.69581489  1  0  -0.172466  0  3.4039  0  0  -0.118816  0  3.653707  0  0  -0.132169  0  3.668266  0  0  -0.239217  -0.109804  0  3.644206  0
N  N32  1  0.32247310  0.34319682  0.65230856  1  0  -0.264229  0  3.009989  0  0  -0.238336  0  3.278224  0  0  -0.246991  0  3.291322  0  0  -0.197738  -0.232328  0  3.269447  0
N  N33  1  0.67752634  0.65680454  0.34769172  1  0  -0.264191  0  3.009979  0  0  -0.238275  0  3.2782  0  0  -0.24693  0  3.291299  0  0  -0.197722  -0.232267  0  3.269424  0
N  N34  1  0.36468050  0.30146823  0.76471993  1  0  -0.113859  0  3.079479  0  0  -0.073229  0  3.350106  0  0  -0.077702  0  3.361887  0  0  -0.076563  -0.069941  0  3.342081  0
N  N35  1  0.63531847  0.69853160  0.23527997  1  0  -0.113866  0  3.079414  0  0  -0.073261  0  3.350069  0  0  -0.077735  0  3.361848  0  0  -0.076573  -0.069974  0  3.342046  0
N  N36  1  0.34264077  0.10304247  0.72935309  1  0  -0.083931  0  3.051043  0  0  -0.058613  0  3.327722  0  0  -0.0613  0  3.340699  0  0  -0.079289  -0.056637  0  3.318928  0
N  N37  1  0.65735972  0.89695737  0.27064602  1  0  -0.083923  0  3.050989  0  0  -0.058597  0  3.327677  0  0  -0.061279  0  3.34065  0  0  -0.079291  -0.05662  0  3.318884  0
N  N38  1  0.28658505  0.01238566  0.59380363  1  0  -0.287266  0  3.021145  0  0  -0.261884  0  3.300666  0  0  -0.27135  0  3.314599  0  0  -0.207594  -0.255496  0  3.291463  0
N  N39  1  0.71341592  0.98761571  0.40619586  1  0  -0.287256  0  3.02123  0  0  -0.261871  0  3.300734  0  0  -0.271336  0  3.314663  0  0  -0.207586  -0.255483  0  3.29153  0
O  O40  1  0.15514312  0.55219851  0.28728933  1  0  -0.618915  0  1.934769  0  0  -0.568323  0  2.161179  0  0  -0.59111  0  2.152894  0  0  -0.345364  -0.552431  0  2.166604  0
O  O41  1  0.84485785  0.44780287  0.71270922  1  0  -0.61898  0  1.934853  0  0  -0.56842  0  2.161286  0  0  -0.591212  0  2.153001  0  0  -0.345412  -0.552524  0  2.166718  0
O  O42  1  0.24384121  0.49196536  0.00448469  1  0  -0.896361  0  1.859841  0  0  -0.843965  0  2.05284  0  0  -0.859445  0  2.019812  0  0  -0.698757  -0.832992  0  2.07597  0
O  O43  1  0.75615776  0.50803447  0.99551520  1  0  -0.896335  0  1.859869  0  0  -0.843934  0  2.05286  0  0  -0.859412  0  2.019832  0  0  -0.698759  -0.83296  0  2.075991  0
O  O44  1  0.65772533  0.15252072  0.12627205  1  0  -0.869094  0  1.806952  0  0  -0.821962  0  1.991396  0  0  -0.837661  0  1.960408  0  0  -0.662056  -0.810712  0  2.013007  0
O  O45  1  0.34227420  0.84747607  0.87372629  1  0  -0.869112  0  1.806948  0  0  -0.821948  0  1.991427  0  0  -0.837649  0  1.960438  0  0  -0.662051  -0.8107  0  2.013038  0
