# generated using pymatgen
data_ZnH6C5(NO3)2
_symmetry_space_group_name_H-M   'P 1'
_cell_length_a   6.11938430
_cell_length_b   6.26053019
_cell_length_c   19.67535717
_cell_angle_alpha   92.51362431
_cell_angle_beta   89.99954960
_cell_angle_gamma   90.00022292
_symmetry_Int_Tables_number   1
_chemical_formula_structural   ZnH6C5(NO3)2
_chemical_formula_sum   'Zn4 H24 C20 N8 O24'
_cell_volume   753.04927939
_cell_formula_units_Z   4
loop_
 _symmetry_equiv_pos_site_id
 _symmetry_equiv_pos_as_xyz
  1  'x, y, z'
loop_
 _atom_site_type_symbol
 _atom_site_label
 _atom_site_symmetry_multiplicity
 _atom_site_fract_x
 _atom_site_fract_y
 _atom_site_fract_z
 _atom_site_occupancy
 _atom_site_hle17_bader_spin_density
 _atom_site_hle17_ddec_charge
 _atom_site_hle17_ddec_spin_density
 _atom_site_hle17_ddec_sum_bond_order
 _atom_site_hle17_magmom
 _atom_site_hse06_10hf_bader_spin_density
 _atom_site_hse06_10hf_ddec_charge
 _atom_site_hse06_10hf_ddec_spin_density
 _atom_site_hse06_10hf_ddec_sum_bond_order
 _atom_site_hse06_10hf_magmom
 _atom_site_hse06_bader_spin_density
 _atom_site_hse06_ddec_charge
 _atom_site_hse06_ddec_spin_density
 _atom_site_hse06_ddec_sum_bond_order
 _atom_site_hse06_magmom
 _atom_site_pbe_bader_spin_density
 _atom_site_pbe_cm5_charge
 _atom_site_pbe_ddec_charge
 _atom_site_pbe_ddec_spin_density
 _atom_site_pbe_ddec_sum_bond_order
 _atom_site_pbe_magmom
Zn  Zn0  1  0.15786873  0.08222766  0.80038787  1  0  1.175421  0  1.7085  0  0  1.002409  0  2.164957  0  0  1.049643  0  2.10505  0  0  0.703495  0.968997  0  2.206425  0
Zn  Zn1  1  0.65786314  0.91776327  0.69961028  1  0  1.175392  0  1.708481  0  0  1.002386  0  2.16489  0  0  1.049619  0  2.104986  0  0  0.703504  0.968975  0  2.206364  0
Zn  Zn2  1  0.84213469  0.91776669  0.19961227  1  0  1.175427  0  1.708563  0  0  1.002389  0  2.165006  0  0  1.049617  0  2.105102  0  0  0.703513  0.968982  0  2.206477  0
Zn  Zn3  1  0.34214029  0.08223905  0.30038894  1  0  1.17544  0  1.708542  0  0  1.002404  0  2.164989  0  0  1.049632  0  2.105089  0  0  0.703513  0.968997  0  2.206461  0
H  H4  1  0.71031585  0.20339685  0.99824849  1  0  0.147514  0  0.927785  0  0  0.155406  0  0.987335  0  0  0.159618  0  0.984879  0  0  0.118509  0.152366  0  0.989345  0
H  H5  1  0.21031219  0.79660225  0.50174912  1  0  0.147519  0  0.927792  0  0  0.155409  0  0.987333  0  0  0.159621  0  0.984881  0  0  0.118513  0.152369  0  0.989344  0
H  H6  1  0.28968921  0.79661033  0.00175435  1  0  0.147566  0  0.927736  0  0  0.155451  0  0.987297  0  0  0.159665  0  0.984841  0  0  0.11852  0.15241  0  0.989306  0
H  H7  1  0.78968143  0.20339523  0.49824750  1  0  0.147514  0  0.927745  0  0  0.155402  0  0.987295  0  0  0.159615  0  0.984842  0  0  0.118486  0.152362  0  0.989305  0
H  H8  1  0.05556952  0.34057516  0.94765249  1  0  0.312509  0  0.886215  0  0  0.284486  0  0.962909  0  0  0.293356  0  0.954806  0  0  0.331461  0.278191  0  0.968805  0
H  H9  1  0.55556333  0.65942986  0.55234912  1  0  0.312509  0  0.886241  0  0  0.284493  0  0.962918  0  0  0.293364  0  0.954817  0  0  0.331475  0.278188  0  0.968817  0
H  H10  1  0.94443717  0.65942879  0.05234827  1  0  0.312462  0  0.886308  0  0  0.284457  0  0.962995  0  0  0.293325  0  0.954895  0  0  0.331456  0.278151  0  0.968892  0
H  H11  1  0.44443028  0.34057723  0.44764863  1  0  0.31247  0  0.886215  0  0  0.284462  0  0.962896  0  0  0.293331  0  0.954796  0  0  0.331435  0.278156  0  0.968794  0
H  H12  1  0.14756885  0.37848106  0.70311837  1  0  0.436321  0  0.859436  0  0  0.403553  0  0.924094  0  0  0.415235  0  0.90707  0  0  0.293451  0.395275  0  0.936139  0
H  H13  1  0.64757271  0.62151784  0.79688091  1  0  0.436268  0  0.859522  0  0  0.403506  0  0.924163  0  0  0.415191  0  0.907136  0  0  0.293437  0.395226  0  0.936213  0
H  H14  1  0.85242477  0.62151969  0.29688286  1  0  0.436248  0  0.859544  0  0  0.403496  0  0.92417  0  0  0.41518  0  0.907144  0  0  0.293426  0.395215  0  0.936221  0
H  H15  1  0.35242745  0.37848766  0.20311733  1  0  0.436229  0  0.859584  0  0  0.403477  0  0.924209  0  0  0.415158  0  0.907188  0  0  0.293424  0.395195  0  0.936261  0
H  H16  1  0.17465917  0.51572806  0.77562642  1  0  0.438695  0  0.852124  0  0  0.408574  0  0.912996  0  0  0.419347  0  0.897236  0  0  0.293889  0.400894  0  0.924226  0
H  H17  1  0.67466431  0.48427094  0.72437280  1  0  0.438698  0  0.852133  0  0  0.408571  0  0.913007  0  0  0.419342  0  0.897252  0  0  0.293894  0.400894  0  0.924234  0
H  H18  1  0.82533771  0.48427270  0.22437482  1  0  0.438651  0  0.852185  0  0  0.408498  0  0.913089  0  0  0.419262  0  0.897346  0  0  0.293874  0.40082  0  0.924315  0
H  H19  1  0.32534238  0.51573297  0.27562593  1  0  0.438712  0  0.852112  0  0  0.408592  0  0.912984  0  0  0.419364  0  0.897228  0  0  0.29391  0.400913  0  0.924214  0
H  H20  1  0.32918229  0.72695631  0.85671238  1  0  0.426792  0  0.877199  0  0  0.391752  0  0.947872  0  0  0.402671  0  0.932152  0  0  0.29413  0.384031  0  0.958972  0
H  H21  1  0.82918045  0.27304483  0.64328699  1  0  0.426821  0  0.87716  0  0  0.391788  0  0.94782  0  0  0.402706  0  0.932103  0  0  0.294148  0.384068  0  0.95892  0
H  H22  1  0.67081950  0.27304605  0.14328887  1  0  0.426669  0  0.877379  0  0  0.391676  0  0.947963  0  0  0.402587  0  0.932255  0  0  0.294095  0.383955  0  0.959065  0
H  H23  1  0.17081644  0.72696071  0.35671379  1  0  0.426857  0  0.877111  0  0  0.391817  0  0.947786  0  0  0.402739  0  0.932062  0  0  0.29415  0.384096  0  0.958888  0
H  H24  1  0.07115782  0.70323343  0.86450754  1  0  0.428008  0  0.874404  0  0  0.394927  0  0.940829  0  0  0.406173  0  0.924647  0  0  0.290533  0.386992  0  0.952236  0
H  H25  1  0.57115627  0.29676841  0.63549247  1  0  0.427976  0  0.87445  0  0  0.394897  0  0.940874  0  0  0.406143  0  0.924691  0  0  0.290518  0.386958  0  0.952284  0
H  H26  1  0.92884070  0.29677212  0.13549375  1  0  0.42798  0  0.874442  0  0  0.394893  0  0.940881  0  0  0.406138  0  0.924699  0  0  0.29052  0.386955  0  0.95229  0
H  H27  1  0.42884225  0.70323393  0.36450777  1  0  0.427983  0  0.874438  0  0  0.394894  0  0.94088  0  0  0.406139  0  0.924699  0  0  0.290496  0.386958  0  0.952288  0
C  C28  1  0.51343772  0.17435188  0.90214913  1  0  0.043386  0  3.755209  0  0  0.037716  0  4.020452  0  0  0.037513  0  4.037746  0  0  0.091228  0.037905  0  4.008775  0
C  C29  1  0.01344156  0.82563857  0.59785089  1  0  0.043267  0  3.755382  0  0  0.037718  0  4.020536  0  0  0.037519  0  4.037825  0  0  0.091252  0.037906  0  4.008865  0
C  C30  1  0.48656734  0.82565210  0.09785367  1  0  0.043504  0  3.754996  0  0  0.037676  0  4.02053  0  0  0.037475  0  4.037827  0  0  0.091218  0.03786  0  4.008858  0
C  C31  1  0.98656186  0.17435096  0.40214817  1  0  0.043377  0  3.755153  0  0  0.037576  0  4.020586  0  0  0.037375  0  4.03788  0  0  0.091217  0.037762  0  4.008915  0
C  C32  1  0.55658670  0.21799688  0.97152255  1  0  -0.184251  0  3.681289  0  0  -0.222434  0  3.952695  0  0  -0.22699  0  3.970703  0  0  -0.091815  -0.219525  0  3.940966  0
C  C33  1  0.05658557  0.78199691  0.52847689  1  0  -0.184205  0  3.68135  0  0  -0.222375  0  3.952733  0  0  -0.226932  0  3.970739  0  0  -0.091785  -0.219466  0  3.941009  0
C  C34  1  0.44341836  0.78200230  0.02847968  1  0  -0.184374  0  3.681148  0  0  -0.222483  0  3.952617  0  0  -0.227043  0  3.970628  0  0  -0.091793  -0.219582  0  3.940913  0
C  C35  1  0.94341295  0.21799899  0.47152123  1  0  -0.18424  0  3.681091  0  0  -0.222378  0  3.952535  0  0  -0.226938  0  3.970544  0  0  -0.091758  -0.219473  0  3.940823  0
C  C36  1  0.35625096  0.28166327  0.99956912  1  0  0.044179  0  3.711221  0  0  0.031379  0  3.977189  0  0  0.032274  0  3.994264  0  0  0.093241  0.030792  0  3.965892  0
C  C37  1  0.85623814  0.71834277  0.50043075  1  0  0.044219  0  3.711314  0  0  0.031366  0  3.977354  0  0  0.032262  0  3.994424  0  0  0.093233  0.03076  0  3.966054  0
C  C38  1  0.64376063  0.71834067  0.00043114  1  0  0.044278  0  3.711189  0  0  0.031441  0  3.977176  0  0  0.032337  0  3.994247  0  0  0.093237  0.030834  0  3.965872  0
C  C39  1  0.14375384  0.28165635  0.49956843  1  0  0.044198  0  3.711098  0  0  0.031421  0  3.977034  0  0  0.032319  0  3.994105  0  0  0.093223  0.030813  0  3.965732  0
C  C40  1  0.65336415  0.10343867  0.84389419  1  0  0.684384  0  3.876868  0  0  0.627531  0  4.171457  0  0  0.66398  0  4.160676  0  0  0.228883  0.602669  0  4.178168  0
C  C41  1  0.15336844  0.89653786  0.65610429  1  0  0.684608  0  3.876669  0  0  0.627667  0  4.171424  0  0  0.664118  0  4.160631  0  0  0.228908  0.602803  0  4.178141  0
C  C42  1  0.34663764  0.89654771  0.15610788  1  0  0.684481  0  3.876916  0  0  0.627561  0  4.171725  0  0  0.664008  0  4.160941  0  0  0.228863  0.602701  0  4.178435  0
C  C43  1  0.84662681  0.10345644  0.34389330  1  0  0.684505  0  3.876985  0  0  0.627665  0  4.17163  0  0  0.664114  0  4.160841  0  0  0.228886  0.602805  0  4.17834  0
C  C44  1  0.28147747  0.34208326  0.06974424  1  0  0.644087  0  3.959864  0  0  0.587882  0  4.268325  0  0  0.620959  0  4.259938  0  0  0.214483  0.565501  0  4.27336  0
C  C45  1  0.78147812  0.65791905  0.43025607  1  0  0.644015  0  3.959824  0  0  0.587812  0  4.268297  0  0  0.620899  0  4.259906  0  0  0.214459  0.565432  0  4.273332  0
C  C46  1  0.71852432  0.65792067  0.93025551  1  0  0.643853  0  3.960155  0  0  0.587753  0  4.268435  0  0  0.62084  0  4.260046  0  0  0.214426  0.565375  0  4.27347  0
C  C47  1  0.21852040  0.34207849  0.56974411  1  0  0.643989  0  3.959851  0  0  0.587793  0  4.268284  0  0  0.620879  0  4.259894  0  0  0.214501  0.565416  0  4.273317  0
N  N48  1  0.30033645  0.20889017  0.88908195  1  0  -0.23034  0  3.175101  0  0  -0.186426  0  3.457943  0  0  -0.197207  0  3.471603  0  0  -0.229685  -0.178776  0  3.448569  0
N  N49  1  0.80034075  0.79110927  0.61091747  1  0  -0.230261  0  3.175251  0  0  -0.186356  0  3.45803  0  0  -0.197141  0  3.471692  0  0  -0.229657  -0.178721  0  3.448647  0
N  N50  1  0.69966371  0.79111218  0.11091930  1  0  -0.230394  0  3.175129  0  0  -0.186365  0  3.458012  0  0  -0.197148  0  3.471674  0  0  -0.229666  -0.178732  0  3.44863  0
N  N51  1  0.19966104  0.20889304  0.38908124  1  0  -0.230366  0  3.175193  0  0  -0.186375  0  3.458053  0  0  -0.197159  0  3.471714  0  0  -0.229693  -0.178743  0  3.448672  0
N  N52  1  0.20862073  0.27238653  0.94780677  1  0  -0.121628  0  3.455322  0  0  -0.067648  0  3.689375  0  0  -0.076518  0  3.705333  0  0  -0.254025  -0.061856  0  3.678836  0
N  N53  1  0.70861482  0.72762062  0.55219450  1  0  -0.12173  0  3.455459  0  0  -0.067732  0  3.689519  0  0  -0.076598  0  3.705475  0  0  -0.254065  -0.061893  0  3.678938  0
N  N54  1  0.79138923  0.72762062  0.05219455  1  0  -0.121674  0  3.455232  0  0  -0.067756  0  3.689333  0  0  -0.076623  0  3.705291  0  0  -0.25409  -0.061915  0  3.678751  0
N  N55  1  0.29138370  0.27238489  0.44780425  1  0  -0.121616  0  3.455252  0  0  -0.067661  0  3.689283  0  0  -0.076528  0  3.705238  0  0  -0.254025  -0.061819  0  3.678699  0
O  O56  1  0.54786393  0.05234682  0.78903154  1  0  -0.659634  0  2.135237  0  0  -0.574968  0  2.411995  0  0  -0.605654  0  2.394976  0  0  -0.301065  -0.553521  0  2.423013  0
O  O57  1  0.04787848  0.94765172  0.71096697  1  0  -0.659544  0  2.135046  0  0  -0.574998  0  2.412014  0  0  -0.6057  0  2.395022  0  0  -0.301062  -0.553548  0  2.423026  0
O  O58  1  0.45213623  0.94765554  0.21097022  1  0  -0.659703  0  2.135334  0  0  -0.574998  0  2.412173  0  0  -0.605692  0  2.395179  0  0  -0.301093  -0.553553  0  2.423193  0
O  O59  1  0.95212821  0.05234739  0.28903171  1  0  -0.659561  0  2.135264  0  0  -0.574877  0  2.412046  0  0  -0.605567  0  2.395045  0  0  -0.301005  -0.553429  0  2.423055  0
O  O60  1  0.85706100  0.10186123  0.85257399  1  0  -0.616745  0  2.046975  0  0  -0.556925  0  2.314483  0  0  -0.582536  0  2.299168  0  0  -0.304585  -0.539093  0  2.324483  0
O  O61  1  0.35706552  0.89808561  0.64742261  1  0  -0.616866  0  2.046868  0  0  -0.557063  0  2.314527  0  0  -0.582674  0  2.299204  0  0  -0.304619  -0.539231  0  2.32453  0
O  O62  1  0.14294405  0.89810441  0.14743037  1  0  -0.616695  0  2.047016  0  0  -0.556876  0  2.31463  0  0  -0.582485  0  2.299314  0  0  -0.304505  -0.539045  0  2.324631  0
O  O63  1  0.64293300  0.10191025  0.35257297  1  0  -0.616786  0  2.047014  0  0  -0.557031  0  2.314646  0  0  -0.58264  0  2.299324  0  0  -0.304581  -0.539201  0  2.324652  0
O  O64  1  0.16222981  0.37121354  0.75331244  1  0  -0.860796  0  1.915394  0  0  -0.79662  0  2.131495  0  0  -0.817694  0  2.092897  0  0  -0.588975  -0.781793  0  2.158516  0
O  O65  1  0.66224313  0.62878383  0.74668780  1  0  -0.860759  0  1.91551  0  0  -0.796612  0  2.131676  0  0  -0.817684  0  2.093081  0  0  -0.589001  -0.781784  0  2.158697  0
O  O66  1  0.83774910  0.62878883  0.24668983  1  0  -0.860693  0  1.915614  0  0  -0.796497  0  2.131798  0  0  -0.817564  0  2.09321  0  0  -0.588955  -0.781668  0  2.158817  0
O  O67  1  0.33775049  0.37121847  0.25331040  1  0  -0.860749  0  1.915552  0  0  -0.796591  0  2.131646  0  0  -0.817665  0  2.093063  0  0  -0.588997  -0.781763  0  2.158665  0
O  O68  1  0.41701499  0.33300276  0.11822858  1  0  -0.627075  0  2.04962  0  0  -0.559513  0  2.267771  0  0  -0.586482  0  2.260446  0  0  -0.299571  -0.540798  0  2.272536  0
O  O69  1  0.91701525  0.66700162  0.38177193  1  0  -0.627043  0  2.049636  0  0  -0.559436  0  2.267787  0  0  -0.586438  0  2.260478  0  0  -0.29956  -0.540721  0  2.272551  0
O  O70  1  0.58298517  0.66700915  0.88177076  1  0  -0.627008  0  2.049624  0  0  -0.559424  0  2.267719  0  0  -0.586427  0  2.260411  0  0  -0.299535  -0.540714  0  2.272487  0
O  O71  1  0.08298000  0.33300072  0.61822882  1  0  -0.627092  0  2.04964  0  0  -0.559489  0  2.267787  0  0  -0.586483  0  2.260474  0  0  -0.2996  -0.540782  0  2.272553  0
O  O72  1  0.18836946  0.75076312  0.83257013  1  0  -0.840475  0  1.925622  0  0  -0.771452  0  2.124725  0  0  -0.795323  0  2.090462  0  0  -0.561699  -0.754522  0  2.148496  0
O  O73  1  0.68836691  0.24923590  0.66742804  1  0  -0.840459  0  1.925616  0  0  -0.771426  0  2.124685  0  0  -0.795295  0  2.090424  0  0  -0.561703  -0.754495  0  2.148457  0
O  O74  1  0.81163233  0.24923601  0.16742956  1  0  -0.840328  0  1.925801  0  0  -0.771321  0  2.124898  0  0  -0.795183  0  2.090654  0  0  -0.561658  -0.754392  0  2.148667  0
O  O75  1  0.31163487  0.75076801  0.33257120  1  0  -0.840543  0  1.925606  0  0  -0.771515  0  2.124714  0  0  -0.795384  0  2.090454  0  0  -0.561677  -0.754585  0  2.148486  0
O  O76  1  0.08143777  0.39534945  0.07535319  1  0  -0.64036  0  1.989604  0  0  -0.589607  0  2.224775  0  0  -0.612322  0  2.213138  0  0  -0.321877  -0.573704  0  2.232419  0
O  O77  1  0.58143671  0.60464096  0.42464695  1  0  -0.640363  0  1.989482  0  0  -0.589607  0  2.224652  0  0  -0.612321  0  2.21301  0  0  -0.321877  -0.573703  0  2.232294  0
O  O78  1  0.91856075  0.60465125  0.92464499  1  0  -0.640285  0  1.989741  0  0  -0.589574  0  2.224864  0  0  -0.612288  0  2.213221  0  0  -0.321869  -0.573671  0  2.232505  0
O  O79  1  0.41856344  0.39534697  0.57535260  1  0  -0.640345  0  1.989528  0  0  -0.589609  0  2.224698  0  0  -0.612326  0  2.213057  0  0  -0.321906  -0.573707  0  2.232341  0
