# generated using pymatgen
data_Zn8H28C41O27
_symmetry_space_group_name_H-M   'P 1'
_cell_length_a   18.60856283
_cell_length_b   18.49303704
_cell_length_c   18.49403933
_cell_angle_alpha   119.95802456
_cell_angle_beta   90.60877698
_cell_angle_gamma   119.09797908
_symmetry_Int_Tables_number   1
_chemical_formula_structural   Zn8H28C41O27
_chemical_formula_sum   'Zn8 H28 C41 O27'
_cell_volume   4539.99888861
_cell_formula_units_Z   1
loop_
 _symmetry_equiv_pos_site_id
 _symmetry_equiv_pos_as_xyz
  1  'x, y, z'
loop_
 _atom_site_type_symbol
 _atom_site_label
 _atom_site_symmetry_multiplicity
 _atom_site_fract_x
 _atom_site_fract_y
 _atom_site_fract_z
 _atom_site_occupancy
 _atom_site_pbe_bader_charge
 _atom_site_pbe_bader_spin_density
 _atom_site_pbe_cm5_charge
 _atom_site_pbe_ddec_charge
 _atom_site_pbe_ddec_spin_density
 _atom_site_pbe_ddec_sum_bond_order
 _atom_site_pbe_magmom
Zn  Zn0  1  0.54123645  0.08399428  0.95046132  1  1.308942  0  0.664429  0.961467  0  2.361299  0
Zn  Zn1  1  0.54000738  0.08450351  0.12649124  1  1.293867  0  0.665148  0.961276  0  2.382433  0
Zn  Zn2  1  0.53932397  0.91237221  0.95456353  1  1.306125  0  0.668338  0.957868  0  2.404376  0
Zn  Zn3  1  0.36901344  0.91687990  0.95372067  1  1.314863  0  0.663779  0.958387  0  2.387097  0
Zn  Zn4  1  0.95805807  0.91383603  0.54551102  1  1.318388  0  0.66396  0.956859  0  2.386336  0
Zn  Zn5  1  0.96028247  0.08773272  0.54481934  1  1.310262  0  0.665038  0.958471  0  2.390163  0
Zn  Zn6  1  0.95931634  0.91261432  0.37241806  1  1.303913  0  0.666178  0.960551  0  2.383915  0
Zn  Zn7  1  0.13136233  0.08564593  0.54714568  1  1.316406  0  0.667033  0.962399  0  2.369947  0
H  H8  1  0.27348189  0.95094169  0.60743367  1  0.065492  0  0.100391  0.086649  0  0.990715  0
H  H9  1  0.23492555  0.95951899  0.15284187  1  0.077072  0  0.111678  0.129053  0  0.985913  0
H  H10  1  0.79143476  0.88377211  0.18638781  1  0.103933  0  0.11204  0.110609  0  0.975485  0
H  H11  1  0.22307594  0.83165619  0.67605796  1  0.052244  0  0.10064  0.087043  0  0.989655  0
H  H12  1  0.81068336  0.07344489  0.34477255  1  0.103331  0  0.112623  0.13105  0  0.98497  0
H  H13  1  0.71419095  0.90217654  0.09291685  1  0.116276  0  0.111567  0.109266  0  0.980383  0
H  H14  1  0.68802309  0.03185675  0.26277970  1  0.08624  0  0.112479  0.130413  0  0.984695  0
H  H15  1  0.80276429  0.59287871  0.18888394  1  0.1153  0  0.112216  0.109672  0  0.977286  0
H  H16  1  0.77729951  0.58094955  0.34794784  1  0.10482  0  0.1119  0.129826  0  0.986205  0
H  H17  1  0.69796745  0.40715054  0.09355709  1  0.126906  0  0.112762  0.111558  0  0.976091  0
H  H18  1  0.72337405  0.41496987  0.26290662  1  0.092721  0  0.111539  0.128953  0  0.986128  0
H  H19  1  0.68277154  0.01546063  0.75775247  1  0.087551  0  0.110285  0.145934  0  0.99925  0
H  H20  1  0.09605605  0.87398200  0.72198448  1  0.074065  0  0.098916  0.087834  0  0.993643  0
H  H21  1  0.22329324  0.04680900  0.89146765  1  0.057903  0  0.099317  0.084544  0  0.991893  0
H  H22  1  0.27358531  0.16608806  0.82283549  1  0.067657  0  0.099605  0.085447  0  0.991538  0
H  H23  1  0.40075398  0.12374463  0.77689183  1  0.100224  0  0.100393  0.089425  0  0.989557  0
H  H24  1  0.80648990  0.90110298  0.70900599  1  0.107749  0  0.115809  0.126863  0  0.985561  0
H  H25  1  0.81364720  0.08215657  0.73362832  1  0.100708  0  0.11485  0.13525  0  0.979253  0
H  H26  1  0.87292003  0.01741314  0.91612865  1  0.075567  0  0.103428  0.102416  0  0.979657  0
H  H27  1  0.84484953  0.90072480  0.81678022  1  0.063378  0  0.101906  0.098547  0  1.000337  0
H  H28  1  0.80906054  0.90047881  0.90611116  1  0.072406  0  0.114893  0.122572  0  0.965888  0
H  H29  1  0.31346228  0.40893260  0.71320638  1  0.102074  0  0.112209  0.110211  0  0.975577  0
H  H30  1  0.15353797  0.41822587  0.69671195  1  0.084345  0  0.112089  0.130212  0  0.984495  0
H  H31  1  0.40310894  0.59509915  0.79409031  1  0.081475  0  0.112456  0.111582  0  0.977838  0
H  H32  1  0.23266253  0.58284956  0.80472036  1  0.063335  0  0.112433  0.130332  0  0.984734  0
H  H33  1  0.31262039  0.11398156  0.40677028  1  0.105878  0  0.11244  0.110246  0  0.97699  0
H  H34  1  0.15448755  0.93230613  0.23606158  1  0.061987  0  0.11142  0.129017  0  0.986132  0
H  H35  1  0.40457782  0.10474953  0.31209049  1  0.139679  0  0.112721  0.111571  0  0.975919  0
C  C36  1  0.36215861  0.00780912  0.13637696  1  1.559773  0  0.216892  0.637117  0  4.194122  0
C  C37  1  0.68445574  0.98798623  0.79741934  1  0.067164  0  -0.115961  -0.376354  0  3.860917  0
C  C38  1  0.27956312  0.44626527  0.72565099  1  -0.083299  0  -0.066175  -0.019527  0  3.973599  0
C  C39  1  0.62908861  0.99042923  0.85326723  1  1.508623  0  0.212244  0.664723  0  4.184757  0
C  C40  1  0.19176834  0.38668643  0.68911154  1  -0.030032  0  -0.086421  -0.224091  0  3.875857  0
C  C41  1  0.33253322  0.55625844  0.77956013  1  -0.029185  0  -0.067403  -0.024396  0  3.974651  0
C  C42  1  0.30187691  0.61480686  0.81422902  1  -0.002427  0  -0.085157  -0.220303  0  3.871532  0
C  C43  1  0.27972861  0.05748816  0.33529344  1  -0.039061  0  -0.066074  -0.019652  0  3.973456  0
C  C44  1  0.19206078  0.99232381  0.30613956  1  -0.004442  0  -0.086678  -0.22383  0  3.873624  0
C  C45  1  0.33396149  0.05798703  0.27943192  1  -0.20324  0  -0.067174  -0.022769  0  3.974225  0
C  C46  1  0.30424166  0.00642076  0.19046691  1  0.054924  0  -0.084913  -0.220592  0  3.872828  0
C  C47  1  0.16396981  0.92936862  0.73462558  1  -0.02568  0  -0.078779  -0.070968  0  3.648897  0
C  C48  1  0.77935732  0.94298441  0.21910964  1  -0.053388  0  -0.066616  -0.021119  0  3.977492  0
C  C49  1  0.81734878  0.01034030  0.30783937  1  -0.050514  0  -0.087387  -0.226096  0  3.881423  0
C  C50  1  0.72450419  0.94413975  0.16392301  1  -0.072424  0  -0.067889  -0.023115  0  3.979223  0
C  C51  1  0.64116395  0.27204958  0.13354128  1  1.474005  0  0.218203  0.639138  0  4.192099  0
C  C52  1  0.68362441  0.99150169  0.19347075  1  -0.010345  0  -0.085951  -0.222177  0  3.875621  0
C  C53  1  0.77799825  0.55420509  0.22126466  1  -0.11394  0  -0.065527  -0.016911  0  3.970595  0
C  C54  1  0.80077950  0.61296839  0.31037228  1  -0.091014  0  -0.087413  -0.226106  0  3.874587  0
C  C55  1  0.72249646  0.44415379  0.16478706  1  0.08442  0  -0.067553  -0.025014  0  3.973734  0
C  C56  1  0.69989495  0.38395417  0.19314246  1  -0.062033  0  -0.085251  -0.21995  0  3.87218  0
C  C57  1  0.13971246  0.27501829  0.63688621  1  1.572335  0  0.217158  0.639334  0  4.193865  0
C  C58  1  0.23357296  0.02542674  0.82765189  1  0.003135  0  -0.070329  -0.059334  0  3.625187  0
C  C59  1  0.85952776  0.72479097  0.36431331  1  1.563122  0  0.217459  0.639585  0  4.189585  0
C  C60  1  0.87204903  0.01137004  0.64665880  1  1.511084  0  0.218838  0.641728  0  4.180115  0
C  C61  1  0.13933805  0.99671669  0.36541545  1  1.566299  0  0.217146  0.638752  0  4.190235  0
C  C62  1  0.86934840  0.00375205  0.36228681  1  1.53329  0  0.217498  0.639043  0  4.19394  0
C  C63  1  0.35950041  0.72661087  0.86692741  1  1.575877  0  0.216635  0.63586  0  4.198405  0
C  C64  1  0.13595972  0.99544794  0.64086040  1  1.537461  0  0.226154  0.608156  0  4.175545  0
C  C65  1  0.63030247  0.99298397  0.13510708  1  1.536897  0  0.216823  0.636861  0  4.198832  0
C  C66  1  0.36140922  0.00283921  0.85805325  1  1.509828  0  0.225901  0.607086  0  4.178598  0
C  C67  1  0.23353487  0.90584170  0.70790804  1  0.012919  0  -0.070357  -0.05947  0  3.623134  0
C  C68  1  0.26324116  0.97235933  0.67126477  1  -0.050444  0  -0.070996  -0.063253  0  3.625325  0
C  C69  1  0.26328449  0.09197024  0.79102529  1  -0.053762  0  -0.071559  -0.06352  0  3.628543  0
C  C70  1  0.19253562  0.99514422  0.69765191  1  0.021538  0  -0.009481  -0.032645  0  3.65085  0
C  C71  1  0.82223854  0.93562871  0.87032243  1  0.351359  0  -0.129162  -0.176238  0  3.914851  0
C  C72  1  0.33282563  0.06844267  0.76427902  1  -0.058244  0  -0.077907  -0.066213  0  3.643654  0
C  C73  1  0.30432647  0.00267458  0.80122102  1  0.032388  0  -0.008035  -0.034067  0  3.651289  0
C  C74  1  0.79179138  0.95813821  0.73496691  1  -0.155567  0  -0.071219  -0.119668  0  3.969553  0
C  C75  1  0.82289099  0.02115918  0.70955207  1  0.077507  0  -0.087006  -0.211652  0  3.890273  0
C  C76  1  0.73881806  0.95732468  0.79275481  1  0.487004  0  0.097128  0.287245  0  4.048713  0
O  O77  1  0.49723988  0.00043878  0.99662016  1  -1.202592  0  -0.571701  -1.029936  0  2.534236  0
O  O78  1  0.05662039  0.93403811  0.32580467  1  -1.168049  0  -0.322501  -0.55319  0  2.297335  0
O  O79  1  0.89009205  0.06459232  0.44605515  1  -1.151695  0  -0.320216  -0.548673  0  2.296861  0
O  O80  1  0.32281898  0.94822203  0.05256014  1  -1.165008  0  -0.320753  -0.551519  0  2.297827  0
O  O81  1  0.17571778  0.05736178  0.61985111  1  -1.16506  0  -0.321851  -0.556016  0  2.317907  0
O  O82  1  0.88868904  0.93937828  0.32289648  1  -1.166018  0  -0.320004  -0.556159  0  2.317997  0
O  O83  1  0.05341905  0.93468657  0.61791862  1  -1.186345  0  -0.31801  -0.549751  0  2.322792  0
O  O84  1  0.88963678  0.94554130  0.62168074  1  -1.166569  0  -0.320135  -0.555918  0  2.322186  0
O  O85  1  0.17881867  0.06077933  0.44900195  1  -1.172864  0  -0.319484  -0.555513  0  2.313654  0
O  O86  1  0.05698570  0.23153004  0.61285638  1  -1.167273  0  -0.320991  -0.550813  0  2.304011  0
O  O87  1  0.88510683  0.76782383  0.32433817  1  -1.181513  0  -0.319226  -0.555088  0  2.320835  0
O  O88  1  0.61649490  0.22917786  0.05008428  1  -1.171045  0  -0.317781  -0.553118  0  2.311363  0
O  O89  1  0.60623771  0.05129582  0.87085679  1  -1.157945  0  -0.330103  -0.564213  0  2.269484  0
O  O90  1  0.62015282  0.22814164  0.17321602  1  -1.146459  0  -0.322643  -0.553849  0  2.294981  0
O  O91  1  0.44186930  0.76872276  0.88711778  1  -1.169384  0  -0.319067  -0.553656  0  2.326582  0
O  O92  1  0.60328761  0.04963430  0.17459219  1  -1.160225  0  -0.320691  -0.550588  0  2.291559  0
O  O93  1  0.32182686  0.93892472  0.87707712  1  -1.163301  0  -0.321761  -0.553912  0  2.318191  0
O  O94  1  0.61579873  0.93932462  0.05190640  1  -1.16022  0  -0.31881  -0.552709  0  2.32122  0
O  O95  1  0.44373683  0.06567441  0.88294165  1  -1.161722  0  -0.316738  -0.548938  0  2.318071  0
O  O96  1  0.74094996  0.91826693  0.83794949  1  -1.055009  0  -0.17955  -0.145388  0  2.551334  0
O  O97  1  0.32035005  0.77140389  0.88752465  1  -1.178427  0  -0.319981  -0.548875  0  2.293299  0
O  O98  1  0.44463510  0.06651015  0.17619180  1  -1.158574  0  -0.319149  -0.553551  0  2.315729  0
O  O99  1  0.60748921  0.93285126  0.87934712  1  -1.16051  0  -0.319228  -0.551776  0  2.361167  0
O  O100  1  0.00279256  0.00006729  0.50251481  1  -1.227003  0  -0.571031  -1.02901  0  2.532315  0
O  O101  1  0.17956776  0.23136856  0.62030700  1  -1.163436  0  -0.320606  -0.557669  0  2.311841  0
O  O102  1  0.87998211  0.76912659  0.44832173  1  -1.144525  0  -0.32208  -0.552849  0  2.292271  0
O  O103  1  0.89285168  0.07129209  0.62306373  1  -1.144226  0  -0.318526  -0.546295  0  2.287896  0
