# generated using pymatgen
data_CdH8C4(NO2)4
_symmetry_space_group_name_H-M   'P 1'
_cell_length_a   7.48940382
_cell_length_b   8.77525287
_cell_length_c   8.77526212
_cell_angle_alpha   84.95664540
_cell_angle_beta   73.58262824
_cell_angle_gamma   73.58229589
_symmetry_Int_Tables_number   1
_chemical_formula_structural   CdH8C4(NO2)4
_chemical_formula_sum   'Cd2 H16 C8 N8 O16'
_cell_volume   530.63233056
_cell_formula_units_Z   2
loop_
 _symmetry_equiv_pos_site_id
 _symmetry_equiv_pos_as_xyz
  1  'x, y, z'
loop_
 _atom_site_type_symbol
 _atom_site_label
 _atom_site_symmetry_multiplicity
 _atom_site_fract_x
 _atom_site_fract_y
 _atom_site_fract_z
 _atom_site_occupancy
 _atom_site_hle17_bader_spin_density
 _atom_site_hle17_ddec_charge
 _atom_site_hle17_ddec_spin_density
 _atom_site_hle17_ddec_sum_bond_order
 _atom_site_hle17_magmom
 _atom_site_hse06_10hf_bader_spin_density
 _atom_site_hse06_10hf_ddec_charge
 _atom_site_hse06_10hf_ddec_spin_density
 _atom_site_hse06_10hf_ddec_sum_bond_order
 _atom_site_hse06_10hf_magmom
 _atom_site_hse06_bader_spin_density
 _atom_site_hse06_ddec_charge
 _atom_site_hse06_ddec_spin_density
 _atom_site_hse06_ddec_sum_bond_order
 _atom_site_hse06_magmom
 _atom_site_pbe_bader_spin_density
 _atom_site_pbe_cm5_charge
 _atom_site_pbe_ddec_charge
 _atom_site_pbe_ddec_spin_density
 _atom_site_pbe_ddec_sum_bond_order
 _atom_site_pbe_magmom
Cd  Cd0  1  0.49999914  0.50000029  0.50000112  1  0  1.158692  0  1.653246  0  0  0.969008  0  2.099631  0  0  1.023486  0  2.045741  0  0  0.784639  0.930052  0  2.136765  0
Cd  Cd1  1  0.00000034  0.99999938  0.00000071  1  0  1.158749  0  1.653193  0  0  0.969043  0  2.099572  0  0  1.02352  0  2.045685  0  0  0.784674  0.930087  0  2.136706  0
H  H2  1  0.31278698  0.50523983  0.24733904  1  0  0.427416  0  0.870618  0  0  0.390783  0  0.943376  0  0  0.402678  0  0.925888  0  0  0.289011  0.382366  0  0.95572  0
H  H3  1  0.18721689  0.25265856  0.99475808  1  0  0.427346  0  0.870706  0  0  0.390735  0  0.943432  0  0  0.402632  0  0.925942  0  0  0.28902  0.38232  0  0.955775  0
H  H4  1  0.68721219  0.49476192  0.75265943  1  0  0.427325  0  0.870725  0  0  0.390747  0  0.943421  0  0  0.402647  0  0.925925  0  0  0.28899  0.382331  0  0.955766  0
H  H5  1  0.81278231  0.74734320  0.00524153  1  0  0.427355  0  0.87069  0  0  0.390746  0  0.943414  0  0  0.402643  0  0.925924  0  0  0.289025  0.382329  0  0.95576  0
H  H6  1  0.48911104  0.58102503  0.18029372  1  0  0.419386  0  0.882796  0  0  0.38412  0  0.95342  0  0  0.395772  0  0.936432  0  0  0.288594  0.375841  0  0.965464  0
H  H7  1  0.01089292  0.31970211  0.91897255  1  0  0.419369  0  0.882809  0  0  0.384108  0  0.953421  0  0  0.395764  0  0.936426  0  0  0.288598  0.375829  0  0.965465  0
H  H8  1  0.51088898  0.41897436  0.81970592  1  0  0.419375  0  0.882811  0  0  0.38411  0  0.953432  0  0  0.395763  0  0.936443  0  0  0.288591  0.375831  0  0.965476  0
H  H9  1  0.98910848  0.68029729  0.08102674  1  0  0.419372  0  0.882807  0  0  0.384115  0  0.953414  0  0  0.39577  0  0.936421  0  0  0.288595  0.375834  0  0.96546  0
H  H10  1  0.75000287  0.27627054  0.22373525  1  0  0.084659  0  0.933875  0  0  0.08908  0  1.002489  0  0  0.091005  0  0.999364  0  0  0.133215  0.087483  0  1.004981  0
H  H11  1  0.24999326  0.72373244  0.77627072  1  0  0.084644  0  0.933695  0  0  0.089064  0  1.002302  0  0  0.09099  0  0.999178  0  0  0.133177  0.087467  0  1.004793  0
H  H12  1  0.54995745  0.14997303  0.69551349  1  0  0.09479  0  0.944257  0  0  0.098748  0  1.013428  0  0  0.10137  0  1.010038  0  0  0.124226  0.096716  0  1.015969  0
H  H13  1  0.95003988  0.80449240  0.35002035  1  0  0.094674  0  0.944519  0  0  0.098679  0  1.013625  0  0  0.101298  0  1.010239  0  0  0.124226  0.096648  0  1.016165  0
H  H14  1  0.45004065  0.85002395  0.30448804  1  0  0.09474  0  0.944315  0  0  0.098756  0  1.013425  0  0  0.101381  0  1.01003  0  0  0.124219  0.096723  0  1.015966  0
H  H15  1  0.04996724  0.19551067  0.64997822  1  0  0.094677  0  0.944561  0  0  0.098689  0  1.013639  0  0  0.101309  0  1.010251  0  0  0.124227  0.096661  0  1.01618  0
H  H16  1  0.75000261  0.86560355  0.63439193  1  0  0.142481  0  0.94721  0  0  0.146602  0  1.010248  0  0  0.151181  0  1.007782  0  0  0.116422  0.143259  0  1.012299  0
H  H17  1  0.25000531  0.13439713  0.36560554  1  0  0.142473  0  0.947186  0  0  0.146607  0  1.010217  0  0  0.151188  0  1.007748  0  0  0.116438  0.143264  0  1.012276  0
C  C18  1  0.75000553  0.18445681  0.31554168  1  0  0.315146  0  3.69994  0  0  0.258647  0  3.967446  0  0  0.274513  0  3.982028  0  0  0.185761  0.248244  0  3.957446  0
C  C19  1  0.24999065  0.81554969  0.68445935  1  0  0.315073  0  3.700197  0  0  0.258587  0  3.967713  0  0  0.274452  0  3.982297  0  0  0.185673  0.248186  0  3.957706  0
C  C20  1  0.64045076  0.11340988  0.57656655  1  0  0.198173  0  3.628913  0  0  0.160728  0  3.883075  0  0  0.172657  0  3.899279  0  0  0.073885  0.153114  0  3.871979  0
C  C21  1  0.85956065  0.92342769  0.38657875  1  0  0.198268  0  3.628639  0  0  0.160801  0  3.882754  0  0  0.172737  0  3.89895  0  0  0.073877  0.153184  0  3.871659  0
C  C22  1  0.35954402  0.88659659  0.42343370  1  0  0.198158  0  3.628989  0  0  0.160691  0  3.88313  0  0  0.172621  0  3.899334  0  0  0.073823  0.153078  0  3.872032  0
C  C23  1  0.14044190  0.07657652  0.61342088  1  0  0.198241  0  3.628417  0  0  0.160764  0  3.882534  0  0  0.172701  0  3.898725  0  0  0.073843  0.153143  0  3.87145  0
C  C24  1  0.74999835  0.95734993  0.54265334  1  0  -0.156776  0  3.648118  0  0  -0.166388  0  3.898283  0  0  -0.179225  0  3.919973  0  0  -0.072968  -0.158337  0  3.883959  0
C  C25  1  0.25000993  0.04264604  0.45734909  1  0  -0.156739  0  3.648245  0  0  -0.166373  0  3.898424  0  0  -0.179212  0  3.920117  0  0  -0.072958  -0.158323  0  3.884102  0
N  N26  1  0.94795171  0.49819789  0.31947090  1  0  0.702432  0  4.147073  0  0  0.726564  0  4.450946  0  0  0.755666  0  4.456703  0  0  0.106249  0.706965  0  4.446577  0
N  N27  1  0.55204667  0.18052927  0.00179739  1  0  0.702528  0  4.146967  0  0  0.726649  0  4.45083  0  0  0.755762  0  4.456577  0  0  0.106252  0.707043  0  4.446471  0
N  N28  1  0.05204734  0.50180029  0.68052912  1  0  0.702485  0  4.147102  0  0  0.726581  0  4.451027  0  0  0.755692  0  4.456775  0  0  0.106196  0.706976  0  4.446666  0
N  N29  1  0.44795274  0.81946769  0.99820038  1  0  0.702478  0  4.147094  0  0  0.726557  0  4.451047  0  0  0.755662  0  4.456803  0  0  0.106176  0.706953  0  4.446681  0
N  N30  1  0.64206680  0.22681271  0.46280418  1  0  -0.376883  0  3.217655  0  0  -0.294337  0  3.48312  0  0  -0.319167  0  3.500149  0  0  -0.322532  -0.277669  0  3.471286  0
N  N31  1  0.85793022  0.03720742  0.27319066  1  0  -0.376867  0  3.217847  0  0  -0.294314  0  3.483301  0  0  -0.319143  0  3.500329  0  0  -0.322553  -0.277645  0  3.471463  0
N  N32  1  0.35793098  0.77318552  0.53720186  1  0  -0.376822  0  3.217506  0  0  -0.29431  0  3.482993  0  0  -0.319143  0  3.500025  0  0  -0.32245  -0.277639  0  3.471153  0
N  N33  1  0.14207170  0.96279085  0.72681317  1  0  -0.376777  0  3.217955  0  0  -0.294201  0  3.483366  0  0  -0.319029  0  3.500392  0  0  -0.322435  -0.277534  0  3.471531  0
O  O34  1  0.44619539  0.49662397  0.25231868  1  0  -0.836062  0  1.870271  0  0  -0.773692  0  2.072881  0  0  -0.796672  0  2.037058  0  0  -0.591589  -0.75727  0  2.097703  0
O  O35  1  0.05380829  0.24767649  0.00337181  1  0  -0.835975  0  1.870346  0  0  -0.773631  0  2.072918  0  0  -0.796614  0  2.037093  0  0  -0.591606  -0.757211  0  2.09774  0
O  O36  1  0.55380283  0.50337658  0.74768130  1  0  -0.835959  0  1.870373  0  0  -0.773657  0  2.072871  0  0  -0.796635  0  2.037036  0  0  -0.591566  -0.757234  0  2.097692  0
O  O37  1  0.94619134  0.75232409  0.99662895  1  0  -0.835993  0  1.870346  0  0  -0.773645  0  2.072901  0  0  -0.796631  0  2.037081  0  0  -0.591597  -0.757225  0  2.097724  0
O  O38  1  0.77277496  0.57672551  0.32912997  1  0  -0.498371  0  1.811181  0  0  -0.469631  0  2.049251  0  0  -0.489727  0  2.04064  0  0  -0.20229  -0.455483  0  2.054828  0
O  O39  1  0.72722487  0.17087191  0.92327866  1  0  -0.498464  0  1.811173  0  0  -0.469689  0  2.049207  0  0  -0.489796  0  2.040598  0  0  -0.202321  -0.455539  0  2.054789  0
O  O40  1  0.22722507  0.42327387  0.67086967  1  0  -0.498427  0  1.81118  0  0  -0.469665  0  2.049258  0  0  -0.48977  0  2.040646  0  0  -0.202291  -0.455514  0  2.054837  0
O  O41  1  0.27277479  0.82912869  0.07672323  1  0  -0.498429  0  1.811172  0  0  -0.469673  0  2.049281  0  0  -0.48977  0  2.040666  0  0  -0.202306  -0.455523  0  2.054858  0
O  O42  1  0.98830867  0.37614661  0.40027476  1  0  -0.424063  0  1.783301  0  0  -0.422563  0  2.003885  0  0  -0.435651  0  1.99925  0  0  -0.166752  -0.413347  0  2.006934  0
O  O43  1  0.51168592  0.09971665  0.12385009  1  0  -0.424136  0  1.783062  0  0  -0.422636  0  2.003642  0  0  -0.435731  0  1.999008  0  0  -0.16681  -0.413414  0  2.006689  0
O  O44  1  0.01169189  0.62385516  0.59972336  1  0  -0.424107  0  1.783174  0  0  -0.422595  0  2.003769  0  0  -0.435686  0  1.999133  0  0  -0.166757  -0.413376  0  2.006817  0
O  O45  1  0.48830727  0.90027777  0.87614384  1  0  -0.42411  0  1.783091  0  0  -0.422605  0  2.00369  0  0  -0.435694  0  1.999055  0  0  -0.166763  -0.413386  0  2.006736  0
O  O46  1  0.08028801  0.55157412  0.22285002  1  0  -0.478911  0  1.839376  0  0  -0.449213  0  2.047952  0  0  -0.467426  0  2.038806  0  0  -0.172319  -0.436602  0  2.054188  0
O  O47  1  0.41971344  0.27714742  0.94842503  1  0  -0.478888  0  1.83959  0  0  -0.44918  0  2.048146  0  0  -0.467392  0  2.038989  0  0  -0.172254  -0.436568  0  2.054383  0
O  O48  1  0.91971296  0.44842646  0.77714812  1  0  -0.47887  0  1.839544  0  0  -0.44917  0  2.048136  0  0  -0.46739  0  2.038985  0  0  -0.172264  -0.436558  0  2.054375  0
O  O49  1  0.58028875  0.72284958  0.05157203  1  0  -0.478873  0  1.839607  0  0  -0.449139  0  2.048178  0  0  -0.467356  0  2.039035  0  0  -0.172241  -0.436529  0  2.054415  0
