# generated using pymatgen
data_CuH17C17(NO3)2
_symmetry_space_group_name_H-M   'P 1'
_cell_length_a   8.35498364
_cell_length_b   8.90588352
_cell_length_c   11.73235993
_cell_angle_alpha   86.14778235
_cell_angle_beta   69.43473289
_cell_angle_gamma   87.13169014
_symmetry_Int_Tables_number   1
_chemical_formula_structural   CuH17C17(NO3)2
_chemical_formula_sum   'Cu2 H34 C34 N4 O12'
_cell_volume   815.18083861
_cell_formula_units_Z   2
loop_
 _symmetry_equiv_pos_site_id
 _symmetry_equiv_pos_as_xyz
  1  'x, y, z'
loop_
 _atom_site_type_symbol
 _atom_site_label
 _atom_site_symmetry_multiplicity
 _atom_site_fract_x
 _atom_site_fract_y
 _atom_site_fract_z
 _atom_site_occupancy
 _atom_site_hle17_ddec_charge
 _atom_site_hle17_ddec_spin_density
 _atom_site_hle17_ddec_sum_bond_order
 _atom_site_hle17_magmom
 _atom_site_hse06_10hf_ddec_charge
 _atom_site_hse06_10hf_ddec_spin_density
 _atom_site_hse06_10hf_ddec_sum_bond_order
 _atom_site_hse06_10hf_magmom
 _atom_site_hse06_ddec_charge
 _atom_site_hse06_ddec_spin_density
 _atom_site_hse06_ddec_sum_bond_order
 _atom_site_hse06_magmom
 _atom_site_pbe_cm5_charge
 _atom_site_pbe_ddec_charge
 _atom_site_pbe_ddec_spin_density
 _atom_site_pbe_ddec_sum_bond_order
 _atom_site_pbe_magmom
Cu  Cu0  1  0.00000554  0.50000116  0.99999902  1  1.006277  0.74829  1.595924  0.528  1.010861  0.832976  1.97193  0.653  1.100746  0.903715  1.904749  0.735  0.693641  0.943706  0.780659  2.033131  0.599
Cu  Cu1  1  0.50000391  0.50000020  0.99999986  1  0.872803  -0.725422  1.744382  -0.506  0.848224  -0.804714  2.123268  -0.62  0.937309  -0.880428  2.060418  -0.705  0.744017  0.79466  -0.748975  2.167185  -0.563
H  H2  1  0.35927835  0.71247350  0.19431168  1  0.09146  -0.000902  0.952208  -0.002  0.099248  -0.000704  1.015044  -0.002  0.101944  -0.000489  1.011529  -0.001  0.1231  0.097098  -0.000839  1.0176  -0.002
H  H3  1  0.64071483  0.28752658  0.80568549  1  0.091466  -0.000904  0.952109  -0.002  0.099273  -0.000704  1.01494  -0.002  0.101972  -0.000489  1.011421  -0.001  0.123077  0.097126  -0.000839  1.017503  -0.002
H  H4  1  0.72892832  0.34553167  0.08654919  1  0.409231  1.4e-05  0.911489  -0.001  0.376602  0.000486  0.981318  0.0  0.389817  0.000363  0.962437  0.0  0.28399  0.367303  0.000561  0.994548  0.0
H  H5  1  0.27107636  0.65447062  0.91344919  1  0.409336  1.4e-05  0.911338  -0.001  0.376701  0.000486  0.981186  0.0  0.389921  0.000363  0.962297  0.0  0.284026  0.36739  0.000561  0.994423  0.0
H  H6  1  0.84308943  0.28594553  0.95311995  1  0.436922  -7e-06  0.865806  -0.001  0.409689  0.000449  0.92483  0.0  0.422397  0.000284  0.906671  0.0  0.294473  0.40098  0.000551  0.937171  0.001
H  H7  1  0.15691413  0.71405225  0.04688064  1  0.436956  -7e-06  0.865788  -0.001  0.409779  0.000449  0.924741  0.0  0.422488  0.000284  0.90658  0.0  0.29448  0.401067  0.000551  0.937086  0.001
H  H8  1  0.02200145  0.79663900  0.80934560  1  0.302997  4.1e-05  0.948558  0.0  0.284006  1.1e-05  1.014995  0.0  0.291433  -4e-06  1.009678  0.0  0.304091  0.278714  -2e-06  1.018579  0.0
H  H9  1  0.97799690  0.20336104  0.19065450  1  0.302921  4.1e-05  0.948612  0.0  0.283961  1.1e-05  1.014978  0.0  0.291384  -4e-06  1.009668  0.0  0.304092  0.27867  -2e-06  1.01856  0.0
H  H10  1  0.43088846  0.96572452  0.24229189  1  0.10535  -0.000565  0.936544  0.0  0.117974  -0.000559  0.990245  0.0  0.121215  -0.0004  0.989675  0.0  0.111787  0.115586  -0.000598  0.990903  -0.001
H  H11  1  0.56909556  0.03428122  0.75770480  1  0.105328  -0.000566  0.936736  0.0  0.117979  -0.000559  0.990394  -0.001  0.121222  -0.0004  0.98982  0.0  0.111756  0.115594  -0.000598  0.991059  -0.001
H  H12  1  0.68447859  0.09579810  0.09405858  1  0.107942  -0.000279  0.967578  -0.001  0.116224  2.1e-05  1.031785  0.0  0.119339  5.3e-05  1.028826  0.0  0.113619  0.113804  -4.3e-05  1.03438  0.0
H  H13  1  0.31550814  0.90420423  0.90594098  1  0.10804  -0.000282  0.967489  -0.001  0.116336  2.1e-05  1.031628  0.0  0.119453  5.3e-05  1.028667  0.0  0.113626  0.113914  -4.3e-05  1.034228  0.0
H  H14  1  0.77261541  0.71053793  0.87172071  1  0.106247  -0.00088  0.979657  -0.002  0.110353  -0.000763  1.049593  -0.001  0.113486  -0.000556  1.046107  -0.001  0.124531  0.107978  -0.000879  1.052141  -0.002
H  H15  1  0.22739203  0.28945982  0.12828315  1  0.106261  -0.000879  0.979756  -0.002  0.110363  -0.000763  1.049671  -0.001  0.113494  -0.000556  1.046185  -0.001  0.124523  0.107991  -0.000879  1.052205  -0.002
H  H16  1  0.28838370  0.92951443  0.71603994  1  0.061758  -1e-06  0.956399  0.0  0.07652  -5e-06  1.024057  0.0  0.0769  -3e-06  1.023337  0.0  0.100448  0.076144  -5e-06  1.024623  0.0
H  H17  1  0.71161350  0.07048223  0.28396232  1  0.061706  2e-06  0.956381  0.0  0.076474  -5e-06  1.024062  0.0  0.07685  -3e-06  1.02334  0.0  0.100448  0.076096  -5e-06  1.024629  0.0
H  H18  1  0.16544420  0.10102471  0.72463299  1  0.072549  1.7e-05  0.95211  0.0  0.085027  3.4e-05  1.020147  0.0  0.086284  2.1e-05  1.019565  0.0  0.105408  0.083557  3.6e-05  1.021412  0.0
H  H19  1  0.83455305  0.89896971  0.27536767  1  0.072514  1.3e-05  0.952099  0.0  0.085005  3.4e-05  1.020153  0.0  0.08626  2.1e-05  1.019566  0.0  0.105396  0.08353  3.6e-05  1.021417  0.0
H  H20  1  0.27732125  0.01202437  0.51479324  1  0.059376  3e-06  0.940242  0.0  0.079248  -8e-06  1.000491  0.0  0.079389  -4e-06  1.001634  0.0  0.086828  0.079609  -1e-05  0.998968  0.0
H  H21  1  0.72267730  0.98797003  0.48520879  1  0.05941  2e-06  0.940137  0.0  0.079235  -8e-06  1.000422  0.0  0.079375  -4e-06  1.001566  0.0  0.086819  0.079593  -1.1e-05  0.998907  0.0
H  H22  1  0.18273745  0.83523693  0.56576841  1  0.06346  -1.9e-05  0.957941  0.0  0.080773  -7e-06  1.023264  0.0  0.081149  -5e-06  1.024117  0.0  0.087593  0.080741  -7e-06  1.022148  0.0
H  H23  1  0.81725839  0.16476199  0.43423325  1  0.063458  -1.2e-05  0.957944  0.0  0.080759  -7e-06  1.023255  0.0  0.081132  -5e-06  1.024112  0.0  0.08761  0.080726  -7e-06  1.022141  0.0
H  H24  1  0.98949955  0.13928358  0.57374585  1  0.062962  -4e-06  0.925625  0.0  0.085292  -6e-06  0.979885  0.0  0.085165  -4e-06  0.981773  0.0  0.088319  0.085348  -4e-06  0.978278  0.0
H  H25  1  0.01050137  0.86071646  0.42625445  1  0.062985  -5e-06  0.925643  0.0  0.085306  -6e-06  0.979904  0.0  0.085179  -4e-06  0.981795  0.0  0.088309  0.085359  -4e-06  0.978297  0.0
H  H26  1  0.89061829  0.96673247  0.63403910  1  0.0546  -1.4e-05  0.937777  0.0  0.074241  -2.6e-05  0.996681  0.0  0.07461  -1.5e-05  0.997365  0.0  0.083951  0.073607  -2.1e-05  0.996642  0.0
H  H27  1  0.10938258  0.03326871  0.36596031  1  0.054681  -1.4e-05  0.937796  0.0  0.074314  -2.6e-05  0.996687  0.0  0.074696  -1.5e-05  0.997359  0.0  0.083969  0.073678  -2.1e-05  0.996644  0.0
H  H28  1  0.19903068  0.57115025  0.35033077  1  0.103928  -0.00016  0.950243  0.0  0.114113  -9e-05  1.009728  0.0  0.117333  -5.4e-05  1.0077  0.0  0.106027  0.111815  -0.00013  1.011289  0.0
H  H29  1  0.80096644  0.42884867  0.64967055  1  0.103906  -0.000162  0.950307  0.0  0.114088  -9e-05  1.009797  0.0  0.117306  -5.4e-05  1.007771  0.0  0.106021  0.111791  -0.00013  1.011362  0.0
H  H30  1  0.05722676  0.62154762  0.57095079  1  0.098413  2.6e-05  0.966213  0.0  0.106967  -6e-06  1.029041  0.0  0.110216  -1e-06  1.027331  0.0  0.103728  0.10505  -6e-06  1.029278  0.0
H  H31  1  0.94277415  0.37845242  0.42904866  1  0.098439  2.7e-05  0.966244  0.0  0.106985  -6e-06  1.029066  0.0  0.110234  -0.0  1.027356  0.0  0.103738  0.10507  -6e-06  1.029297  0.0
H  H32  1  0.38181674  0.28504450  0.66449199  1  0.09393  0.000191  0.957483  0.0  0.103385  0.000184  1.02092  0.0  0.106033  0.000128  1.020275  0.0  0.101495  0.101206  0.000239  1.022014  0.0
H  H33  1  0.61818169  0.71495330  0.33550820  1  0.09395  0.000194  0.957428  0.0  0.103404  0.000184  1.020869  0.0  0.106054  0.000128  1.020225  0.0  0.10151  0.10122  0.000239  1.02196  0.0
H  H34  1  0.52998975  0.23903841  0.44290896  1  0.094437  1.9e-05  0.96488  0.0  0.102794  1.6e-05  1.031922  0.0  0.105965  1e-05  1.030274  0.0  0.102406  0.100558  2.4e-05  1.032814  0.0
H  H35  1  0.47002251  0.76096614  0.55708652  1  0.094472  2e-05  0.964796  0.0  0.102835  1.6e-05  1.031829  0.0  0.10601  1e-05  1.030173  0.0  0.102426  0.100601  2.4e-05  1.032725  0.0
C  C36  1  0.46958369  0.77282856  0.13385081  1  0.147282  0.006672  3.665066  0.007  0.113584  0.000825  3.922477  0.001  0.126114  0.001904  3.937192  0.003  0.056068  0.105615  -7.3e-05  3.912871  0.0
C  C37  1  0.53040416  0.22717939  0.86614905  1  0.14745  0.006677  3.665073  0.007  0.11371  0.000826  3.922505  0.001  0.126235  0.001904  3.937227  0.003  0.056146  0.105739  -7.2e-05  3.91291  0.0
C  C38  1  0.51095062  0.91296863  0.15935584  1  -0.120877  -0.00984  3.733428  -0.01  -0.129741  -0.003912  3.986338  -0.005  -0.138564  -0.003589  4.00561  -0.004  -0.078946  -0.124068  -0.00415  3.973494  -0.005
C  C39  1  0.48903710  0.08704050  0.84063718  1  -0.120931  -0.00984  3.733686  -0.01  -0.129812  -0.003912  3.986613  -0.005  -0.138633  -0.003588  4.005884  -0.004  -0.078886  -0.124139  -0.00415  3.973784  -0.005
C  C40  1  0.65266922  0.98456297  0.07709648  1  0.003413  0.00858  3.67426  0.008  -0.028604  0.002805  3.921049  0.003  -0.020929  0.003021  3.936953  0.003  -0.055238  -0.034082  0.002667  3.911209  0.003
C  C41  1  0.34732513  0.01544050  0.92289938  1  0.003257  0.00858  3.674383  0.008  -0.028764  0.002804  3.921251  0.003  -0.02109  0.003021  3.93715  0.003  -0.055282  -0.034235  0.002667  3.911405  0.003
C  C42  1  0.75217840  0.91298439  0.97185231  1  -0.09663  -0.009148  3.738309  -0.01  -0.068867  -0.003738  3.973712  -0.004  -0.081324  -0.003445  3.997017  -0.004  -0.003964  -0.061051  -0.003861  3.958156  -0.005
C  C43  1  0.24781212  0.08701797  0.02814287  1  -0.09643  -0.009135  3.738243  -0.01  -0.068699  -0.003736  3.973642  -0.004  -0.081153  -0.003445  3.996946  -0.004  -0.003911  -0.060875  -0.003861  3.958078  -0.005
C  C44  1  0.70242749  0.77218148  0.95226505  1  0.109634  0.006719  3.63462  0.007  0.065992  0.000563  3.894049  0.002  0.0768  0.001667  3.910418  0.003  0.055303  0.059602  -0.000237  3.883414  0.001
C  C45  1  0.29756965  0.22781743  0.04773798  1  0.109431  0.006712  3.634751  0.007  0.06584  0.000562  3.894106  0.002  0.07665  0.001666  3.910475  0.003  0.055243  0.059428  -0.000238  3.883516  0.001
C  C46  1  0.89942500  0.99500357  0.88074818  1  0.538771  -0.000576  3.862597  0.0  0.484827  -0.000553  4.153636  -0.001  0.514513  -0.000379  4.155483  0.0  0.242275  0.465218  -0.000643  4.151279  -0.001
C  C47  1  0.10057056  0.00500547  0.11925563  1  0.538645  -0.000585  3.862616  0.0  0.484695  -0.000554  4.153662  -0.001  0.514377  -0.000379  4.155515  0.0  0.242225  0.465085  -0.000643  4.151292  -0.001
C  C48  1  0.16995517  0.98081614  0.70862714  1  0.04453  -1.3e-05  3.649918  0.0  -0.015927  -9e-06  3.912942  0.0  -0.010462  5e-06  3.923727  0.0  -0.06794  -0.019279  -1.2e-05  3.906017  0.0
C  C49  1  0.83003956  0.01917826  0.29137757  1  0.044671  -1.1e-05  3.649778  0.0  -0.015877  -9e-06  3.912834  0.0  -0.010401  5e-06  3.923601  0.0  -0.067991  -0.019231  -1.2e-05  3.905901  0.0
C  C50  1  0.16548348  0.95639414  0.58193203  1  -0.130243  -7.1e-05  3.691049  0.0  -0.169438  -3.7e-05  3.951495  0.0  -0.171163  -3e-05  3.965938  0.0  -0.165935  -0.169086  -2.8e-05  3.941815  0.0
C  C51  1  0.83451495  0.04360365  0.41806901  1  -0.130231  -8e-05  3.690821  0.0  -0.169323  -3.7e-05  3.951183  0.0  -0.171052  -3e-05  3.965623  0.0  -0.165895  -0.168973  -2.8e-05  3.941502  0.0
C  C52  1  0.00244506  0.01676902  0.56235305  1  -0.098765  -6e-06  3.697225  0.0  -0.13583  -2.7e-05  3.956802  0.0  -0.136585  -1.6e-05  3.972069  0.0  -0.167414  -0.135108  -2.1e-05  3.946834  0.0
C  C53  1  0.99755714  0.98323102  0.43764692  1  -0.099025  -8e-06  3.697303  0.0  -0.13606  -2.7e-05  3.956826  0.0  -0.136823  -1.6e-05  3.972091  0.0  -0.167469  -0.135339  -2.1e-05  3.946856  0.0
C  C54  1  0.46717387  0.38248959  0.24977594  1  0.64619  0.002618  3.867734  0.006  0.600517  -0.001226  4.1664  0.001  0.639028  -0.000629  4.157928  0.001  0.216557  0.57457  -0.001745  4.17141  0.001
C  C55  1  0.53282959  0.61751156  0.75022537  1  0.646089  0.002618  3.867933  0.006  0.600362  -0.001227  4.16668  0.001  0.638873  -0.000629  4.158209  0.001  0.216472  0.574418  -0.001745  4.171699  0.001
C  C56  1  0.37351965  0.40220897  0.38307341  1  -0.058758  -0.012412  3.752132  -0.013  -0.037545  -0.006368  3.9844  -0.007  -0.04504  -0.004743  4.00695  -0.005  -0.016455  -0.032497  -0.007606  3.969035  -0.008
C  C57  1  0.62648132  0.59778993  0.61692864  1  -0.05869  -0.012385  3.752115  -0.013  -0.037453  -0.006366  3.984386  -0.007  -0.044946  -0.004743  4.006936  -0.005  -0.016438  -0.032409  -0.007605  3.969032  -0.008
C  C58  1  0.24007330  0.51006440  0.41921029  1  -0.076547  0.003162  3.748759  0.003  -0.100302  0.000768  4.000036  0.001  -0.100643  0.00079  4.019995  0.001  -0.085169  -0.100412  0.000748  3.986682  0.001
C  C59  1  0.75993016  0.48993675  0.58079101  1  -0.076608  0.003141  3.748842  0.003  -0.100361  0.000766  4.000125  0.001  -0.1007  0.00079  4.020084  0.001  -0.085222  -0.100474  0.000748  3.986781  0.001
C  C60  1  0.16081389  0.53791912  0.54154610  1  -0.07902  -0.001564  3.762294  -0.001  -0.102822  9.8e-05  4.01473  0.0  -0.104435  -0.000209  4.035936  0.0  -0.084637  -0.101052  0.000311  3.998759  0.0
C  C61  1  0.83918345  0.46207303  0.45845634  1  -0.079079  -0.001537  3.762441  -0.001  -0.102859  9.9e-05  4.014897  0.0  -0.104476  -0.00021  4.036106  0.0  -0.084616  -0.101091  0.000311  3.998927  0.0
C  C62  1  0.21066947  0.45703431  0.63061130  1  -0.046666  0.009409  3.730207  0.01  -0.024868  0.004679  3.959844  0.005  -0.031488  0.003518  3.980848  0.004  -0.01177  -0.02083  0.005502  3.945722  0.006
C  C63  1  0.78933166  0.54295898  0.36938927  1  -0.046558  0.009383  3.73014  0.01  -0.024793  0.004678  3.95982  0.005  -0.031411  0.003518  3.980825  0.004  -0.011762  -0.020752  0.005502  3.945684  0.006
C  C64  1  0.34229081  0.34700933  0.59507745  1  -0.066606  -0.003141  3.721221  -0.003  -0.087591  -0.000628  3.969421  -0.001  -0.087861  -0.000653  3.989828  -0.001  -0.080654  -0.087187  -0.000643  3.955686  -0.001
C  C65  1  0.65771772  0.65299295  0.40492165  1  -0.06663  -0.003126  3.721082  -0.003  -0.087615  -0.000627  3.9693  -0.001  -0.087891  -0.000653  3.989712  -0.001  -0.080674  -0.087207  -0.000643  3.95555  -0.001
C  C66  1  0.42371853  0.32045528  0.47202519  1  -0.075473  0.001273  3.736904  0.001  -0.10001  -0.00052  3.989292  -0.001  -0.101506  -9.6e-05  4.011035  0.0  -0.08329  -0.098602  -0.000839  3.973449  -0.001
C  C67  1  0.57628378  0.67954138  0.52797576  1  -0.075518  0.001246  3.736827  0.001  -0.100061  -0.000521  3.989207  -0.001  -0.101556  -9.6e-05  4.010948  0.0  -0.083299  -0.098655  -0.000839  3.973368  -0.001
C  C68  1  0.12085518  0.49510793  0.76056769  1  0.642179  -0.005355  3.886474  -0.009  0.599202  -0.000939  4.182487  -0.004  0.636565  -0.001247  4.175622  -0.003  0.203646  0.573443  -0.000634  4.186275  -0.004
C  C69  1  0.87915485  0.50488758  0.23943219  1  0.642214  -0.005349  3.886476  -0.009  0.599218  -0.000939  4.182522  -0.004  0.63658  -0.001248  4.175657  -0.003  0.203629  0.573455  -0.000634  4.1863  -0.004
N  N70  1  0.56360877  0.70452193  0.03168607  1  -0.286325  -0.079167  3.30644  -0.097  -0.235544  -0.054154  3.602998  -0.071  -0.266811  -0.04542  3.62365  -0.063  -0.3423  -0.217264  -0.059029  3.591394  -0.075
N  N71  1  0.43639093  0.29547697  0.96831630  1  -0.286349  -0.079158  3.306616  -0.097  -0.235545  -0.05415  3.603144  -0.071  -0.266811  -0.045415  3.623796  -0.063  -0.34228  -0.217256  -0.059022  3.591531  -0.075
N  N72  1  0.02701719  0.91252815  0.80592293  1  -0.414897  -0.000531  3.302173  -0.001  -0.350587  -0.000177  3.546152  0.0  -0.373947  -0.000203  3.557759  0.0  -0.412928  -0.33455  -1.8e-05  3.5377  0.0
N  N73  1  0.97297752  0.08746516  0.19407672  1  -0.414806  -0.000525  3.302389  -0.001  -0.350414  -0.000176  3.546305  0.0  -0.373769  -0.000204  3.557903  0.0  -0.41287  -0.334381  -1.8e-05  3.537843  0.0
O  O74  1  0.40301000  0.45800448  0.17788234  1  -0.595271  -0.092833  2.12688  -0.121  -0.56714  -0.058896  2.41705  -0.084  -0.61096  -0.045223  2.409325  -0.068  -0.3175  -0.537978  -0.06812  2.422127  -0.094
O  O75  1  0.59699471  0.54199780  0.82211859  1  -0.595254  -0.092827  2.126901  -0.121  -0.567062  -0.058895  2.417046  -0.084  -0.610881  -0.045223  2.409323  -0.068  -0.317474  -0.537904  -0.068114  2.422133  -0.094
O  O76  1  0.80694437  0.37884910  0.00093319  1  -0.849641  0.061639  1.999423  0.078  -0.825423  0.046003  2.244184  0.063  -0.85812  0.037104  2.201414  0.053  -0.582483  -0.801649  0.051176  2.27476  0.068
O  O77  1  0.19306291  0.62115207  0.99906543  1  -0.849773  0.061651  1.999385  0.078  -0.825608  0.046013  2.24404  0.063  -0.85831  0.037112  2.201257  0.053  -0.582542  -0.801818  0.051188  2.274655  0.068
O  O78  1  0.60049586  0.29883672  0.21693788  1  -0.602712  0.001102  1.999869  0.001  -0.549016  0.000652  2.223213  0.001  -0.575275  0.000816  2.213995  0.001  -0.307514  -0.531062  0.000643  2.229036  0.0
O  O79  1  0.39950752  0.70116558  0.78305998  1  -0.60273  0.001105  2.000014  0.001  -0.548976  0.000652  2.223314  0.001  -0.575256  0.000816  2.214133  0.001  -0.30744  -0.531013  0.000644  2.229138  0.0
O  O80  1  0.15192521  0.41213637  0.84512007  1  -0.581751  0.105471  1.984504  0.135  -0.559783  0.062482  2.25736  0.089  -0.603258  0.047619  2.252737  0.072  -0.324606  -0.529068  0.071885  2.260415  0.098
O  O81  1  0.84809337  0.58787265  0.15487871  1  -0.581667  0.105522  1.984369  0.135  -0.559802  0.062492  2.257151  0.089  -0.60328  0.047625  2.252531  0.072  -0.324606  -0.529088  0.071904  2.2602  0.098
O  O82  1  0.01706640  0.60657889  0.78259612  1  -0.636624  -0.000257  2.014107  0.001  -0.597889  -0.000983  2.2595  0.0  -0.62348  -0.001562  2.248215  -0.001  -0.322466  -0.579459  -0.000247  2.26655  0.001
O  O83  1  0.98293706  0.39342116  0.21740268  1  -0.636629  -0.000258  2.014325  0.001  -0.597893  -0.000985  2.259772  0.0  -0.623482  -0.001562  2.248484  -0.001  -0.322457  -0.579467  -0.000248  2.266819  0.001
O  O84  1  0.89905157  0.13632240  0.87560619  1  -0.58026  -0.000687  1.992301  -0.001  -0.529162  0.000121  2.21895  0.0  -0.552831  2.2e-05  2.212145  0.0  -0.303258  -0.512407  0.000242  2.222832  0.001
O  O85  1  0.10095607  0.86366861  0.12439623  1  -0.580251  -0.000686  1.991972  -0.001  -0.529219  0.000121  2.218631  0.0  -0.552892  2.3e-05  2.21183  0.0  -0.303257  -0.512458  0.000242  2.222496  0.001
