# generated using pymatgen
data_CuH9C14NO4
_symmetry_space_group_name_H-M   'P 1'
_cell_length_a   10.91333156
_cell_length_b   10.92063347
_cell_length_c   16.30045872
_cell_angle_alpha   89.94509914
_cell_angle_beta   97.42595088
_cell_angle_gamma   91.06674404
_symmetry_Int_Tables_number   1
_chemical_formula_structural   CuH9C14NO4
_chemical_formula_sum   'Cu4 H36 C56 N4 O16'
_cell_volume   1926.06686462
_cell_formula_units_Z   4
loop_
 _symmetry_equiv_pos_site_id
 _symmetry_equiv_pos_as_xyz
  1  'x, y, z'
loop_
 _atom_site_type_symbol
 _atom_site_label
 _atom_site_symmetry_multiplicity
 _atom_site_fract_x
 _atom_site_fract_y
 _atom_site_fract_z
 _atom_site_occupancy
 _atom_site_pbe_bader_charge
 _atom_site_pbe_bader_spin_density
 _atom_site_pbe_cm5_charge
 _atom_site_pbe_ddec_charge
 _atom_site_pbe_ddec_spin_density
 _atom_site_pbe_ddec_sum_bond_order
 _atom_site_pbe_magmom
Cu  Cu0  1  0.31621041  0.83973227  0.77563125  1  1.08722  0.556385  0.684439  0.767275  0.711869  2.402388  0.554
Cu  Cu1  1  0.28386436  0.83949267  0.61435392  1  1.088612  -0.557537  0.688203  0.769562  -0.71272  2.400249  -0.555
Cu  Cu2  1  0.68379006  0.16026866  0.22436984  1  1.087343  0.55639  0.684449  0.767298  0.711876  2.402362  0.554
Cu  Cu3  1  0.71613424  0.16050734  0.38564579  1  1.088559  -0.557531  0.688179  0.769531  -0.712715  2.40032  -0.555
H  H4  1  0.51488871  0.88305448  0.92850871  1  0.114573  -5.8e-05  0.115971  0.087068  -3.8e-05  0.997486  0.0
H  H5  1  0.52854661  0.88677106  0.08356153  1  0.08471  1.3e-05  0.109095  0.119664  2.9e-05  1.014722  0.0
H  H6  1  0.14995121  0.75286952  0.05593350  1  0.055151  -2.9e-05  0.107622  0.112032  -1.3e-05  1.000947  0.0
H  H7  1  0.15240978  0.75926189  0.90330559  1  0.105735  -7.1e-05  0.117209  0.09445  -4.2e-05  0.995103  0.0
H  H8  1  0.65712849  0.83943374  0.56299697  1  0.05857  -8.1e-05  0.10578  0.107544  -0.000128  1.015951  0.0
H  H9  1  0.88594809  0.83611149  0.56056657  1  0.093426  -0.000138  0.106915  0.11104  -0.000179  1.00401  0.0
H  H10  1  0.71381257  0.84657679  0.82858733  1  0.081069  0.000144  0.103991  0.10849  0.000183  1.001796  0.0
H  H11  1  0.94326782  0.84491900  0.82626952  1  0.084447  0.000104  0.10358  0.107274  0.000149  1.007662  0.0
H  H12  1  0.27304362  0.22116991  0.56487649  1  0.094747  -8.8e-05  0.104396  0.109503  -0.000129  1.020935  0.0
H  H13  1  0.15574375  0.80789448  0.18436622  1  0.068238  -2e-06  0.104707  0.099411  -3e-06  1.000931  0.0
H  H14  1  0.31936075  0.45874152  0.82751415  1  0.105174  0.000137  0.107856  0.116825  0.00018  0.992198  0.0
H  H15  1  0.31737476  0.22888256  0.83049537  1  0.076643  0.000128  0.102244  0.105839  0.000166  1.013288  0.0
H  H16  1  0.45833122  0.84286720  0.33352331  1  0.066945  3.6e-05  0.104611  0.111003  1.7e-05  1.027839  0.0
H  H17  1  0.43845287  0.85003335  0.20545918  1  0.052549  -6e-06  0.104976  0.10749  6e-06  1.018204  0.0
H  H18  1  0.27457377  0.45117212  0.56185030  1  0.119158  -0.000156  0.111575  0.12137  -0.000189  0.984948  0.0
H  H19  1  0.07624705  0.83041665  0.46304109  1  0.10939  6.2e-05  0.119457  0.093548  3.2e-05  0.987571  0.0
H  H20  1  0.05849433  0.81957284  0.30856434  1  0.062477  2.8e-05  0.108536  0.115024  1.1e-05  0.990814  0.0
H  H21  1  0.45731959  0.85448063  0.48511360  1  0.108808  5.6e-05  0.116477  0.091666  2.5e-05  1.014893  0.0
H  H22  1  0.48510990  0.11694645  0.07149039  1  0.114576  -5.8e-05  0.115987  0.087073  -3.8e-05  0.997492  0.0
H  H23  1  0.47145293  0.11322987  0.91643825  1  0.084452  1.3e-05  0.109095  0.119668  2.9e-05  1.014736  0.0
H  H24  1  0.85004830  0.24712959  0.94406566  1  0.055155  -2.9e-05  0.107606  0.112  -1.3e-05  1.000965  0.0
H  H25  1  0.84758974  0.24073813  0.09669419  1  0.105752  -7.1e-05  0.117215  0.094463  -4.2e-05  0.995098  0.0
H  H26  1  0.34287289  0.16056628  0.43700358  1  0.058551  -8.1e-05  0.105764  0.107531  -0.000128  1.015975  0.0
H  H27  1  0.11405236  0.16388853  0.43943391  1  0.093413  -0.000138  0.106907  0.111011  -0.00018  1.003996  0.0
H  H28  1  0.28618782  0.15341956  0.17141375  1  0.081073  0.000144  0.104007  0.108507  0.000183  1.001785  0.0
H  H29  1  0.05673258  0.15507827  0.17373094  1  0.084471  0.000104  0.103564  0.107255  0.000149  1.00757  0.0
H  H30  1  0.72695685  0.77883102  0.43512461  1  0.094735  -8.8e-05  0.104412  0.109522  -0.000129  1.020909  0.0
H  H31  1  0.84425491  0.19210920  0.81563289  1  0.068255  -2e-06  0.104732  0.099436  -3e-06  1.000923  0.0
H  H32  1  0.68064155  0.54125850  0.17248710  1  0.105198  0.000137  0.107857  0.116831  0.00018  0.992144  0.0
H  H33  1  0.68262573  0.77111928  0.16950572  1  0.076646  0.000128  0.102238  0.105832  0.000166  1.013287  0.0
H  H34  1  0.54166830  0.15713282  0.66647586  1  0.066901  3.6e-05  0.1046  0.110981  1.7e-05  1.027898  0.0
H  H35  1  0.56154576  0.14996851  0.79453992  1  0.052542  -6e-06  0.105002  0.107502  6e-06  1.018157  0.0
H  H36  1  0.72542761  0.54882790  0.43815025  1  0.119142  -0.000156  0.111563  0.121359  -0.000189  0.984963  0.0
H  H37  1  0.92375342  0.16958429  0.53695877  1  0.10938  6.2e-05  0.119444  0.093542  3.2e-05  0.987588  0.0
H  H38  1  0.94150521  0.18042809  0.69143545  1  0.062482  2.8e-05  0.108545  0.11508  1.1e-05  0.990857  0.0
H  H39  1  0.54268086  0.14551939  0.51488565  1  0.108806  5.7e-05  0.116476  0.091647  2.5e-05  1.0149  0.0
C  C40  1  0.43597493  0.85625167  0.95980204  1  0.509005  -0.000658  0.045915  0.097454  -0.000438  3.972767  0.0
C  C41  1  0.44335788  0.85729338  0.04563397  1  -0.092063  0.00034  -0.084452  -0.188924  0.000224  3.938321  0.0
C  C42  1  0.33904812  0.82361508  0.08363198  1  0.01322  -0.000579  0.005713  0.14829  -0.000367  4.036755  0.0
C  C43  1  0.23275980  0.78497634  0.03097879  1  -0.009886  0.000345  -0.085877  -0.182557  0.000229  3.949505  0.0
C  C44  1  0.23351796  0.78717588  0.94596728  1  0.465008  -0.000586  0.043454  0.09125  -0.000385  3.974077  0.0
C  C45  1  0.72047296  0.83963069  0.62034955  1  0.035108  0.001591  -0.081012  -0.09189  0.00106  3.963743  0.001
C  C46  1  0.67222064  0.84239928  0.69599334  1  -0.030213  1.9e-05  -0.010624  -0.01623  3.1e-05  3.949464  0.0
C  C47  1  0.84746589  0.83786569  0.61896543  1  -0.07005  0.001681  -0.080002  -0.091571  0.001081  3.966359  0.002
C  C48  1  0.29865100  0.60515319  0.69349303  1  1.486724  0.000249  0.212385  0.573358  0.000214  4.169871  0.0
C  C49  1  0.29729457  0.46780848  0.69462375  1  -0.022002  0.000121  -0.007311  -0.009154  4.4e-05  3.940902  0.0
C  C50  1  0.75260979  0.84410318  0.77033661  1  -0.076469  -0.001698  -0.084278  -0.094742  -0.001094  3.985861  -0.002
C  C51  1  0.92788182  0.83929175  0.69336609  1  -0.028917  -0.000172  -0.011999  -0.017618  -0.000127  3.956549  0.0
C  C52  1  0.87965246  0.84289657  0.76900535  1  0.012135  -0.00161  -0.086125  -0.100361  -0.001077  3.983456  -0.001
C  C53  1  0.06487132  0.83781099  0.69235802  1  1.555905  0.000313  0.213268  0.573105  0.000283  4.165418  0.001
C  C54  1  0.28315175  0.27427181  0.62191462  1  0.050875  0.001606  -0.083718  -0.098322  0.00109  3.975165  0.001
C  C55  1  0.29604892  0.21178643  0.69769893  1  -0.060263  -2.1e-05  -0.017914  -0.031758  -1.2e-05  3.979781  0.0
C  C56  1  0.24904276  0.82158698  0.21692606  1  0.027171  -0.000627  -0.077335  -0.113653  -0.000407  3.961641  0.0
C  C57  1  0.30922638  0.40556821  0.77046441  1  -0.043215  -0.001553  -0.083812  -0.095014  -0.001019  3.96892  -0.001
C  C58  1  0.29832636  0.07465521  0.69859413  1  1.508077  -0.000226  0.206575  0.561812  -0.000218  4.190046  0.0
C  C59  1  0.53535846  0.84366402  0.69742879  1  1.544911  -0.000319  0.214022  0.572254  -0.000338  4.170474  -0.001
C  C60  1  0.30851425  0.27825950  0.77199837  1  -0.034585  -0.001564  -0.087832  -0.105047  -0.001029  3.995089  -0.001
C  C61  1  0.37049256  0.84048401  0.35847180  1  0.050017  -0.000324  -0.080726  -0.166382  -0.000215  3.924806  0.0
C  C62  1  0.34594549  0.83121052  0.17320609  1  -0.051683  0.000634  -0.079099  -0.114783  0.000404  3.946067  0.0
C  C63  1  0.28393512  0.40156127  0.62027130  1  -0.022718  0.001608  -0.079301  -0.089863  0.001068  3.958369  0.002
C  C64  1  0.15833327  0.83326617  0.43119053  1  0.496234  0.000658  0.050604  0.101433  0.00044  3.961405  0.0
C  C65  1  0.14929136  0.82692837  0.34534484  1  0.024519  -0.000324  -0.080497  -0.176937  -0.00021  3.936774  0.0
C  C66  1  0.25729347  0.82995165  0.30660560  1  -0.100311  0.000593  0.00629  0.143124  0.000374  4.035893  0.0
C  C67  1  0.37106928  0.84662898  0.44333997  1  0.468621  0.000504  0.046176  0.099315  0.000335  3.953859  0.0
C  C68  1  0.56402276  0.14374927  0.04019697  1  0.508964  -0.000659  0.045908  0.097484  -0.000438  3.972689  0.0
C  C69  1  0.55664257  0.14270664  0.95436589  1  -0.091832  0.00034  -0.084489  -0.188985  0.000224  3.938421  0.0
C  C70  1  0.66094954  0.17638402  0.91636703  1  0.013231  -0.000579  0.005745  0.148283  -0.000367  4.036793  0.0
C  C71  1  0.76723971  0.21502277  0.96902099  1  -0.009817  0.000345  -0.085872  -0.182497  0.000229  3.949408  0.0
C  C72  1  0.76648063  0.21282322  0.05403243  1  0.464937  -0.000586  0.04343  0.091208  -0.000385  3.974015  0.0
C  C73  1  0.27952747  0.16036841  0.37965092  1  0.035078  0.001591  -0.08103  -0.091976  0.00106  3.963804  0.001
C  C74  1  0.32777979  0.15759890  0.30400836  1  -0.030226  1.9e-05  -0.01058  -0.016142  3.1e-05  3.949319  0.0
C  C75  1  0.15253549  0.16213432  0.38103574  1  -0.070035  0.001681  -0.079972  -0.091429  0.001081  3.966364  0.002
C  C76  1  0.70134947  0.39484774  0.30650684  1  1.486726  0.000249  0.212396  0.573418  0.000214  4.169878  0.0
C  C77  1  0.70270683  0.53219245  0.30537681  1  -0.021992  0.000121  -0.007286  -0.009208  4.4e-05  3.940928  0.0
C  C78  1  0.24739061  0.15589409  0.22966324  1  -0.07644  -0.001698  -0.084323  -0.09482  -0.001094  3.985815  -0.002
C  C79  1  0.07211862  0.16070735  0.30663438  1  -0.02893  -0.000171  -0.012009  -0.017754  -0.000127  3.956719  0.0
C  C80  1  0.12034795  0.15710069  0.23099634  1  0.012148  -0.00161  -0.086094  -0.100261  -0.001077  3.98338  -0.001
C  C81  1  0.93512913  0.16218902  0.30764246  1  1.555901  0.000313  0.213242  0.573082  0.000283  4.165489  0.001
C  C82  1  0.71684964  0.72572912  0.37808656  1  0.050855  0.001606  -0.083671  -0.098222  0.00109  3.974944  0.001
C  C83  1  0.70395062  0.78821450  0.30230147  1  -0.060268  -2.1e-05  -0.017991  -0.031969  -1.1e-05  3.979831  0.0
C  C84  1  0.75095588  0.17841486  0.78307365  1  0.027172  -0.000627  -0.077328  -0.113624  -0.000407  3.961712  0.0
C  C85  1  0.69077411  0.59443364  0.22953607  1  -0.043193  -0.001553  -0.083831  -0.095027  -0.001019  3.968775  -0.001
C  C86  1  0.70167317  0.92534481  0.30140627  1  1.508062  -0.000226  0.206564  0.56183  -0.000218  4.19001  0.0
C  C87  1  0.46464104  0.15633417  0.30257037  1  1.544906  -0.000319  0.214099  0.572372  -0.000338  4.170297  -0.001
C  C88  1  0.69148623  0.72174235  0.22800211  1  -0.034598  -0.001564  -0.087812  -0.104965  -0.001029  3.995092  -0.001
C  C89  1  0.62950606  0.15951693  0.64152729  1  0.05007  -0.000324  -0.080711  -0.16638  -0.000215  3.924877  0.0
C  C90  1  0.65405498  0.16879042  0.82679316  1  -0.051718  0.000634  -0.079116  -0.114787  0.000404  3.946103  0.0
C  C91  1  0.71606626  0.59843875  0.37972925  1  -0.022713  0.001608  -0.07931  -0.089857  0.001068  3.958418  0.002
C  C92  1  0.84166629  0.16673568  0.56880864  1  0.496259  0.000658  0.05062  0.101463  0.00044  3.961484  0.0
C  C93  1  0.85070820  0.17307348  0.65465557  1  0.024548  -0.000324  -0.080547  -0.177075  -0.00021  3.936868  0.0
C  C94  1  0.74270607  0.17004928  0.69339419  1  -0.100316  0.000593  0.006292  0.143129  0.000374  4.035908  0.0
C  C95  1  0.62893116  0.15337104  0.55665867  1  0.468805  0.000504  0.046234  0.099449  0.000335  3.953952  0.0
N  N96  1  0.26719433  0.84260337  0.47994986  1  -1.248166  0.00117  -0.334602  -0.241072  0.000423  3.497351  0.0
N  N97  1  0.33250139  0.82408740  0.91018929  1  -1.216354  -0.001466  -0.334585  -0.237475  -0.000634  3.496366  0.0
N  N98  1  0.73280519  0.15739665  0.52004992  1  -1.248403  0.00117  -0.334644  -0.241148  0.000423  3.497516  0.0
N  N99  1  0.66749814  0.17591261  0.08981111  1  -1.216368  -0.001467  -0.334565  -0.237463  -0.000634  3.496199  0.0
O  O100  1  0.10309964  0.83151870  0.62186560  1  -1.098188  -0.088153  -0.308251  -0.509517  -0.05705  2.355823  -0.08
O  O101  1  0.30844514  0.65815272  0.76376918  1  -1.10405  0.086989  -0.31507  -0.521504  0.056294  2.363805  0.078
O  O102  1  0.28990351  0.65677771  0.62297094  1  -1.099583  -0.087891  -0.310503  -0.510058  -0.056764  2.33763  -0.079
O  O103  1  0.32078208  0.02308206  0.76917694  1  -1.112551  0.082607  -0.318681  -0.526819  0.053504  2.354871  0.075
O  O104  1  0.13181143  0.84345748  0.76252665  1  -1.110432  0.083205  -0.313216  -0.526972  0.053981  2.38751  0.075
O  O105  1  0.27909709  0.02155588  0.62845061  1  -1.10972  -0.078707  -0.314186  -0.519968  -0.051099  2.361818  -0.071
O  O106  1  0.49733853  0.84101975  0.76820578  1  -1.105746  0.085915  -0.312421  -0.517091  0.055845  2.359271  0.078
O  O107  1  0.46810015  0.84720501  0.62747490  1  -1.117999  -0.082598  -0.308613  -0.522189  -0.053673  2.402164  -0.075
O  O108  1  0.89690172  0.16848040  0.37813495  1  -1.098167  -0.088152  -0.308223  -0.509509  -0.057049  2.355852  -0.08
O  O109  1  0.69155442  0.34184913  0.23623061  1  -1.104056  0.086987  -0.315056  -0.521517  0.056292  2.363809  0.078
O  O110  1  0.71009786  0.34322231  0.37702900  1  -1.099568  -0.087892  -0.310499  -0.510044  -0.056764  2.33762  -0.079
O  O111  1  0.67921837  0.97691796  0.23082292  1  -1.112548  0.08261  -0.318687  -0.526827  0.053505  2.354819  0.075
O  O112  1  0.86818995  0.15654254  0.23747329  1  -1.110415  0.083208  -0.313222  -0.526951  0.053983  2.387506  0.075
O  O113  1  0.72090245  0.97844506  0.37154918  1  -1.109722  -0.078707  -0.314187  -0.519958  -0.051099  2.361794  -0.071
O  O114  1  0.50266096  0.15897752  0.23179461  1  -1.105778  0.085909  -0.312503  -0.517169  0.055842  2.359252  0.078
O  O115  1  0.53190031  0.15279501  0.37252558  1  -1.117997  -0.082605  -0.308617  -0.522229  -0.053678  2.40211  -0.075
