# generated using pymatgen
data_NaH10C5ClO5
_symmetry_space_group_name_H-M   'P 1'
_cell_length_a   5.98245276
_cell_length_b   6.88571962
_cell_length_c   9.81677652
_cell_angle_alpha   106.81077260
_cell_angle_beta   89.99998798
_cell_angle_gamma   90.00014020
_symmetry_Int_Tables_number   1
_chemical_formula_structural   NaH10C5ClO5
_chemical_formula_sum   'Na2 H20 C10 Cl2 O10'
_cell_volume   387.10587192
_cell_formula_units_Z   2
loop_
 _symmetry_equiv_pos_site_id
 _symmetry_equiv_pos_as_xyz
  1  'x, y, z'
loop_
 _atom_site_type_symbol
 _atom_site_label
 _atom_site_symmetry_multiplicity
 _atom_site_fract_x
 _atom_site_fract_y
 _atom_site_fract_z
 _atom_site_occupancy
 _atom_site_hle17_bader_spin_density
 _atom_site_hle17_ddec_charge
 _atom_site_hle17_ddec_spin_density
 _atom_site_hle17_ddec_sum_bond_order
 _atom_site_hle17_magmom
 _atom_site_hse06_10hf_bader_spin_density
 _atom_site_hse06_10hf_ddec_charge
 _atom_site_hse06_10hf_ddec_spin_density
 _atom_site_hse06_10hf_ddec_sum_bond_order
 _atom_site_hse06_10hf_magmom
 _atom_site_hse06_bader_spin_density
 _atom_site_hse06_ddec_charge
 _atom_site_hse06_ddec_spin_density
 _atom_site_hse06_ddec_sum_bond_order
 _atom_site_hse06_magmom
 _atom_site_pbe_bader_spin_density
 _atom_site_pbe_cm5_charge
 _atom_site_pbe_ddec_charge
 _atom_site_pbe_ddec_spin_density
 _atom_site_pbe_ddec_sum_bond_order
 _atom_site_pbe_magmom
Na  Na0  1  0.20327610  0.07044951  0.92927152  1  0  0.896221  0  0.389019  0  0  0.8363  0  0.557417  0  0  0.848556  0  0.535229  0  0  0.637227  0.827367  0  0.573319  0
Na  Na1  1  0.70327468  0.92954866  0.07072852  1  0  0.896217  0  0.389029  0  0  0.836295  0  0.557435  0  0  0.848544  0  0.535246  0  0  0.637223  0.827358  0  0.573334  0
H  H2  1  0.59274945  0.71444973  0.29602094  1  0  0.350678  0  0.931212  0  0  0.320709  0  1.019754  0  0  0.330979  0  1.007693  0  0  0.270284  0.313403  0  1.02825  0
H  H3  1  0.09275487  0.28554970  0.70397936  1  0  0.350662  0  0.931235  0  0  0.320713  0  1.019741  0  0  0.330978  0  1.007681  0  0  0.270277  0.313408  0  1.028239  0
H  H4  1  0.34291951  0.03087543  0.48705393  1  0  0.033508  0  0.941952  0  0  0.038197  0  1.01192  0  0  0.039061  0  1.009945  0  0  0.113253  0.03747  0  1.013502  0
H  H5  1  0.84291805  0.96912761  0.51294606  1  0  0.033532  0  0.941969  0  0  0.038224  0  1.011931  0  0  0.039088  0  1.009957  0  0  0.113262  0.037496  0  1.013513  0
H  H6  1  0.27346403  0.70217298  0.09642665  1  0  0.373587  0  0.867674  0  0  0.349669  0  0.943144  0  0  0.35845  0  0.932883  0  0  0.3008  0.343452  0  0.950376  0
H  H7  1  0.77347064  0.29782687  0.90357474  1  0  0.373577  0  0.867727  0  0  0.349652  0  0.943205  0  0  0.358435  0  0.93294  0  0  0.300799  0.343437  0  0.950436  0
H  H8  1  0.09560907  0.85926966  0.28734864  1  0  0.062868  0  0.932909  0  0  0.06974  0  0.998262  0  0  0.07106  0  0.99725  0  0  0.105011  0.068726  0  0.999148  0
H  H9  1  0.59560863  0.14072978  0.71265269  1  0  0.06285  0  0.932949  0  0  0.069693  0  0.998336  0  0  0.071012  0  0.997324  0  0  0.10501  0.068679  0  0.999223  0
H  H10  1  0.95841161  0.28694584  0.16262944  1  0  0.355118  0  0.926694  0  0  0.331204  0  1.003319  0  0  0.340567  0  0.992746  0  0  0.272796  0.324571  0  1.010771  0
H  H11  1  0.45840981  0.71305292  0.83737069  1  0  0.355108  0  0.926698  0  0  0.331199  0  1.003312  0  0  0.340563  0  0.992738  0  0  0.272796  0.324568  0  1.010762  0
H  H12  1  0.08089014  0.22137333  0.37460014  1  0  0.057903  0  0.924345  0  0  0.067441  0  0.988417  0  0  0.067884  0  0.988498  0  0  0.111282  0.067071  0  0.988525  0
H  H13  1  0.58088980  0.77862759  0.62540047  1  0  0.057919  0  0.924353  0  0  0.06748  0  0.988394  0  0  0.067919  0  0.988477  0  0  0.111305  0.067107  0  0.988497  0
H  H14  1  0.55675371  0.34960231  0.11802607  1  0  0.352127  0  0.928026  0  0  0.328055  0  1.005408  0  0  0.337229  0  0.994932  0  0  0.274711  0.321446  0  1.013091  0
H  H15  1  0.05675339  0.65039551  0.88197188  1  0  0.352106  0  0.928051  0  0  0.328036  0  1.005436  0  0  0.337211  0  0.994956  0  0  0.274696  0.321427  0  1.013116  0
H  H16  1  0.29790682  0.45699991  0.28973145  1  0  0.047399  0  0.932205  0  0  0.05616  0  0.996905  0  0  0.057514  0  0.995589  0  0  0.102631  0.055123  0  0.998059  0
H  H17  1  0.79790413  0.54300151  0.71026720  1  0  0.047427  0  0.932222  0  0  0.056168  0  0.996937  0  0  0.05752  0  0.995625  0  0  0.102634  0.055132  0  0.998092  0
H  H18  1  0.67977181  0.37707961  0.37194083  1  0  0.078874  0  0.928741  0  0  0.09154  0  0.993147  0  0  0.092156  0  0.992681  0  0  0.106079  0.090855  0  0.993888  0
H  H19  1  0.17976815  0.62292001  0.62805746  1  0  0.078884  0  0.928695  0  0  0.091567  0  0.993101  0  0  0.092185  0  0.992634  0  0  0.106086  0.09088  0  0.993841  0
H  H20  1  0.45679966  0.35094659  0.48693703  1  0  0.061774  0  0.918762  0  0  0.074299  0  0.987256  0  0  0.075423  0  0.985895  0  0  0.100212  0.072681  0  0.989532  0
H  H21  1  0.95679398  0.64905672  0.51306299  1  0  0.061744  0  0.918767  0  0  0.074312  0  0.987244  0  0  0.075451  0  0.98587  0  0  0.100225  0.072693  0  0.98952  0
C  C22  1  0.41782820  0.96051673  0.38179594  1  0  0.34415  0  3.65892  0  0  0.298952  0  3.933098  0  0  0.312259  0  3.935038  0  0  0.071596  0.289775  0  3.931575  0
C  C23  1  0.91782584  0.03948345  0.61820244  1  0  0.344004  0  3.658973  0  0  0.298809  0  3.933162  0  0  0.312108  0  3.935099  0  0  0.071542  0.289634  0  3.931637  0
C  C24  1  0.23991455  0.94495318  0.26574146  1  0  0.098236  0  3.595686  0  0  0.069511  0  3.844813  0  0  0.073393  0  3.853312  0  0  -0.01523  0.0669  0  3.838941  0
C  C25  1  0.73991554  0.05504811  0.73425920  1  0  0.098317  0  3.595711  0  0  0.069615  0  3.844827  0  0  0.073503  0  3.853319  0  0  -0.015216  0.066998  0  3.838953  0
C  C26  1  0.16418033  0.15932904  0.27061885  1  0  0.147192  0  3.603156  0  0  0.122148  0  3.852535  0  0  0.126326  0  3.862862  0  0  -0.008637  0.11909  0  3.845772  0
C  C27  1  0.66418012  0.84067206  0.72938077  1  0  0.147133  0  3.60319  0  0  0.12207  0  3.852577  0  0  0.126248  0  3.862905  0  0  -0.008674  0.119033  0  3.845782  0
C  C28  1  0.35999652  0.30001944  0.26621201  1  0  0.146684  0  3.63972  0  0  0.121616  0  3.892875  0  0  0.125985  0  3.902761  0  0  -0.021045  0.118517  0  3.886088  0
C  C29  1  0.85999426  0.69998060  0.73378635  1  0  0.146634  0  3.639729  0  0  0.1216  0  3.892902  0  0  0.125973  0  3.90278  0  0  -0.021022  0.118496  0  3.886112  0
C  C30  1  0.53022098  0.28881005  0.37963668  1  0  0.027783  0  3.624566  0  0  -0.0341  0  3.897153  0  0  -0.027645  0  3.901681  0  0  -0.076078  -0.038153  0  3.894083  0
C  C31  1  0.03021590  0.71118922  0.62036156  1  0  0.027881  0  3.624336  0  0  -0.034084  0  3.89702  0  0  -0.027642  0  3.901543  0  0  -0.07609  -0.038143  0  3.89397  0
Cl  Cl32  1  0.33108540  0.44003901  0.85797504  1  0  -0.657304  0  0.809261  0  0  -0.602182  0  1.032016  0  0  -0.616037  0  1.010343  0  0  -0.27669  -0.591773  0  1.048197  0
Cl  Cl33  1  0.83108461  0.55995946  0.14202606  1  0  -0.65729  0  0.809254  0  0  -0.602175  0  1.032048  0  0  -0.616038  0  1.010372  0  0  -0.276692  -0.591765  0  1.048228  0
O  O34  1  0.50395148  0.77361923  0.38393122  1  0  -0.558284  0  2.097422  0  0  -0.517438  0  2.330602  0  0  -0.534303  0  2.318607  0  0  -0.395128  -0.505214  0  2.338506  0
O  O35  1  0.00395511  0.22638759  0.61607364  1  0  -0.558182  0  2.097382  0  0  -0.517344  0  2.330544  0  0  -0.534255  0  2.318658  0  0  -0.395083  -0.505122  0  2.338446  0
O  O36  1  0.33103258  0.84105052  0.12863832  1  0  -0.595748  0  2.117173  0  0  -0.549484  0  2.352201  0  0  -0.563667  0  2.339858  0  0  -0.447668  -0.539387  0  2.360402  0
O  O37  1  0.83103380  0.15894644  0.87136451  1  0  -0.595766  0  2.117153  0  0  -0.549489  0  2.352165  0  0  -0.56367  0  2.339816  0  0  -0.44768  -0.539393  0  2.36037  0
O  O38  1  0.00980050  0.14718894  0.15697354  1  0  -0.628055  0  2.13205  0  0  -0.584707  0  2.373284  0  0  -0.598495  0  2.359512  0  0  -0.50262  -0.574948  0  2.382638  0
O  O39  1  0.50979695  0.85281029  0.84302572  1  0  -0.628023  0  2.132014  0  0  -0.584673  0  2.373246  0  0  -0.598465  0  2.359476  0  0  -0.502623  -0.57492  0  2.382592  0
O  O40  1  0.45785097  0.23831064  0.12642291  1  0  -0.62709  0  2.126178  0  0  -0.583108  0  2.363833  0  0  -0.597143  0  2.350871  0  0  -0.480669  -0.572906  0  2.373363  0
O  O41  1  0.95785050  0.76168660  0.87357691  1  0  -0.627068  0  2.126135  0  0  -0.583089  0  2.363787  0  0  -0.59712  0  2.350817  0  0  -0.480655  -0.572886  0  2.373319  0
O  O42  1  0.60163958  0.08358906  0.35920580  1  0  -0.367646  0  2.202054  0  0  -0.304545  0  2.450985  0  0  -0.319548  0  2.448947  0  0  -0.242114  -0.294086  0  2.451989  0
O  O43  1  0.10163672  0.91641190  0.64079380  1  0  -0.367643  0  2.201936  0  0  -0.304555  0  2.450933  0  0  -0.319553  0  2.448906  0  0  -0.242125  -0.294097  0  2.451936  0
