# generated using pymatgen
data_H8PbC14SO6
_symmetry_space_group_name_H-M   'P 1'
_cell_length_a   5.78913512
_cell_length_b   13.43006794
_cell_length_c   19.19864768
_cell_angle_alpha   90.00001606
_cell_angle_beta   89.99996634
_cell_angle_gamma   89.99965962
_symmetry_Int_Tables_number   1
_chemical_formula_structural   H8PbC14SO6
_chemical_formula_sum   'H32 Pb4 C56 S4 O24'
_cell_volume   1492.66563648
_cell_formula_units_Z   4
loop_
 _symmetry_equiv_pos_site_id
 _symmetry_equiv_pos_as_xyz
  1  'x, y, z'
loop_
 _atom_site_type_symbol
 _atom_site_label
 _atom_site_symmetry_multiplicity
 _atom_site_fract_x
 _atom_site_fract_y
 _atom_site_fract_z
 _atom_site_occupancy
 _atom_site_pbe_bader_charge
 _atom_site_pbe_bader_spin_density
 _atom_site_pbe_cm5_charge
 _atom_site_pbe_ddec_charge
 _atom_site_pbe_ddec_spin_density
 _atom_site_pbe_ddec_sum_bond_order
 _atom_site_pbe_magmom
H  H0  1  0.56201683  0.00704073  0.94972364  1  0.094063  0  0.105654  0.107718  0  1.034378  0
H  H1  1  0.93798101  0.99294952  0.44972174  1  0.093956  0  0.105597  0.10767  0  1.034397  0
H  H2  1  0.43799901  0.50704689  0.05027592  1  0.093869  0  0.105633  0.107741  0  1.034286  0
H  H3  1  0.06198883  0.49297086  0.55028042  1  0.094425  0  0.105668  0.107796  0  1.034203  0
H  H4  1  0.43802610  0.99298040  0.05028633  1  0.094324  0  0.105622  0.107717  0  1.034205  0
H  H5  1  0.06200492  0.00703587  0.55028094  1  0.094637  0  0.105656  0.107762  0  1.034211  0
H  H6  1  0.56200247  0.49297051  0.94972051  1  0.09465  0  0.105657  0.107785  0  1.034308  0
H  H7  1  0.93797810  0.50702644  0.44972174  1  0.094625  0  0.105644  0.107737  0  1.03421  0
H  H8  1  0.73526505  0.86440962  0.01583129  1  0.115907  0  0.11008  0.116691  0  1.020337  0
H  H9  1  0.76474619  0.13558399  0.51582797  1  0.116141  0  0.110092  0.116652  0  1.020348  0
H  H10  1  0.26475873  0.36441303  0.98417035  1  0.116061  0  0.110107  0.116645  0  1.020398  0
H  H11  1  0.23524680  0.63559540  0.48417003  1  0.116043  0  0.110138  0.116753  0  1.02032  0
H  H12  1  0.26476752  0.13560109  0.98417295  1  0.115795  0  0.110143  0.116786  0  1.020413  0
H  H13  1  0.23526047  0.86440809  0.48417211  1  0.115921  0  0.110097  0.11675  0  1.020293  0
H  H14  1  0.73526175  0.63559395  0.01582973  1  0.115915  0  0.110106  0.116748  0  1.020325  0
H  H15  1  0.76470976  0.36440339  0.51583161  1  0.116054  0  0.110083  0.116709  0  1.020294  0
H  H16  1  0.30535675  0.85961223  0.87067849  1  0.09109  0  0.110067  0.116442  0  0.992784  0
H  H17  1  0.19463876  0.14037527  0.37068235  1  0.090819  0  0.110098  0.11643  0  0.992863  0
H  H18  1  0.69465156  0.35962522  0.12931741  1  0.090933  0  0.110123  0.116497  0  0.99293  0
H  H19  1  0.80533861  0.64038264  0.62932137  1  0.091196  0  0.110107  0.1165  0  0.992916  0
H  H20  1  0.69465855  0.14039252  0.12931898  1  0.091073  0  0.110089  0.116461  0  0.9929  0
H  H21  1  0.80535926  0.85961235  0.62932137  1  0.090963  0  0.110047  0.116404  0  0.992805  0
H  H22  1  0.30534991  0.64038028  0.87067902  1  0.091146  0  0.110079  0.116462  0  0.992895  0
H  H23  1  0.19463868  0.35960871  0.37067141  1  0.090926  0  0.110039  0.116388  0  0.992866  0
H  H24  1  0.12915450  0.00260183  0.80600051  1  0.107883  0  0.10764  0.114855  0  1.012206  0
H  H25  1  0.37083257  0.99738710  0.30600539  1  0.107905  0  0.107618  0.114789  0  1.012242  0
H  H26  1  0.87085105  0.50261093  0.19399644  1  0.107893  0  0.107642  0.114862  0  1.012158  0
H  H27  1  0.62911993  0.49740516  0.69400250  1  0.108023  0  0.107621  0.114838  0  1.012282  0
H  H28  1  0.87088153  0.99741483  0.19400269  1  0.108031  0  0.107588  0.114807  0  1.012261  0
H  H29  1  0.62914645  0.00259456  0.69400354  1  0.107877  0  0.107662  0.114899  0  1.012156  0
H  H30  1  0.12913143  0.49740200  0.80599895  1  0.107883  0  0.107635  0.114812  0  1.012255  0
H  H31  1  0.37086773  0.50258767  0.30599080  1  0.107928  0  0.107627  0.114882  0  1.012135  0
Pb  Pb32  1  0.73722966  0.24999900  0.68307048  1  1.490049  0  0.684897  1.232063  0  1.810907  0
Pb  Pb33  1  0.76277589  0.75000071  0.18307171  1  1.490031  0  0.684899  1.232047  0  1.810928  0
Pb  Pb34  1  0.26277181  0.74999607  0.31693064  1  1.49005  0  0.684915  1.232079  0  1.810948  0
Pb  Pb35  1  0.23722559  0.24999957  0.81692992  1  1.490053  0  0.684926  1.232094  0  1.810899  0
C  C36  1  0.72214379  0.09863499  0.83670734  1  1.596455  0  0.220227  0.601614  0  4.197065  0
C  C37  1  0.77785612  0.90135963  0.33670493  1  1.596486  0  0.220065  0.601314  0  4.197316  0
C  C38  1  0.27786535  0.59863785  0.16329274  1  1.596666  0  0.220156  0.60134  0  4.19735  0
C  C39  1  0.22212387  0.40136659  0.66329306  1  1.596332  0  0.220183  0.601354  0  4.197164  0
C  C40  1  0.27788359  0.90137348  0.16329690  1  1.595883  0  0.220208  0.601474  0  4.19716  0
C  C41  1  0.22214018  0.09863171  0.66329619  1  1.596402  0  0.220285  0.60171  0  4.197053  0
C  C42  1  0.72212749  0.40136838  0.83670525  1  1.596468  0  0.220219  0.601503  0  4.197037  0
C  C43  1  0.77785688  0.59862550  0.33670337  1  1.596062  0  0.220198  0.601521  0  4.196993  0
C  C44  1  0.83375352  0.01268224  0.87447510  1  -0.05717  0  -0.010263  -0.026889  0  3.935811  0
C  C45  1  0.66623764  0.98731316  0.37447686  1  -0.056637  0  -0.010231  -0.026681  0  3.935437  0
C  C46  1  0.16626223  0.51268828  0.12552498  1  -0.05698  0  -0.010223  -0.026693  0  3.935573  0
C  C47  1  0.33373057  0.48732582  0.62552425  1  -0.056791  0  -0.010172  -0.026778  0  3.935481  0
C  C48  1  0.16628078  0.98733666  0.12552654  1  -0.057478  0  -0.010238  -0.026866  0  3.935278  0
C  C49  1  0.33374311  0.01267744  0.62552842  1  -0.056948  0  -0.010322  -0.026995  0  3.935728  0
C  C50  1  0.83373752  0.48732913  0.87447614  1  -0.056849  0  -0.010244  -0.02698  0  3.935643  0
C  C51  1  0.66625364  0.51266701  0.37447114  1  -0.057463  0  -0.010234  -0.026724  0  3.935342  0
C  C52  1  0.72451159  0.97374006  0.93352144  1  -0.021271  0  -0.078562  -0.08204  0  3.94508  0
C  C53  1  0.77549148  0.02625315  0.43352217  1  -0.02124  0  -0.078449  -0.081928  0  3.945195  0
C  C54  1  0.27550175  0.47374344  0.06647967  1  -0.021309  0  -0.078521  -0.082083  0  3.9452  0
C  C55  1  0.22448604  0.52626912  0.56648103  1  -0.021877  0  -0.078552  -0.082068  0  3.945224  0
C  C56  1  0.27553134  0.02627884  0.06648332  1  -0.02139  0  -0.078578  -0.082056  0  3.945044  0
C  C57  1  0.22450309  0.97373372  0.56648259  1  -0.021863  0  -0.078556  -0.081978  0  3.944937  0
C  C58  1  0.72449109  0.52626876  0.93352041  1  -0.02199  0  -0.078574  -0.082103  0  3.945159  0
C  C59  1  0.77548435  0.47372595  0.43352060  1  -0.021559  0  -0.078577  -0.082144  0  3.944985  0
C  C60  1  0.82072345  0.89455497  0.96998807  1  0.085491  0  -0.077456  -0.075821  0  3.961492  0
C  C61  1  0.67928642  0.10543679  0.46998620  1  0.085181  0  -0.077558  -0.075969  0  3.961907  0
C  C62  1  0.17929120  0.39456001  0.03001304  1  0.085156  0  -0.077496  -0.075767  0  3.96187  0
C  C63  1  0.32069843  0.60544508  0.53001231  1  0.08497  0  -0.077643  -0.07601  0  3.961767  0
C  C64  1  0.17932121  0.10545425  0.03001669  1  0.085086  0  -0.077552  -0.075895  0  3.961942  0
C  C65  1  0.32071678  0.89455381  0.53001440  1  0.085442  0  -0.077461  -0.075969  0  3.961711  0
C  C66  1  0.82070510  0.60544549  0.96998651  1  0.085192  0  -0.077559  -0.07591  0  3.961654  0
C  C67  1  0.67926850  0.39454999  0.46998464  1  0.085246  0  -0.07741  -0.075847  0  3.961901  0
C  C68  1  0.02847767  0.85410326  0.94614372  1  -0.264503  0  -0.019288  -0.08219  0  3.979437  0
C  C69  1  0.47152625  0.14588578  0.44614286  1  -0.264208  0  -0.019242  -0.08197  0  3.979148  0
C  C70  1  0.97153937  0.35411115  0.05385531  1  -0.263682  0  -0.01927  -0.082046  0  3.979682  0
C  C71  1  0.52845967  0.64588919  0.55385617  1  -0.263926  0  -0.01927  -0.082018  0  3.978978  0
C  C72  1  0.97154453  0.14589627  0.05385584  1  -0.263472  0  -0.019264  -0.082096  0  3.979076  0
C  C73  1  0.52847350  0.85410482  0.55385721  1  -0.264349  0  -0.019303  -0.082162  0  3.979555  0
C  C74  1  0.02846729  0.64588838  0.94614372  1  -0.264246  0  -0.019295  -0.082083  0  3.979014  0
C  C75  1  0.47152108  0.35410141  0.44614286  1  -0.263812  0  -0.019281  -0.082004  0  3.979415  0
C  C76  1  0.14160488  0.89179243  0.88737551  1  -0.028175  0  -0.080933  -0.089809  0  3.97788  0
C  C77  1  0.35838367  0.10819880  0.38737623  1  -0.027915  0  -0.081053  -0.089959  0  3.977823  0
C  C78  1  0.85840463  0.39179837  0.11262300  1  -0.028006  0  -0.081061  -0.090063  0  3.978114  0
C  C79  1  0.64159769  0.60820798  0.61262645  1  -0.028221  0  -0.080965  -0.089958  0  3.977722  0
C  C80  1  0.85841214  0.10821529  0.11262665  1  -0.028579  0  -0.080946  -0.089924  0  3.97792  0
C  C81  1  0.64160745  0.89178734  0.61262437  1  -0.027957  0  -0.080877  -0.089743  0  3.97793  0
C  C82  1  0.14160376  0.60820787  0.88737343  1  -0.02807  0  -0.080976  -0.089954  0  3.977672  0
C  C83  1  0.35838997  0.39178038  0.38737258  1  -0.028502  0  -0.08084  -0.08982  0  3.977863  0
C  C84  1  0.04341863  0.97163426  0.85163706  1  -0.019114  0  -0.0782  -0.083659  0  3.937023  0
C  C85  1  0.45656830  0.02835322  0.35163725  1  -0.019671  0  -0.078095  -0.083586  0  3.936703  0
C  C86  1  0.95658784  0.47164598  0.14836093  1  -0.019533  0  -0.078128  -0.083607  0  3.936666  0
C  C87  1  0.54340400  0.52836710  0.64836908  1  -0.019428  0  -0.078162  -0.083577  0  3.9366  0
C  C88  1  0.95660876  0.02837719  0.14837083  1  -0.0188  0  -0.078129  -0.083512  0  3.93664  0
C  C89  1  0.54341590  0.97162994  0.64836647  1  -0.019211  0  -0.078236  -0.083717  0  3.936675  0
C  C90  1  0.04341191  0.52836621  0.85163185  1  -0.019272  0  -0.078137  -0.083437  0  3.936609  0
C  C91  1  0.45658884  0.47162275  0.35162891  1  -0.019096  0  -0.078207  -0.083696  0  3.936505  0
S  S92  1  0.14751351  0.75000614  0.99069320  1  2.465908  0  0.484119  0.989578  0  5.695839  0
S  S93  1  0.35247300  0.24999485  0.49068923  1  2.466288  0  0.484072  0.989534  0  5.695753  0
S  S94  1  0.85250351  0.25001201  0.00930687  1  2.464491  0  0.484071  0.98935  0  5.696243  0
S  S95  1  0.64750257  0.75000319  0.50930511  1  2.465477  0  0.484171  0.989529  0  5.695776  0
O  O96  1  0.83810042  0.13774783  0.78703404  1  -1.188504  0  -0.296426  -0.625789  0  2.3304  0
O  O97  1  0.66189100  0.86224526  0.28703164  1  -1.188603  0  -0.296344  -0.625686  0  2.330619  0
O  O98  1  0.16191500  0.63774800  0.21296759  1  -1.188452  0  -0.296434  -0.625723  0  2.330528  0
O  O99  1  0.33809308  0.36225128  0.71296583  1  -1.18833  0  -0.29641  -0.625668  0  2.330376  0
O  O100  1  0.16191315  0.86225989  0.21296915  1  -1.188563  0  -0.296404  -0.625736  0  2.330433  0
O  O101  1  0.33809838  0.13774311  0.71296999  1  -1.188484  0  -0.296475  -0.625836  0  2.330459  0
O  O102  1  0.83809339  0.36225377  0.78703196  1  -1.1884  0  -0.296433  -0.625734  0  2.330345  0
O  O103  1  0.66189458  0.63773634  0.28702852  1  -1.188375  0  -0.296455  -0.625807  0  2.33042  0
O  O104  1  0.52292554  0.12451147  0.85714004  1  -1.177877  0  -0.294149  -0.562082  0  2.246149  0
O  O105  1  0.97708122  0.87548466  0.35713709  1  -1.1779  0  -0.294106  -0.561971  0  2.246081  0
O  O106  1  0.47708319  0.62451390  0.14285900  1  -1.177904  0  -0.294155  -0.561987  0  2.246234  0
O  O107  1  0.02289919  0.37549425  0.64285986  1  -1.178047  0  -0.294174  -0.562002  0  2.246134  0
O  O108  1  0.47710358  0.87549551  0.14286056  1  -1.177321  0  -0.294184  -0.562056  0  2.246103  0
O  O109  1  0.02291680  0.12450818  0.64286299  1  -1.177889  0  -0.294135  -0.562083  0  2.246098  0
O  O110  1  0.52290102  0.37549531  0.85713847  1  -1.177966  0  -0.294125  -0.562002  0  2.246133  0
O  O111  1  0.97707637  0.62450305  0.35713813  1  -1.177579  0  -0.294141  -0.56209  0  2.245957  0
O  O112  1  0.39547976  0.74999397  0.98021537  1  -1.301355  0  -0.303327  -0.513646  0  2.197928  0
O  O113  1  0.10451888  0.24998989  0.48021663  1  -1.301497  0  -0.303273  -0.51357  0  2.198106  0
O  O114  1  0.60453900  0.25000408  0.01978418  1  -1.301132  0  -0.303263  -0.513526  0  2.198173  0
O  O115  1  0.89547223  0.74999401  0.51977876  1  -1.301307  0  -0.303343  -0.513667  0  2.198111  0
O  O116  1  0.05242817  0.74999767  0.06098762  1  -1.323367  0  -0.302462  -0.566179  0  2.292348  0
O  O117  1  0.44757345  0.24999404  0.56098845  1  -1.323661  0  -0.302491  -0.566244  0  2.291963  0
O  O118  1  0.94758194  0.25000559  0.93901141  1  -1.322662  0  -0.302482  -0.566122  0  2.292429  0
O  O119  1  0.55240902  0.74999805  0.43901162  1  -1.323082  0  -0.302493  -0.566097  0  2.292248  0
