# generated using pymatgen
data_KH11C9N16O5
_symmetry_space_group_name_H-M   'P 1'
_cell_length_a   7.97048254
_cell_length_b   9.73810323
_cell_length_c   12.45202275
_cell_angle_alpha   84.09125270
_cell_angle_beta   86.35537135
_cell_angle_gamma   69.67102243
_symmetry_Int_Tables_number   1
_chemical_formula_structural   KH11C9N16O5
_chemical_formula_sum   'K2 H22 C18 N32 O10'
_cell_volume   901.07812037
_cell_formula_units_Z   2
loop_
 _symmetry_equiv_pos_site_id
 _symmetry_equiv_pos_as_xyz
  1  'x, y, z'
loop_
 _atom_site_type_symbol
 _atom_site_label
 _atom_site_symmetry_multiplicity
 _atom_site_fract_x
 _atom_site_fract_y
 _atom_site_fract_z
 _atom_site_occupancy
 _atom_site_hle17_bader_spin_density
 _atom_site_hle17_ddec_charge
 _atom_site_hle17_ddec_spin_density
 _atom_site_hle17_ddec_sum_bond_order
 _atom_site_hle17_magmom
 _atom_site_hse06_10hf_bader_spin_density
 _atom_site_hse06_10hf_ddec_charge
 _atom_site_hse06_10hf_ddec_spin_density
 _atom_site_hse06_10hf_ddec_sum_bond_order
 _atom_site_hse06_10hf_magmom
 _atom_site_hse06_bader_spin_density
 _atom_site_hse06_ddec_charge
 _atom_site_hse06_ddec_spin_density
 _atom_site_hse06_ddec_sum_bond_order
 _atom_site_hse06_magmom
 _atom_site_pbe_bader_spin_density
 _atom_site_pbe_cm5_charge
 _atom_site_pbe_ddec_charge
 _atom_site_pbe_ddec_spin_density
 _atom_site_pbe_ddec_sum_bond_order
 _atom_site_pbe_magmom
K  K0  1  0.41364330  0.52178349  0.33152792  1  0  0.911923  0  0.455861  0  0  0.856833  0  0.646313  0  0  0.871432  0  0.624522  0  0  0.768295  0.845902  0  0.66199  0
K  K1  1  0.58635719  0.47821715  0.66847344  1  0  0.911935  0  0.455843  0  0  0.856847  0  0.646302  0  0  0.871442  0  0.624514  0  0  0.768303  0.845916  0  0.66198  0
H  H2  1  0.69385816  0.82451396  0.58238454  1  0  0.129869  0  0.936145  0  0  0.13778  0  0.998843  0  0  0.140498  0  0.995587  0  0  0.154057  0.135742  0  1.00125  0
H  H3  1  0.30614108  0.17548669  0.41761527  1  0  0.129876  0  0.936197  0  0  0.137786  0  0.998899  0  0  0.140502  0  0.995642  0  0  0.154076  0.135749  0  1.001306  0
H  H4  1  0.19102158  0.92579266  0.29372447  1  0  0.133904  0  0.984886  0  0  0.135461  0  1.053024  0  0  0.140117  0  1.047852  0  0  0.144291  0.132077  0  1.056708  0
H  H5  1  0.80897766  0.07420798  0.70627614  1  0  0.133872  0  0.984935  0  0  0.135459  0  1.053037  0  0  0.140115  0  1.047867  0  0  0.14429  0.132076  0  1.056721  0
H  H6  1  0.66666804  0.01956280  0.08086953  1  0  0.110687  0  0.992983  0  0  0.105523  0  1.078883  0  0  0.110669  0  1.072535  0  0  0.131469  0.101766  0  1.083461  0
H  H7  1  0.33332995  0.98043785  0.91913032  1  0  0.110677  0  0.993029  0  0  0.105519  0  1.078918  0  0  0.110663  0  1.072572  0  0  0.131457  0.101764  0  1.083496  0
H  H8  1  0.79061751  0.73830137  0.87276171  1  0  0.122251  0  0.957125  0  0  0.115338  0  1.044524  0  0  0.119823  0  1.038437  0  0  0.140299  0.112065  0  1.048859  0
H  H9  1  0.20938173  0.26169928  0.12723889  1  0  0.122213  0  0.957142  0  0  0.115342  0  1.044504  0  0  0.119829  0  1.038415  0  0  0.14029  0.11207  0  1.048837  0
H  H10  1  0.51382219  0.92927662  0.40038623  1  0  0.063671  0  0.963236  0  0  0.076779  0  1.03987  0  0  0.077476  0  1.039327  0  0  0.083596  0.076193  0  1.040315  0
H  H11  1  0.48618002  0.07072293  0.59961515  1  0  0.063687  0  0.963201  0  0  0.076791  0  1.039834  0  0  0.077483  0  1.039299  0  0  0.083605  0.076206  0  1.040278  0
H  H12  1  0.60039431  0.73537637  0.43775639  1  0  0.056608  0  0.975597  0  0  0.071535  0  1.049108  0  0  0.073487  0  1.04743  0  0  0.085394  0.069982  0  1.050525  0
H  H13  1  0.39960790  0.26462318  0.56224499  1  0  0.056625  0  0.975622  0  0  0.071551  0  1.049127  0  0  0.073504  0  1.047446  0  0  0.085403  0.069996  0  1.050544  0
H  H14  1  0.36888040  0.83426302  0.45814979  1  0  0.065612  0  0.987681  0  0  0.07382  0  1.073213  0  0  0.074653  0  1.072513  0  0  0.088765  0.073168  0  1.073739  0
H  H15  1  0.63112182  0.16573653  0.54185159  1  0  0.065597  0  0.987726  0  0  0.073812  0  1.073243  0  0  0.074639  0  1.072546  0  0  0.088752  0.073161  0  1.073768  0
H  H16  1  0.35801183  0.70680055  0.06765787  1  0  0.329584  0  0.91337  0  0  0.299162  0  0.991089  0  0  0.309344  0  0.982059  0  0  0.319601  0.291941  0  0.997578  0
H  H17  1  0.64198742  0.29320010  0.93234194  1  0  0.329569  0  0.913379  0  0  0.299153  0  0.991092  0  0  0.309334  0  0.982065  0  0  0.319611  0.291933  0  0.997579  0
H  H18  1  0.78721519  0.30961519  0.18878227  1  0  0.329243  0  0.919992  0  0  0.300285  0  0.99572  0  0  0.31029  0  0.986791  0  0  0.321685  0.293303  0  1.001915  0
H  H19  1  0.21278531  0.69038546  0.81121668  1  0  0.32924  0  0.920022  0  0  0.300282  0  0.995762  0  0  0.310287  0  0.986833  0  0  0.321684  0.293301  0  1.001957  0
H  H20  1  0.07283317  0.43549021  0.70464503  1  0  0.300775  0  0.951857  0  0  0.262861  0  1.037012  0  0  0.274261  0  1.028263  0  0  0.304746  0.254883  0  1.043163  0
H  H21  1  0.92716654  0.56450934  0.29535484  1  0  0.30076  0  0.951879  0  0  0.262862  0  1.037017  0  0  0.274256  0  1.02827  0  0  0.304747  0.254883  0  1.043165  0
H  H22  1  0.54525806  0.80804545  0.24928282  1  0  0.336176  0  0.96262  0  0  0.301078  0  1.055775  0  0  0.312016  0  1.043806  0  0  0.282263  0.293435  0  1.064043  0
H  H23  1  0.45474164  0.19195410  0.75071785  1  0  0.336162  0  0.962624  0  0  0.301061  0  1.055792  0  0  0.311999  0  1.043822  0  0  0.282252  0.293419  0  1.064059  0
C  C24  1  0.11434461  0.59438038  0.57409476  1  0  0.604377  0  3.88047  0  0  0.531107  0  4.19156  0  0  0.563208  0  4.192081  0  0  0.326548  0.509534  0  4.190569  0
C  C25  1  0.88565463  0.40562027  0.42590504  1  0  0.604407  0  3.880524  0  0  0.531162  0  4.191585  0  0  0.563256  0  4.192105  0  0  0.32656  0.509589  0  4.190595  0
C  C26  1  0.82041039  0.73550136  0.59324778  1  0  0.127035  0  3.688394  0  0  0.060404  0  3.979504  0  0  0.073963  0  3.990221  0  0  0.155745  0.051423  0  3.972536  0
C  C27  1  0.17959103  0.26449710  0.40675131  1  0  0.126987  0  3.688401  0  0  0.06036  0  3.979498  0  0  0.07392  0  3.990214  0  0  0.155717  0.051376  0  3.972529  0
C  C28  1  0.76029909  0.14371505  0.30753807  1  0  0.598392  0  3.880126  0  0  0.524208  0  4.194291  0  0  0.556575  0  4.194673  0  0  0.329452  0.502653  0  4.193159  0
C  C29  1  0.23970141  0.85628561  0.69246169  1  0  0.598357  0  3.880159  0  0  0.524198  0  4.194317  0  0  0.556564  0  4.194701  0  0  0.329436  0.502644  0  4.193185  0
C  C30  1  0.05980387  0.01249893  0.28612404  1  0  0.112003  0  3.633658  0  0  0.045991  0  3.929907  0  0  0.059009  0  3.939968  0  0  0.143714  0.03748  0  3.922937  0
C  C31  1  0.94019663  0.98750172  0.71387572  1  0  0.111996  0  3.633716  0  0  0.045969  0  3.929952  0  0  0.058987  0  3.940014  0  0  0.143706  0.037458  0  3.922985  0
C  C32  1  0.03238582  0.74008455  0.15219275  1  0  0.559147  0  3.939389  0  0  0.493357  0  4.258155  0  0  0.521384  0  4.263269  0  0  0.296686  0.474673  0  4.253739  0
C  C33  1  0.96761356  0.25991280  0.84780811  1  0  0.559199  0  3.939414  0  0  0.493409  0  4.258174  0  0  0.521436  0  4.263291  0  0  0.296724  0.474724  0  4.25376  0
C  C34  1  0.76690907  0.91837624  0.11333608  1  0  0.108716  0  3.681147  0  0  0.045453  0  3.9646  0  0  0.057827  0  3.975857  0  0  0.131668  0.037408  0  3.956777  0
C  C35  1  0.23309064  0.08162331  0.88666460  1  0  0.108702  0  3.681221  0  0  0.04544  0  3.96466  0  0  0.057814  0  3.975917  0  0  0.131675  0.037393  0  3.95684  0
C  C36  1  0.63026525  0.57072032  0.07744426  1  0  0.621983  0  3.854003  0  0  0.544625  0  4.167459  0  0  0.576829  0  4.166809  0  0  0.33932  0.522846  0  4.167649  0
C  C37  1  0.36973731  0.42928146  0.92255131  1  0  0.622054  0  3.853904  0  0  0.544665  0  4.167397  0  0  0.576867  0  4.16675  0  0  0.339332  0.522885  0  4.167594  0
C  C38  1  0.70892040  0.70199347  0.93454661  1  0  0.143043  0  3.629163  0  0  0.07579  0  3.924644  0  0  0.090209  0  3.932892  0  0  0.163342  0.066448  0  3.918866  0
C  C39  1  0.29108056  0.29800609  0.06545241  1  0  0.143067  0  3.629163  0  0  0.075776  0  3.924629  0  0  0.090195  0  3.932875  0  0  0.1634  0.066434  0  3.918847  0
C  C40  1  0.48489597  0.82609421  0.40368482  1  0  -0.047772  0  3.723867  0  0  -0.138524  0  3.997249  0  0  -0.133175  0  4.001314  0  0  -0.173042  -0.141914  0  3.994419  0
C  C41  1  0.51510578  0.17390644  0.59631650  1  0  -0.047768  0  3.723889  0  0  -0.13854  0  3.997311  0  0  -0.133186  0  4.001381  0  0  -0.173041  -0.141928  0  3.994478  0
N  N42  1  0.02511810  0.53592927  0.65191389  1  0  -0.312733  0  3.321768  0  0  -0.2521  0  3.585808  0  0  -0.271128  0  3.595392  0  0  -0.279114  -0.239285  0  3.579291  0
N  N43  1  0.97488241  0.46407139  0.34808426  1  0  -0.312798  0  3.321746  0  0  -0.252212  0  3.585836  0  0  -0.271222  0  3.595408  0  0  -0.279153  -0.239394  0  3.579308  0
N  N44  1  0.84781439  0.62161627  0.66351537  1  0  -0.216033  0  2.989106  0  0  -0.206417  0  3.284823  0  0  -0.212098  0  3.296445  0  0  -0.283181  -0.202787  0  3.277387  0
N  N45  1  0.15218783  0.37838329  0.33648360  1  0  -0.215999  0  2.989005  0  0  -0.206372  0  3.28472  0  0  -0.21206  0  3.296335  0  0  -0.28317  -0.202742  0  3.277282  0
N  N46  1  0.97759779  0.72593076  0.53490140  1  0  -0.139882  0  3.514732  0  0  -0.057294  0  3.760565  0  0  -0.078825  0  3.781458  0  0  -0.121761  -0.042886  0  3.746419  0
N  N47  1  0.02240272  0.27406990  0.46509755  1  0  -0.139756  0  3.514665  0  0  -0.057167  0  3.760465  0  0  -0.078698  0  3.78136  0  0  -0.121757  -0.042762  0  3.746318  0
N  N48  1  0.01276577  0.81437843  0.45075042  1  0  -0.023504  0  2.927182  0  0  -0.034607  0  3.232673  0  0  -0.024319  0  3.234602  0  0  -0.031804  -0.042178  0  3.232289  0
N  N49  1  0.98723473  0.18562223  0.54924853  1  0  -0.023594  0  2.927205  0  0  -0.03471  0  3.232716  0  0  -0.024424  0  3.234646  0  0  -0.031815  -0.042281  0  3.232332  0
N  N50  1  0.87363763  0.92263519  0.42645306  1  0  -0.003995  0  2.967475  0  0  -0.010215  0  3.275357  0  0  -0.00066  0  3.278785  0  0  -0.025192  -0.017138  0  3.273806  0
N  N51  1  0.12636161  0.07736546  0.57354675  1  0  -0.003958  0  2.967453  0  0  -0.010165  0  3.275327  0  0  -0.00061  0  3.278756  0  0  -0.02517  -0.017088  0  3.273777  0
N  N52  1  0.90385853  0.01368131  0.34386813  1  0  -0.138001  0  3.510265  0  0  -0.059049  0  3.759934  0  0  -0.08134  0  3.78266  0  0  -0.119149  -0.044094  0  3.744465  0
N  N53  1  0.09614196  0.98631934  0.65613243  1  0  -0.137957  0  3.510273  0  0  -0.059013  0  3.759943  0  0  -0.081302  0  3.782668  0  0  -0.119135  -0.044059  0  3.744476  0
N  N54  1  0.84680912  0.20785377  0.23093233  1  0  -0.336635  0  3.352625  0  0  -0.279182  0  3.615408  0  0  -0.297581  0  3.624539  0  0  -0.289839  -0.266862  0  3.609099  0
N  N55  1  0.15319013  0.79214688  0.76906748  1  0  -0.336609  0  3.352642  0  0  -0.279193  0  3.615456  0  0  -0.297593  0  3.624587  0  0  -0.289827  -0.266871  0  3.609144  0
N  N56  1  0.02603546  0.12991986  0.21847721  1  0  -0.171955  0  2.948866  0  0  -0.165477  0  3.246406  0  0  -0.172919  0  3.260423  0  0  -0.215513  -0.160254  0  3.236825  0
N  N57  1  0.97396551  0.87007969  0.78152262  1  0  -0.17196  0  2.948861  0  0  -0.165463  0  3.246412  0  0  -0.172906  0  3.260429  0  0  -0.215509  -0.16024  0  3.236831  0
N  N58  1  0.89889783  0.70975216  0.21032757  1  0  -0.416699  0  3.004575  0  0  -0.381781  0  3.28955  0  0  -0.40056  0  3.303137  0  0  -0.261701  -0.368973  0  3.280178  0
N  N59  1  0.10110062  0.29024738  0.78967395  1  0  -0.416748  0  3.004704  0  0  -0.381833  0  3.289692  0  0  -0.400614  0  3.30328  0  0  -0.261705  -0.369023  0  3.280323  0
N  N60  1  0.73799327  0.82004126  0.18493225  1  0  -0.202285  0  3.11177  0  0  -0.160912  0  3.389353  0  0  -0.170628  0  3.405879  0  0  -0.218127  -0.154193  0  3.377978  0
N  N61  1  0.26200518  0.17995829  0.81506767  1  0  -0.202238  0  3.111854  0  0  -0.160861  0  3.389434  0  0  -0.170576  0  3.40596  0  0  -0.218114  -0.154143  0  3.378061  0
N  N62  1  0.94858877  0.87512576  0.08880073  1  0  -0.136249  0  3.552869  0  0  -0.052071  0  3.792054  0  0  -0.073222  0  3.815007  0  0  -0.127478  -0.037803  0  3.776296  0
N  N63  1  0.05141093  0.12487379  0.91119994  1  0  -0.13629  0  3.55291  0  0  -0.052113  0  3.792098  0  0  -0.073263  0  3.81505  0  0  -0.127511  -0.037844  0  3.776341  0
N  N64  1  0.04752009  0.93870399  0.02230280  1  0  -0.018263  0  2.962856  0  0  -0.023254  0  3.263021  0  0  -0.013203  0  3.264646  0  0  -0.037037  -0.030707  0  3.262932  0
N  N65  1  0.95247916  0.06129666  0.97769781  1  0  -0.018181  0  2.962831  0  0  -0.023167  0  3.262985  0  0  -0.013117  0  3.264612  0  0  -0.036982  -0.030621  0  3.262896  0
N  N66  1  0.48912087  0.68373113  0.03646283  1  0  -0.320419  0  3.34566  0  0  -0.261396  0  3.601705  0  0  -0.279701  0  3.611537  0  0  -0.278469  -0.24925  0  3.595205  0
N  N67  1  0.51087884  0.31626843  0.96353624  1  0  -0.320447  0  3.345579  0  0  -0.261428  0  3.60165  0  0  -0.279733  0  3.611483  0  0  -0.278522  -0.249283  0  3.595147  0
N  N68  1  0.53626204  0.76342490  0.94984408  1  0  -0.159915  0  2.932166  0  0  -0.145171  0  3.212087  0  0  -0.153072  0  3.22567  0  0  -0.200307  -0.139776  0  3.202764  0
N  N69  1  0.46373846  0.23657575  0.05015568  1  0  -0.159889  0  2.932179  0  0  -0.145137  0  3.212106  0  0  -0.15304  0  3.22569  0  0  -0.200316  -0.139741  0  3.202781  0
N  N70  1  0.77462650  0.58244760  0.01039471  1  0  -0.132415  0  3.526079  0  0  -0.050866  0  3.768873  0  0  -0.072268  0  3.790058  0  0  -0.114257  -0.03659  0  3.754587  0
N  N71  1  0.22537321  0.41755195  0.98960516  1  0  -0.132375  0  3.526021  0  0  -0.050824  0  3.768843  0  0  -0.072226  0  3.790027  0  0  -0.114236  -0.036548  0  3.754558  0
N  N72  1  0.94138519  0.48507730  0.03040236  1  0  0.006226  0  2.933291  0  0  -0.002896  0  3.235775  0  0  0.007042  0  3.237879  0  0  -0.023373  -0.009955  0  3.235054  0
N  N73  1  0.05861452  0.51492226  0.96959751  1  0  0.006171  0  2.933373  0  0  -0.002928  0  3.235833  0  0  0.007011  0  3.237937  0  0  -0.023381  -0.009989  0  3.235113  0
O  O74  1  0.27321209  0.54953462  0.54253354  1  0  -0.633413  0  1.956118  0  0  -0.594715  0  2.195105  0  0  -0.617418  0  2.18807  0  0  -0.395529  -0.578682  0  2.199551  0
O  O75  1  0.72678887  0.45046494  0.45746548  1  0  -0.633411  0  1.956163  0  0  -0.594722  0  2.195144  0  0  -0.617426  0  2.188112  0  0  -0.395491  -0.57869  0  2.19959  0
O  O76  1  0.60298245  0.18419584  0.33949479  1  0  -0.563308  0  1.932937  0  0  -0.525024  0  2.162371  0  0  -0.548023  0  2.156879  0  0  -0.306075  -0.508568  0  2.165223  0
O  O77  1  0.39701805  0.81580481  0.66050577  1  0  -0.563305  0  1.932948  0  0  -0.525017  0  2.162357  0  0  -0.548019  0  2.156872  0  0  -0.306074  -0.508561  0  2.165209  0
O  O78  1  0.19753279  0.66928523  0.15054887  1  0  -0.634237  0  2.007738  0  0  -0.597057  0  2.257579  0  0  -0.620978  0  2.251351  0  0  -0.362234  -0.579746  0  2.260913  0
O  O79  1  0.80246691  0.33071432  0.84945261  1  0  -0.634248  0  2.00774  0  0  -0.597081  0  2.257606  0  0  -0.62099  0  2.251352  0  0  -0.362245  -0.57977  0  2.260939  0
O  O80  1  0.63579259  0.47836991  0.15505882  1  0  -0.604478  0  2.009913  0  0  -0.565332  0  2.257088  0  0  -0.587898  0  2.248079  0  0  -0.363563  -0.549366  0  2.262705  0
O  O81  1  0.36420804  0.52162745  0.84494038  1  0  -0.604511  0  2.010066  0  0  -0.565355  0  2.257265  0  0  -0.587919  0  2.248259  0  0  -0.363561  -0.549389  0  2.262886  0
O  O82  1  0.44555748  0.79734451  0.29949447  1  0  -0.55908  0  2.14341  0  0  -0.494104  0  2.379983  0  0  -0.511146  0  2.369268  0  0  -0.484252  -0.481971  0  2.38697  0
O  O83  1  0.55444302  0.20265614  0.70050609  1  0  -0.559061  0  2.143388  0  0  -0.49409  0  2.379963  0  0  -0.511131  0  2.369245  0  0  -0.484245  -0.481957  0  2.386948  0
