# generated using pymatgen
data_ZnH22C19N2(ClO2)2
_symmetry_space_group_name_H-M   'P 1'
_cell_length_a   9.11980686
_cell_length_b   8.41651597
_cell_length_c   13.32811948
_cell_angle_alpha   94.53366937
_cell_angle_beta   97.31040133
_cell_angle_gamma   91.12225563
_symmetry_Int_Tables_number   1
_chemical_formula_structural   ZnH22C19N2(ClO2)2
_chemical_formula_sum   'Zn2 H44 C38 N4 Cl4 O8'
_cell_volume   1011.08097582
_cell_formula_units_Z   2
loop_
 _symmetry_equiv_pos_site_id
 _symmetry_equiv_pos_as_xyz
  1  'x, y, z'
loop_
 _atom_site_type_symbol
 _atom_site_label
 _atom_site_symmetry_multiplicity
 _atom_site_fract_x
 _atom_site_fract_y
 _atom_site_fract_z
 _atom_site_occupancy
 _atom_site_hle17_bader_spin_density
 _atom_site_hle17_ddec_charge
 _atom_site_hle17_ddec_spin_density
 _atom_site_hle17_ddec_sum_bond_order
 _atom_site_hle17_magmom
 _atom_site_hse06_10hf_bader_spin_density
 _atom_site_hse06_10hf_ddec_charge
 _atom_site_hse06_10hf_ddec_spin_density
 _atom_site_hse06_10hf_ddec_sum_bond_order
 _atom_site_hse06_10hf_magmom
 _atom_site_hse06_bader_spin_density
 _atom_site_hse06_ddec_charge
 _atom_site_hse06_ddec_spin_density
 _atom_site_hse06_ddec_sum_bond_order
 _atom_site_hse06_magmom
 _atom_site_pbe_bader_spin_density
 _atom_site_pbe_cm5_charge
 _atom_site_pbe_ddec_charge
 _atom_site_pbe_ddec_spin_density
 _atom_site_pbe_ddec_sum_bond_order
 _atom_site_pbe_magmom
Zn  Zn0  1  0.64066671  0.49760833  0.02047852  1  0  0.940349  0  1.992406  0  0  0.765867  0  2.487249  0  0  0.809087  0  2.43505  0  0  0.567862  0.735642  0  2.523209  0
Zn  Zn1  1  0.24349944  0.99067469  0.50875319  1  0  0.939104  0  1.997123  0  0  0.771701  0  2.482783  0  0  0.815668  0  2.429439  0  0  0.553115  0.740611  0  2.519614  0
H  H2  1  0.60296659  0.78259206  0.95506324  1  0  0.092942  0  0.978516  0  0  0.102492  0  1.046146  0  0  0.105432  0  1.043693  0  0  0.100709  0.100422  0  1.047573  0
H  H3  1  0.70724795  0.04011986  0.91180354  1  0  0.103184  0  0.997946  0  0  0.10918  0  1.070579  0  0  0.11247  0  1.068533  0  0  0.089756  0.106699  0  1.072381  0
H  H4  1  0.87778553  0.80118204  0.65534693  1  0  0.115259  0  0.991038  0  0  0.12195  0  1.062709  0  0  0.125202  0  1.061048  0  0  0.105013  0.119561  0  1.063942  0
H  H5  1  0.70634063  0.25388307  0.66651427  1  0  0.128831  0  0.943575  0  0  0.139543  0  0.998006  0  0  0.143481  0  0.996062  0  0  0.117556  0.136623  0  0.999659  0
H  H6  1  0.62369905  0.25778412  0.83752855  1  0  0.068089  0  0.968303  0  0  0.075141  0  1.040751  0  0  0.077087  0  1.038414  0  0  0.109303  0.073689  0  1.042417  0
H  H7  1  0.04337276  0.99058942  0.70075781  1  0  0.070336  0  0.995993  0  0  0.084913  0  1.067806  0  0  0.083574  0  1.071145  0  0  0.089384  0.086184  0  1.064867  0
H  H8  1  0.00975299  0.20033711  0.70088695  1  0  0.104314  0  0.966987  0  0  0.115452  0  1.038311  0  0  0.117105  0  1.036902  0  0  0.10313  0.114072  0  1.03967  0
H  H9  1  0.89116013  0.05932208  0.61891966  1  0  0.093044  0  0.956567  0  0  0.109064  0  1.021351  0  0  0.109668  0  1.02035  0  0  0.093363  0.108871  0  1.021828  0
H  H10  1  0.93327378  0.56889699  0.59383554  1  0  0.040291  0  0.943134  0  0  0.049396  0  1.012265  0  0  0.049576  0  1.012437  0  0  0.104815  0.048972  0  1.012596  0
H  H11  1  0.73914858  0.71250143  0.52336662  1  0  0.070721  0  0.937383  0  0  0.083157  0  0.99763  0  0  0.084003  0  0.9981  0  0  0.099724  0.082472  0  0.997525  0
H  H12  1  0.50350280  0.61590787  0.54724641  1  0  0.089999  0  0.933322  0  0  0.101679  0  0.998201  0  0  0.102553  0  0.99898  0  0  0.110715  0.100667  0  0.998225  0
H  H13  1  0.54497827  0.41318044  0.51688879  1  0  0.093353  0  0.926894  0  0  0.106741  0  0.990294  0  0  0.107624  0  0.990581  0  0  0.113013  0.105808  0  0.990592  0
H  H14  1  0.74455849  0.29997939  0.37793822  1  0  0.093987  0  0.946119  0  0  0.108061  0  1.004515  0  0  0.110532  0  1.002713  0  0  0.095078  0.106163  0  1.006097  0
H  H15  1  0.73685552  0.38736200  0.26051909  1  0  0.082161  0  0.954808  0  0  0.095141  0  1.021358  0  0  0.096246  0  1.021638  0  0  0.085085  0.094263  0  1.021259  0
H  H16  1  0.48657390  0.29184687  0.35645911  1  0  0.096018  0  0.930978  0  0  0.107774  0  0.994774  0  0  0.109175  0  0.994211  0  0  0.11074  0.106525  0  0.995508  0
H  H17  1  0.48066234  0.40853197  0.24911760  1  0  0.081705  0  0.950249  0  0  0.091876  0  1.018068  0  0  0.093364  0  1.017203  0  0  0.10017  0.090592  0  1.019006  0
H  H18  1  0.88479671  0.57123277  0.39193588  1  0  0.061694  0  0.916227  0  0  0.076361  0  0.97104  0  0  0.07739  0  0.97108  0  0  0.095147  0.075967  0  0.970439  0
H  H19  1  0.70814799  0.68240803  0.25419594  1  0  0.101862  0  0.978129  0  0  0.114196  0  1.041926  0  0  0.116587  0  1.04098  0  0  0.090202  0.112544  0  1.042683  0
H  H20  1  0.73836547  0.81230421  0.36677695  1  0  0.100805  0  0.962087  0  0  0.111773  0  1.030072  0  0  0.114127  0  1.028487  0  0  0.087695  0.109541  0  1.032335  0
H  H21  1  0.46082688  0.67918066  0.26669596  1  0  0.081625  0  0.941548  0  0  0.088925  0  1.00715  0  0  0.090998  0  1.006316  0  0  0.111989  0.087726  0  1.007755  0
H  H22  1  0.24816293  0.70026284  0.55778486  1  0  0.111907  0  0.991634  0  0  0.12031  0  1.056602  0  0  0.124234  0  1.053007  0  0  0.100808  0.117399  0  1.059325  0
H  H23  1  0.18600234  0.44325755  0.62234128  1  0  0.109888  0  0.9893  0  0  0.116807  0  1.058028  0  0  0.120539  0  1.055165  0  0  0.091482  0.113996  0  1.0604  0
H  H24  1  0.24749626  0.65746814  0.92807445  1  0  0.117296  0  1.015184  0  0  0.12574  0  1.080299  0  0  0.129301  0  1.078296  0  0  0.097808  0.123005  0  1.082202  0
H  H25  1  0.37528188  0.21174329  0.87981858  1  0  0.110576  0  0.973594  0  0  0.11774  0  1.039298  0  0  0.121966  0  1.036686  0  0  0.106744  0.11461  0  1.041474  0
H  H26  1  0.35434027  0.21232785  0.69141535  1  0  0.076064  0  0.948845  0  0  0.082767  0  1.017477  0  0  0.085267  0  1.014779  0  0  0.109541  0.080957  0  1.019336  0
H  H27  1  0.20646599  0.38074189  0.95871337  1  0  0.087596  0  0.973324  0  0  0.100307  0  1.047049  0  0  0.100994  0  1.046074  0  0  0.085177  0.099778  0  1.047898  0
H  H28  1  0.04463203  0.27165000  0.89435742  1  0  0.091227  0  0.960419  0  0  0.105239  0  1.030963  0  0  0.10617  0  1.030536  0  0  0.09807  0.104494  0  1.03141  0
H  H29  1  0.03884962  0.48311911  0.92243608  1  0  0.110901  0  0.982166  0  0  0.126127  0  1.047047  0  0  0.127566  0  1.046145  0  0  0.099249  0.125132  0  1.047722  0
H  H30  1  0.42879300  0.88925884  0.01717095  1  0  0.037625  0  0.931489  0  0  0.048684  0  0.997083  0  0  0.049374  0  0.995762  0  0  0.101919  0.048116  0  0.998028  0
H  H31  1  0.18235460  0.79174068  0.01944057  1  0  0.073061  0  0.993126  0  0  0.081929  0  1.058122  0  0  0.083762  0  1.057388  0  0  0.099023  0.080621  0  1.058999  0
H  H32  1  0.99483810  0.95496332  0.96057427  1  0  0.091848  0  0.944751  0  0  0.101416  0  1.012432  0  0  0.102812  0  1.012393  0  0  0.111303  0.100464  0  1.012293  0
H  H33  1  0.08937399  0.13403825  0.01861464  1  0  0.08877  0  0.931674  0  0  0.10559  0  0.991289  0  0  0.106193  0  0.991492  0  0  0.117979  0.105097  0  0.991264  0
H  H34  1  0.29289780  0.17043226  0.18781917  1  0  0.096898  0  0.95607  0  0  0.111183  0  1.014705  0  0  0.113209  0  1.013747  0  0  0.09466  0.109635  0  1.015609  0
H  H35  1  0.26409629  0.08062075  0.29974149  1  0  0.086182  0  0.974168  0  0  0.096996  0  1.046907  0  0  0.09792  0  1.047234  0  0  0.085749  0.096232  0  1.046873  0
H  H36  1  0.04111372  0.24016827  0.17825696  1  0  0.08283  0  0.907431  0  0  0.099318  0  0.962638  0  0  0.100615  0  0.962127  0  0  0.112938  0.098089  0  0.96351  0
H  H37  1  0.00701689  0.10516940  0.27020500  1  0  0.08498  0  0.921077  0  0  0.096343  0  0.987082  0  0  0.097693  0  0.986331  0  0  0.110711  0.095238  0  0.987832  0
H  H38  1  0.36014045  0.87827526  0.18359705  1  0  0.066318  0  0.926617  0  0  0.079647  0  0.984992  0  0  0.079996  0  0.985925  0  0  0.099907  0.079404  0  0.984337  0
H  H39  1  0.14980060  0.79854385  0.28202038  1  0  0.093497  0  0.959289  0  0  0.103386  0  1.030179  0  0  0.105135  0  1.029739  0  0  0.087872  0.10231  0  1.030137  0
H  H40  1  0.15669474  0.67567660  0.16715903  1  0  0.091656  0  0.933492  0  0  0.105822  0  0.994289  0  0  0.107416  0  0.993973  0  0  0.092499  0.104325  0  0.995159  0
H  H41  1  0.91121223  0.86071277  0.22373017  1  0  0.093211  0  0.91417  0  0  0.100847  0  0.973379  0  0  0.103013  0  0.972172  0  0  0.121694  0.099103  0  0.974654  0
H  H42  1  0.37400283  0.53600298  0.39270926  1  0  0.280673  0  0.822508  0  0  0.271012  0  0.868451  0  0  0.276983  0  0.864599  0  0  0.335946  0.26696  0  0.870961  0
H  H43  1  0.87979726  0.04609347  0.09866505  1  0  0.26534  0  0.875207  0  0  0.253985  0  0.92961  0  0  0.259734  0  0.926215  0  0  0.30636  0.249829  0  0.932126  0
H  H44  1  0.94219270  0.33231537  0.51644706  1  0  0.370453  0  0.849785  0  0  0.353192  0  0.915012  0  0  0.36124  0  0.905736  0  0  0.315068  0.347072  0  0.922335  0
H  H45  1  0.48871564  0.15059153  0.04042973  1  0  0.344658  0  0.937318  0  0  0.319843  0  1.020842  0  0  0.328857  0  1.010038  0  0  0.268352  0.313308  0  1.028728  0
C  C46  1  0.68558876  0.64376926  0.83219059  1  0  0.200977  0  3.766397  0  0  0.196279  0  4.001921  0  0  0.201896  0  4.024005  0  0  0.104983  0.192362  0  3.986705  0
C  C47  1  0.66320187  0.78744347  0.88976062  1  0  -0.120349  0  3.770427  0  0  -0.142774  0  4.027618  0  0  -0.144987  0  4.048045  0  0  -0.089819  -0.141084  0  4.013074  0
C  C48  1  0.71991349  0.92935425  0.86591094  1  0  -0.15372  0  3.744139  0  0  -0.179788  0  4.003834  0  0  -0.183962  0  4.023314  0  0  -0.099365  -0.176684  0  3.990903  0
C  C49  1  0.80422982  0.93270492  0.78366922  1  0  0.278025  0  3.826914  0  0  0.273468  0  4.077595  0  0  0.284816  0  4.094134  0  0  0.085913  0.265226  0  4.066424  0
C  C50  1  0.81738760  0.79637746  0.72037828  1  0  -0.247374  0  3.721713  0  0  -0.276613  0  3.971563  0  0  -0.28314  0  3.992589  0  0  -0.111974  -0.272527  0  3.957537  0
C  C51  1  0.75555091  0.64929052  0.74221952  1  0  0.017242  0  3.747232  0  0  0.030452  0  3.971968  0  0  0.028183  0  3.99594  0  0  0.0015  0.032031  0  3.955915  0
C  C52  1  0.76220906  0.50409496  0.68007253  1  0  0.060908  0  3.627648  0  0  0.071347  0  3.861425  0  0  0.076306  0  3.87977  0  0  0.017056  0.067922  0  3.849027  0
C  C53  1  0.70472214  0.36636539  0.71219321  1  0  -0.146296  0  3.692231  0  0  -0.170913  0  3.948275  0  0  -0.177312  0  3.964941  0  0  -0.084982  -0.16687  0  3.937236  0
C  C54  1  0.65409085  0.36853135  0.80738517  1  0  0.152605  0  3.713035  0  0  0.114156  0  3.975713  0  0  0.125573  0  3.989876  0  0  0.048886  0.106467  0  3.966225  0
C  C55  1  0.95879796  0.08098468  0.69306633  1  0  -0.097394  0  3.622609  0  0  -0.198012  0  3.891617  0  0  -0.190816  0  3.895751  0  0  -0.158678  -0.202666  0  3.888306  0
C  C56  1  0.82720113  0.50047469  0.58074935  1  0  0.187909  0  3.619422  0  0  0.155783  0  3.876127  0  0  0.162076  0  3.884466  0  0  0.007546  0.151374  0  3.870709  0
C  C57  1  0.72504393  0.58413743  0.50041303  1  0  -0.089799  0  3.579028  0  0  -0.098095  0  3.818895  0  0  -0.100888  0  3.835397  0  0  -0.089011  -0.096055  0  3.807448  0
C  C58  1  0.56151147  0.53616540  0.49778803  1  0  -0.027351  0  3.507956  0  0  -0.0923  0  3.762195  0  0  -0.089308  0  3.773207  0  0  -0.063964  -0.094008  0  3.754729  0
C  C59  1  0.70255874  0.40048898  0.33667647  1  0  -0.16481  0  3.613402  0  0  -0.205684  0  3.864317  0  0  -0.207402  0  3.876486  0  0  -0.168101  -0.204309  0  3.855915  0
C  C60  1  0.53232674  0.39768880  0.32713055  1  0  0.004311  0  3.468764  0  0  -0.05152  0  3.717509  0  0  -0.048011  0  3.727475  0  0  -0.059775  -0.053755  0  3.711021  0
C  C61  1  0.76432937  0.56068336  0.39109948  1  0  0.022812  0  3.597469  0  0  0.014094  0  3.845653  0  0  0.013753  0  3.862456  0  0  -0.087108  0.014519  0  3.833749  0
C  C62  1  0.69088780  0.69592751  0.33428374  1  0  -0.199554  0  3.622602  0  0  -0.245173  0  3.86887  0  0  -0.247561  0  3.881417  0  0  -0.17588  -0.243449  0  3.861123  0
C  C63  1  0.52452243  0.69227089  0.34306239  1  0  0.000935  0  3.461619  0  0  -0.019396  0  3.701632  0  0  -0.020127  0  3.712257  0  0  0.009799  -0.019444  0  3.695145  0
C  C64  1  0.46708174  0.84243646  0.39749788  1  0  0.627357  0  3.895057  0  0  0.577434  0  4.20368  0  0  0.609953  0  4.197514  0  0  0.198575  0.555553  0  4.206858  0
C  C65  1  0.27728317  0.83132271  0.70567352  1  0  0.184074  0  3.765362  0  0  0.180321  0  4.002877  0  0  0.185219  0  4.025854  0  0  0.09869  0.176875  0  3.98741  0
C  C66  1  0.24528075  0.69250360  0.63860482  1  0  -0.144429  0  3.771607  0  0  -0.16499  0  4.024992  0  0  -0.167535  0  4.044101  0  0  -0.098053  -0.163309  0  4.01221  0
C  C67  1  0.20907753  0.55047210  0.67399876  1  0  -0.14933  0  3.755396  0  0  -0.172232  0  4.00972  0  0  -0.175782  0  4.028173  0  0  -0.098075  -0.1693  0  3.997015  0
C  C68  1  0.20121690  0.54158832  0.77873842  1  0  0.285297  0  3.818892  0  0  0.276665  0  4.075049  0  0  0.287787  0  4.092418  0  0  0.088098  0.26888  0  4.06282  0
C  C69  1  0.24219598  0.67189820  0.84760649  1  0  -0.238847  0  3.704934  0  0  -0.271054  0  3.960774  0  0  -0.277906  0  3.981966  0  0  -0.11362  -0.26595  0  3.945034  0
C  C70  1  0.27923496  0.82123684  0.81339158  1  0  0.012111  0  3.7324  0  0  0.025453  0  3.966218  0  0  0.023376  0  3.990857  0  0  -0.002116  0.027397  0  3.947549  0
C  C71  1  0.31773244  0.96401678  0.87875670  1  0  0.044278  0  3.593878  0  0  0.0522  0  3.832765  0  0  0.056596  0  3.852758  0  0  0.008183  0.049363  0  3.818836  0
C  C72  1  0.34680524  0.10123247  0.83283036  1  0  -0.165276  0  3.739947  0  0  -0.190238  0  4.003548  0  0  -0.197262  0  4.02181  0  0  -0.096384  -0.185923  0  3.991884  0
C  C73  1  0.33730210  0.10218383  0.72691125  1  0  0.14766  0  3.725535  0  0  0.110485  0  3.988564  0  0  0.121718  0  4.002256  0  0  0.047804  0.102808  0  3.979835  0
C  C74  1  0.10859713  0.38427545  0.90159304  1  0  -0.097143  0  3.592179  0  0  -0.193084  0  3.848901  0  0  -0.186704  0  3.852724  0  0  -0.153011  -0.197322  0  3.846153  0
C  C75  1  0.33991077  0.97260029  0.99554337  1  0  0.198499  0  3.602969  0  0  0.170936  0  3.852202  0  0  0.177026  0  3.861639  0  0  0.009643  0.166678  0  3.845837  0
C  C76  1  0.20962813  0.91551606  0.04786591  1  0  -0.086597  0  3.5755  0  0  -0.09584  0  3.809486  0  0  -0.098576  0  3.825027  0  0  -0.09122  -0.093948  0  3.798998  0
C  C77  1  0.06760748  0.00759506  0.02685201  1  0  -0.00736  0  3.471709  0  0  -0.071208  0  3.721459  0  0  -0.067066  0  3.73053  0  0  -0.058165  -0.07415  0  3.715284  0
C  C78  1  0.22634874  0.08089341  0.21838122  1  0  -0.17368  0  3.624872  0  0  -0.214951  0  3.872763  0  0  -0.217001  0  3.886221  0  0  -0.171761  -0.213258  0  3.863373  0
C  C79  1  0.06179454  0.12026983  0.20267528  1  0  0.012579  0  3.495448  0  0  -0.049032  0  3.757776  0  0  -0.045158  0  3.767459  0  0  -0.056563  -0.051622  0  3.7514  0
C  C80  1  0.24626391  0.91597099  0.16441028  1  0  0.018935  0  3.582989  0  0  0.012232  0  3.825321  0  0  0.011871  0  3.842542  0  0  -0.085615  0.012601  0  3.813527  0
C  C81  1  0.13672117  0.79661899  0.19882742  1  0  -0.179519  0  3.601105  0  0  -0.225327  0  3.849698  0  0  -0.226808  0  3.861997  0  0  -0.163931  -0.224156  0  3.841443  0
C  C82  1  0.97649580  0.84174168  0.16039471  1  0  0.000854  0  3.425267  0  0  -0.018272  0  3.66072  0  0  -0.018451  0  3.670013  0  0  0.013554  -0.018261  0  3.654559  0
C  C83  1  0.89576082  0.71541623  0.08068558  1  0  0.634306  0  3.880282  0  0  0.583973  0  4.1842  0  0  0.616607  0  4.177779  0  0  0.205865  0.562101  0  4.187332  0
N  N84  1  0.64513950  0.50207659  0.86657005  1  0  -0.378194  0  3.309724  0  0  -0.298332  0  3.588599  0  0  -0.318613  0  3.602762  0  0  -0.332642  -0.284741  0  3.57908  0
N  N85  1  0.48631379  0.54090020  0.39059746  1  0  -0.100503  0  3.322935  0  0  -0.017262  0  3.52915  0  0  -0.028669  0  3.545802  0  0  -0.340528  -0.009723  0  3.517895  0
N  N86  1  0.30360655  0.97202940  0.66436542  1  0  -0.373027  0  3.295915  0  0  -0.29188  0  3.564563  0  0  -0.311129  0  3.578381  0  0  -0.33149  -0.279371  0  3.556149  0
N  N87  1  0.98491774  0.00466981  0.11843621  1  0  -0.110558  0  3.306169  0  0  -0.025592  0  3.509726  0  0  -0.037927  0  3.527477  0  0  -0.337398  -0.017146  0  3.497798  0
Cl  Cl88  1  0.42399652  0.55066887  0.07743255  1  0  -0.556665  0  0.953761  0  0  -0.493137  0  1.232623  0  0  -0.509145  0  1.207772  0  0  -0.280609  -0.481693  0  1.250211  0
Cl  Cl89  1  0.71609190  0.24490989  0.05923248  1  0  -0.564722  0  0.934027  0  0  -0.501033  0  1.190382  0  0  -0.515421  0  1.164761  0  0  -0.265575  -0.490683  0  1.208416  0
Cl  Cl90  1  0.00861838  0.89894243  0.45771885  1  0  -0.587872  0  0.892185  0  0  -0.525567  0  1.158256  0  0  -0.542157  0  1.134564  0  0  -0.317045  -0.513432  0  1.174678  0
Cl  Cl91  1  0.24997811  0.25428243  0.48233172  1  0  -0.592615  0  0.881557  0  0  -0.532202  0  1.139719  0  0  -0.546769  0  1.113515  0  0  -0.312321  -0.521326  0  1.157776  0
O  O92  1  0.86948344  0.07574064  0.77435631  1  0  -0.251367  0  2.364568  0  0  -0.171419  0  2.599799  0  0  -0.191994  0  2.605569  0  0  -0.181005  -0.15675  0  2.595054  0
O  O93  1  0.85194578  0.33846214  0.54858644  1  0  -0.537646  0  2.058294  0  0  -0.494017  0  2.27602  0  0  -0.508792  0  2.266556  0  0  -0.384493  -0.483418  0  2.28293  0
O  O94  1  0.35131670  0.81439337  0.44205254  1  0  -0.664751  0  2.096518  0  0  -0.595202  0  2.376299  0  0  -0.623686  0  2.360679  0  0  -0.340421  -0.574977  0  2.386101  0
O  O95  1  0.52613147  0.97377444  0.39028662  1  0  -0.568267  0  1.873393  0  0  -0.526848  0  2.076236  0  0  -0.547851  0  2.068512  0  0  -0.319123  -0.511913  0  2.080802  0
O  O96  1  0.15132790  0.39817552  0.80215993  1  0  -0.255499  0  2.37595  0  0  -0.171515  0  2.609034  0  0  -0.192699  0  2.615727  0  0  -0.181641  -0.156222  0  2.603687  0
O  O97  1  0.38144119  0.13007588  0.03738375  1  0  -0.552489  0  2.119418  0  0  -0.507527  0  2.342271  0  0  -0.523005  0  2.333564  0  0  -0.397244  -0.496252  0  2.348225  0
O  O98  1  0.77259829  0.66116043  0.10530637  1  0  -0.641673  0  2.103845  0  0  -0.567774  0  2.376697  0  0  -0.597536  0  2.363306  0  0  -0.329683  -0.546957  0  2.384864  0
O  O99  1  0.95184327  0.67339017  0.00310107  1  0  -0.580123  0  1.989203  0  0  -0.53408  0  2.215028  0  0  -0.55654  0  2.21006  0  0  -0.302132  -0.51829  0  2.217776  0
