# generated using pymatgen
data_CuH13C19N3O4
_symmetry_space_group_name_H-M   'P 1'
_cell_length_a   7.74450533
_cell_length_b   10.13431453
_cell_length_c   12.89182239
_cell_angle_alpha   74.93425713
_cell_angle_beta   95.77430774
_cell_angle_gamma   87.13574123
_symmetry_Int_Tables_number   1
_chemical_formula_structural   CuH13C19N3O4
_chemical_formula_sum   'Cu2 H26 C38 N6 O8'
_cell_volume   969.02628214
_cell_formula_units_Z   2
loop_
 _symmetry_equiv_pos_site_id
 _symmetry_equiv_pos_as_xyz
  1  'x, y, z'
loop_
 _atom_site_type_symbol
 _atom_site_label
 _atom_site_symmetry_multiplicity
 _atom_site_fract_x
 _atom_site_fract_y
 _atom_site_fract_z
 _atom_site_occupancy
 _atom_site_hle17_ddec_charge
 _atom_site_hle17_ddec_spin_density
 _atom_site_hle17_ddec_sum_bond_order
 _atom_site_hle17_magmom
 _atom_site_hse06_10hf_ddec_charge
 _atom_site_hse06_10hf_ddec_spin_density
 _atom_site_hse06_10hf_ddec_sum_bond_order
 _atom_site_hse06_10hf_magmom
 _atom_site_hse06_ddec_charge
 _atom_site_hse06_ddec_spin_density
 _atom_site_hse06_ddec_sum_bond_order
 _atom_site_hse06_magmom
 _atom_site_pbe_cm5_charge
 _atom_site_pbe_ddec_charge
 _atom_site_pbe_ddec_spin_density
 _atom_site_pbe_ddec_sum_bond_order
 _atom_site_pbe_magmom
Cu  Cu0  1  0.72733660  0.65388376  0.71749258  1  0.806431  0.705842  1.993145  0.521  0.772401  0.784637  2.404852  0.628  0.852125  0.850217  2.338278  0.714  0.779763  0.728406  0.737275  2.448334  0.57
Cu  Cu1  1  0.27266730  0.34610771  0.28250844  1  0.806507  0.705871  1.993237  0.521  0.772626  0.784672  2.404715  0.628  0.852172  0.850234  2.338298  0.714  0.779812  0.728592  0.737317  2.448248  0.57
H  H2  1  0.54783936  0.82101755  0.49434219  1  0.092755  0.001283  0.92126  0.002  0.104433  0.001188  0.976  0.002  0.106103  0.000809  0.97453  0.001  0.127938  0.102847  0.001518  0.977465  0.002
H  H3  1  0.45213231  0.17897794  0.50566172  1  0.092683  0.001284  0.921199  0.002  0.104331  0.001188  0.975982  0.002  0.106004  0.000809  0.974505  0.001  0.127919  0.102731  0.001519  0.977456  0.002
H  H4  1  0.50866458  0.78211208  0.30889852  1  0.098841  0.000508  0.942237  0.0  0.112398  0.000567  0.993956  0.0  0.115053  0.000388  0.993901  0.0  0.107871  0.110345  0.00073  0.994417  0.001
H  H5  1  0.49128612  0.21788483  0.69110297  1  0.098901  0.000509  0.942412  0.0  0.112458  0.000567  0.994098  0.0  0.115114  0.000388  0.994044  0.0  0.107943  0.110402  0.00073  0.99456  0.001
H  H6  1  0.63989676  0.55909818  0.28485994  1  0.098792  0.000133  0.956325  0.0  0.1093  -9.8e-05  1.018409  0.0  0.111821  -0.000115  1.01583  0.0  0.108895  0.107022  -4.7e-05  1.021188  0.0
H  H7  1  0.36009048  0.44091320  0.71513831  1  0.098734  0.000132  0.95639  0.0  0.109255  -9.8e-05  1.018451  0.0  0.111775  -0.000115  1.015875  0.0  0.108909  0.106976  -4.7e-05  1.021235  0.0
H  H8  1  0.80645123  0.39146362  0.44161569  1  0.138424  0.000774  0.973745  0.001  0.14341  0.000672  1.036936  0.001  0.147356  0.000461  1.035228  0.001  0.114227  0.14054  0.00086  1.037916  0.001
H  H9  1  0.19354527  0.60855650  0.55837531  1  0.138492  0.000773  0.973487  0.001  0.143361  0.000672  1.03683  0.001  0.147308  0.000461  1.035121  0.001  0.114189  0.140489  0.000861  1.037818  0.001
H  H10  1  0.92897221  0.24776267  0.59540017  1  0.143707  0.000667  0.974122  0.001  0.150077  0.000608  1.03532  0.001  0.155123  0.000434  1.032014  0.001  0.117458  0.145837  0.000762  1.038532  0.001
H  H11  1  0.07103579  0.75224612  0.40459766  1  0.143814  0.000665  0.974003  0.001  0.150212  0.000607  1.035156  0.001  0.155254  0.000434  1.031858  0.001  0.117531  0.145991  0.000762  1.038364  0.001
H  H12  1  0.01745282  0.09890367  0.78320087  1  0.101032  3.3e-05  0.933474  0.0  0.112422  -0.000146  0.989104  0.0  0.115608  -0.000132  0.9862  0.0  0.112027  0.110078  -0.00014  0.991109  0.0
H  H13  1  0.98258427  0.90111042  0.21679258  1  0.100979  3.4e-05  0.933223  0.0  0.112369  -0.000147  0.988883  0.0  0.115557  -0.000132  0.985976  0.0  0.111999  0.110028  -0.00014  0.990896  0.0
H  H14  1  0.96362635  0.18657836  0.94311485  1  0.108979  0.000741  0.938631  0.001  0.122759  0.000732  0.990423  0.001  0.126036  0.000528  0.989401  0.001  0.111445  0.120008  0.000919  0.991944  0.001
H  H15  1  0.03640666  0.81342476  0.05688496  1  0.108945  0.000741  0.938707  0.001  0.122758  0.000732  0.99046  0.001  0.126034  0.000528  0.989441  0.001  0.111504  0.120011  0.000918  0.991978  0.001
H  H16  1  0.89274264  0.29273815  0.07223300  1  0.11975  0.000688  0.938293  0.001  0.129439  0.000633  0.996726  0.001  0.133106  0.000439  0.995071  0.001  0.112536  0.126751  0.000803  0.997956  0.001
H  H17  1  0.10722340  0.70725195  0.92776348  1  0.119893  0.000687  0.93823  0.001  0.129504  0.000633  0.996727  0.001  0.133168  0.000439  0.995075  0.001  0.112598  0.126813  0.000803  0.997959  0.001
H  H18  1  0.78497870  0.42304502  0.19071951  1  0.129949  0.000175  0.964166  0.0  0.138605  -9e-06  1.022134  0.0  0.142199  -1.3e-05  1.019386  0.0  0.115217  0.135654  8e-06  1.024428  0.0
H  H19  1  0.21500594  0.57694170  0.80928057  1  0.129822  0.000175  0.964279  0.0  0.138521  -9e-06  1.022222  0.0  0.142092  -1.4e-05  1.019511  0.0  0.115208  0.135586  8e-06  1.024491  0.0
H  H20  1  0.64146036  0.66401432  0.10814544  1  0.095723  0.00045  0.946945  0.0  0.108482  0.0005  1.001286  0.0  0.111213  0.000347  1.001154  0.0  0.106326  0.106474  0.00064  1.001609  0.001
H  H21  1  0.35854808  0.33597633  0.89186210  1  0.095767  0.000449  0.946969  0.0  0.10849  0.0005  1.001352  0.0  0.111221  0.000347  1.001219  0.0  0.106325  0.106482  0.000639  1.001673  0.001
H  H22  1  0.61427885  0.75792923  0.90496679  1  0.090048  0.000926  0.92167  0.002  0.100363  0.000948  0.977345  0.001  0.103031  0.000641  0.974918  0.001  0.122647  0.097993  0.001235  0.979668  0.002
H  H23  1  0.38571380  0.24206378  0.09503902  1  0.090089  0.000925  0.921581  0.002  0.100411  0.000948  0.977251  0.001  0.103079  0.000641  0.974829  0.001  0.122657  0.098059  0.001235  0.979547  0.002
H  H24  1  0.36304466  0.02685106  0.65613588  1  0.095352  -0.000276  0.999965  0.0  0.101786  6.9e-05  1.068361  0.0  0.105691  4.5e-05  1.066557  0.0  0.087892  0.099505  0.000104  1.069209  0.0
H  H25  1  0.63697737  0.97314632  0.34386810  1  0.095163  -0.000276  0.999754  0.0  0.101614  6.9e-05  1.068166  0.0  0.10552  4.4e-05  1.066362  0.0  0.087846  0.099332  0.000104  1.069021  0.0
H  H26  1  0.05251443  0.03045011  0.60811946  1  0.115671  0.000633  0.953992  0.001  0.126457  0.000255  1.013974  0.0  0.129554  0.000138  1.011722  0.0  0.106229  0.124454  0.000378  1.015723  0.0
H  H27  1  0.94751605  0.96954992  0.39187945  1  0.115611  0.000632  0.953895  0.001  0.126373  0.000255  1.013978  0.0  0.129462  0.000138  1.011745  0.0  0.106234  0.124374  0.000379  1.015733  0.0
C  C28  1  0.60165087  0.72751012  0.47878892  1  0.157729  -0.01266  3.670384  -0.009  0.128026  -0.004513  3.926635  -0.003  0.138212  -0.005751  3.943111  -0.004  0.063513  0.121126  -0.003508  3.916766  -0.003
C  C29  1  0.39832096  0.27248757  0.52121759  1  0.157757  -0.012651  3.670461  -0.009  0.128044  -0.004514  3.926729  -0.003  0.138239  -0.005751  3.943201  -0.004  0.063563  0.121145  -0.00351  3.916826  -0.003
C  C30  1  0.58264772  0.70527005  0.37596922  1  -0.127687  0.007637  3.736074  0.008  -0.139703  0.003382  3.987469  0.004  -0.147473  0.003009  4.008862  0.004  -0.083196  -0.134399  0.003739  3.973298  0.005
C  C31  1  0.41731154  0.29472390  0.62403940  1  -0.127634  0.007623  3.736439  0.008  -0.139642  0.003382  3.987823  0.004  -0.147414  0.003009  4.00922  0.004  -0.083181  -0.134332  0.003739  3.973631  0.005
C  C32  1  0.65658470  0.58368277  0.36230931  1  0.004148  -0.011247  3.704654  -0.007  -0.018771  -0.004905  3.961238  -0.003  -0.014185  -0.005109  3.978487  -0.003  -0.066396  -0.022081  -0.004819  3.950353  -0.003
C  C33  1  0.34339564  0.41631442  0.63769132  1  0.004155  -0.011228  3.704524  -0.007  -0.01875  -0.004905  3.961094  -0.003  -0.014165  -0.005109  3.97835  -0.003  -0.066464  -0.022057  -0.004819  3.950196  -0.003
C  C34  1  0.74815011  0.48751046  0.45087353  1  -0.110067  0.004874  3.629908  0.005  -0.128499  0.002016  3.874959  0.002  -0.134495  0.001896  3.894207  0.002  -0.069076  -0.124576  0.002222  3.862295  0.002
C  C35  1  0.25183935  0.51249644  0.54911883  1  -0.110123  0.004867  3.629364  0.005  -0.128502  0.002015  3.874485  0.002  -0.134499  0.001896  3.893736  0.002  -0.069061  -0.124581  0.002222  3.861827  0.002
C  C36  1  0.75831188  0.51548299  0.55151230  1  0.167166  -0.003925  3.734493  -0.002  0.162879  4.3e-05  3.982596  0.001  0.169044  -0.001181  4.002925  0.0  0.120242  0.158524  0.00097  3.969857  0.002
C  C37  1  0.24168319  0.48451977  0.44848273  1  0.167237  -0.00391  3.734466  -0.002  0.163  4.5e-05  3.982504  0.001  0.169168  -0.00118  4.002831  0.0  0.120295  0.158634  0.000972  3.969766  0.002
C  C38  1  0.83417963  0.41738543  0.65349342  1  0.203145  -0.007366  3.734781  -0.005  0.197223  -0.002673  3.982639  -0.002  0.208271  -0.003705  3.999619  -0.003  0.131586  0.189508  -0.001763  3.972369  -0.001
C  C39  1  0.16582411  0.58262115  0.34649938  1  0.203202  -0.007392  3.734803  -0.005  0.197246  -0.002671  3.982728  -0.002  0.208289  -0.003703  3.999697  -0.003  0.131562  0.189535  -0.001762  3.972467  -0.001
C  C40  1  0.90990585  0.28490571  0.66619184  1  -0.125195  0.005487  3.625187  0.006  -0.143313  0.002774  3.867628  0.003  -0.150325  0.002555  3.884916  0.003  -0.065753  -0.139296  0.002955  3.857991  0.003
C  C41  1  0.09010063  0.71510089  0.33380258  1  -0.125533  0.005516  3.624882  0.006  -0.143674  0.002774  3.867371  0.003  -0.150686  0.002556  3.884668  0.003  -0.065842  -0.139671  0.002956  3.857744  0.003
C  C42  1  0.95883049  0.20269739  0.77141062  1  -0.00436  -0.010255  3.714989  -0.006  -0.020542  -0.005171  3.962519  -0.003  -0.014483  -0.005178  3.977808  -0.003  -0.065244  -0.025228  -0.005178  3.953375  -0.003
C  C43  1  0.04118962  0.79730644  0.22857625  1  -0.004092  -0.01029  3.714518  -0.006  -0.020266  -0.00517  3.962064  -0.003  -0.014207  -0.00518  3.977354  -0.003  -0.065111  -0.024946  -0.005179  3.95294  -0.003
C  C44  1  0.92963113  0.25107407  0.86087335  1  -0.1512  0.005191  3.716987  0.005  -0.169559  0.002666  3.962176  0.003  -0.176903  0.002446  3.98139  0.003  -0.080509  -0.164974  0.002853  3.950362  0.003
C  C45  1  0.07038327  0.74892606  0.13911968  1  -0.151205  0.005213  3.717085  0.005  -0.169556  0.002665  3.962297  0.003  -0.176905  0.002446  3.981515  0.003  -0.080642  -0.164972  0.002853  3.950485  0.003
C  C46  1  0.85514655  0.38488043  0.84263766  1  0.188461  -0.007253  3.777656  -0.005  0.183677  -0.00256  4.024185  -0.002  0.193853  -0.003536  4.042443  -0.003  0.121516  0.176725  -0.001769  4.012618  -0.001
C  C47  1  0.14484583  0.61511880  0.15736823  1  0.188495  -0.007279  3.777401  -0.005  0.18364  -0.002559  4.024058  -0.002  0.193811  -0.003535  4.042305  -0.003  0.121597  0.176692  -0.001769  4.012492  -0.001
C  C48  1  0.80576246  0.45348902  0.92443434  1  0.157251  -0.003002  3.76977  -0.001  0.154859  0.000146  4.015279  0.001  0.161345  -0.000873  4.036846  0.0  0.114934  0.150691  0.000842  4.001166  0.002
C  C49  1  0.19422812  0.54650680  0.07556453  1  0.157338  -0.002988  3.769296  -0.001  0.154888  0.000149  4.014841  0.001  0.161366  -0.00087  4.036397  0.0  0.114846  0.150714  0.000844  4.000733  0.002
C  C50  1  0.82838784  0.39487721  0.03599640  1  -0.127379  0.003746  3.677642  0.004  -0.147176  0.001654  3.925897  0.002  -0.154265  0.001574  3.9461  0.002  -0.074303  -0.142557  0.001805  3.912642  0.002
C  C51  1  0.17158700  0.60511147  0.96399674  1  -0.127753  0.003739  3.677584  0.004  -0.147458  0.001654  3.925901  0.002  -0.154544  0.001574  3.946102  0.002  -0.074418  -0.142842  0.001805  3.912657  0.002
C  C52  1  0.76989866  0.47028441  0.10378653  1  0.011486  -0.009483  3.667927  -0.006  -0.011507  -0.00444  3.922815  -0.002  -0.005867  -0.004479  3.938502  -0.002  -0.062235  -0.015605  -0.004543  3.912917  -0.002
C  C53  1  0.23008684  0.52970312  0.89620949  1  0.011885  -0.009473  3.668012  -0.006  -0.011148  -0.004439  3.922849  -0.002  -0.005492  -0.004478  3.938535  -0.002  -0.062134  -0.01526  -0.004543  3.912945  -0.002
C  C54  1  0.69009190  0.60209892  0.05803044  1  -0.12264  0.006217  3.73869  0.007  -0.135739  0.002833  3.993076  0.003  -0.143872  0.002557  4.014741  0.003  -0.08285  -0.130327  0.003102  3.978574  0.004
C  C55  1  0.30990127  0.39789578  0.94196798  1  -0.122785  0.006209  3.738828  0.007  -0.135871  0.002832  3.993261  0.003  -0.144002  0.002556  4.014925  0.003  -0.082907  -0.130458  0.003101  3.978759  0.004
C  C56  1  0.67371786  0.65533009  0.94609164  1  0.133694  -0.010488  3.706168  -0.007  0.106207  -0.004016  3.959731  -0.003  0.115637  -0.004989  3.977307  -0.004  0.053932  0.099965  -0.003188  3.948899  -0.002
C  C57  1  0.32627540  0.34467101  0.05391073  1  0.133541  -0.010479  3.70601  -0.007  0.10603  -0.004017  3.959542  -0.003  0.115447  -0.004989  3.977107  -0.004  0.053858  0.099772  -0.003189  3.948693  -0.002
C  C58  1  0.42246091  0.80532241  0.68874703  1  0.646073  -0.007534  3.946168  -0.008  0.612706  -0.001767  4.24209  -0.003  0.650008  -0.001981  4.235427  -0.002  0.179209  0.58731  -0.001263  4.245465  -0.003
C  C59  1  0.57755711  0.19466828  0.31126619  1  0.645844  -0.007536  3.946202  -0.008  0.612461  -0.001767  4.242143  -0.003  0.649761  -0.001983  4.235471  -0.002  0.179003  0.587071  -0.001264  4.245483  -0.003
C  C60  1  0.30278356  0.93089970  0.66171630  1  -0.255234  0.011334  3.763032  0.012  -0.265309  0.004872  4.013969  0.005  -0.274643  0.003415  4.028259  0.004  -0.127171  -0.258603  0.006257  4.003205  0.007
C  C61  1  0.69725897  0.06910449  0.33828895  1  -0.254824  0.01133  3.762879  0.012  -0.264846  0.00487  4.013793  0.005  -0.274179  0.003413  4.028088  0.004  -0.126949  -0.258133  0.006255  4.003031  0.007
C  C62  1  0.12989131  0.93186696  0.63709705  1  -0.112896  -0.006095  3.641684  -0.003  -0.138272  -0.000948  3.899045  0.0  -0.136973  -0.001355  3.908961  0.0  -0.076352  -0.139538  -0.000729  3.891904  0.0
C  C63  1  0.87012968  0.06814472  0.36290277  1  -0.112816  -0.00609  3.642054  -0.003  -0.138291  -0.000947  3.899599  0.0  -0.136998  -0.001353  3.909522  0.0  -0.076385  -0.139563  -0.000729  3.892482  0.0
C  C64  1  0.02772473  0.80984323  0.63752476  1  0.695287  -0.000985  3.937039  -0.001  0.65408  -0.000535  4.234784  0.0  0.690636  -0.000508  4.223201  0.0  0.195476  0.62902  -0.000448  4.241175  0.0
C  C65  1  0.97228498  0.19015833  0.36247404  1  0.695405  -0.000984  3.936204  -0.001  0.654165  -0.000536  4.234088  0.0  0.690719  -0.000509  4.222489  0.0  0.195437  0.6291  -0.000448  4.240493  0.0
N  N66  1  0.68567598  0.63448346  0.56409868  1  -0.302031  0.072282  3.313643  0.094  -0.26229  0.052399  3.607714  0.073  -0.288833  0.041171  3.625663  0.062  -0.329479  -0.247855  0.059763  3.598549  0.079
N  N67  1  0.31431358  0.36551254  0.43590323  1  -0.302059  0.072275  3.313786  0.094  -0.262317  0.052396  3.607805  0.073  -0.288844  0.041168  3.625746  0.062  -0.329535  -0.247861  0.059763  3.598616  0.079
N  N68  1  0.81487265  0.46361097  0.74077353  1  -0.342864  0.076301  3.358523  0.098  -0.306438  0.05739  3.653094  0.079  -0.333312  0.046872  3.667053  0.069  -0.349582  -0.291649  0.063718  3.646029  0.083
N  N69  1  0.18512428  0.53638569  0.25922453  1  -0.342857  0.076314  3.358624  0.098  -0.306453  0.05739  3.653257  0.079  -0.33327  0.04687  3.667167  0.069  -0.349577  -0.291644  0.063715  3.646175  0.083
N  N70  1  0.73002552  0.58280174  0.88137692  1  -0.307808  0.063746  3.293363  0.083  -0.265098  0.048155  3.581149  0.067  -0.291067  0.037907  3.599086  0.057  -0.332449  -0.250499  0.055005  3.571312  0.073
N  N71  1  0.26996967  0.41719648  0.11863085  1  -0.307831  0.063728  3.293507  0.083  -0.265021  0.048147  3.581179  0.067  -0.290926  0.037902  3.599067  0.057  -0.332353  -0.250416  0.054994  3.571348  0.073
O  O72  1  0.58801432  0.82676025  0.69828310  1  -0.589547  0.116061  1.97051  0.156  -0.578251  0.063329  2.245006  0.093  -0.623296  0.044016  2.237682  0.07  -0.351336  -0.547508  0.076988  2.248961  0.107
O  O73  1  0.41200493  0.17322932  0.30172886  1  -0.58952  0.116054  1.970462  0.156  -0.578269  0.063322  2.244941  0.093  -0.623275  0.044012  2.237612  0.07  -0.351348  -0.547525  0.076985  2.248897  0.107
O  O74  1  0.36853834  0.68866150  0.69813330  1  -0.622274  -0.000236  1.974953  0.003  -0.591413  -0.001768  2.219142  0.0  -0.617504  -0.002647  2.210412  -0.001  -0.31933  -0.572051  -0.000694  2.224247  0.002
O  O75  1  0.63147287  0.31134082  0.30188169  1  -0.6223  -0.000234  1.974835  0.003  -0.591406  -0.001769  2.219018  0.0  -0.617489  -0.002648  2.210277  -0.001  -0.319261  -0.572041  -0.000694  2.224105  0.002
O  O76  1  0.96294063  0.75857182  0.72547703  1  -0.661539  0.004253  1.977328  0.008  -0.619632  0.001209  2.234341  0.003  -0.654278  7.2e-05  2.221482  0.002  -0.349784  -0.594089  0.002315  2.240853  0.005
O  O77  1  0.03706473  0.24144374  0.27450982  1  -0.661653  0.004255  1.976631  0.008  -0.619738  0.001208  2.233659  0.003  -0.654355  7.2e-05  2.220795  0.002  -0.349793  -0.594197  0.002313  2.240196  0.005
O  O78  1  0.00467194  0.77475678  0.55073571  1  -0.637199  0.000816  1.935784  0.001  -0.590478  -0.000136  2.158467  0.0  -0.619244  -0.000386  2.151886  0.0  -0.325868  -0.567959  0.000313  2.161327  0.001
O  O79  1  0.99535095  0.22526191  0.44926019  1  -0.637249  0.000815  1.935429  0.001  -0.590552  -0.000136  2.158192  0.0  -0.619316  -0.000386  2.151605  0.0  -0.325841  -0.568022  0.000313  2.161042  0.001
