# generated using pymatgen
data_ZnH14C20(NO)4
_symmetry_space_group_name_H-M   'P 1'
_cell_length_a   9.15205202
_cell_length_b   14.97399004
_cell_length_c   17.23929240
_cell_angle_alpha   90.00041658
_cell_angle_beta   89.99998359
_cell_angle_gamma   87.65622759
_symmetry_Int_Tables_number   1
_chemical_formula_structural   ZnH14C20(NO)4
_chemical_formula_sum   'Zn4 H56 C80 N16 O16'
_cell_volume   2360.54341369
_cell_formula_units_Z   4
loop_
 _symmetry_equiv_pos_site_id
 _symmetry_equiv_pos_as_xyz
  1  'x, y, z'
loop_
 _atom_site_type_symbol
 _atom_site_label
 _atom_site_symmetry_multiplicity
 _atom_site_fract_x
 _atom_site_fract_y
 _atom_site_fract_z
 _atom_site_occupancy
 _atom_site_pbe_bader_charge
 _atom_site_pbe_bader_spin_density
 _atom_site_pbe_cm5_charge
 _atom_site_pbe_ddec_charge
 _atom_site_pbe_ddec_spin_density
 _atom_site_pbe_ddec_sum_bond_order
 _atom_site_pbe_magmom
Zn  Zn0  1  0.24020379  0.67696237  0.75146739  1  1.260881  0  0.702117  0.792951  0  2.421909  0
Zn  Zn1  1  0.25979259  0.82303379  0.25146509  1  1.260918  0  0.702217  0.793144  0  2.42165  0
Zn  Zn2  1  0.75983561  0.32303365  0.24854083  1  1.260768  0  0.702107  0.792902  0  2.421785  0
Zn  Zn3  1  0.74015486  0.17696920  0.74853791  1  1.261017  0  0.702109  0.792967  0  2.421869  0
H  H4  1  0.48096002  0.80734441  0.80432160  1  0.223625  0  0.13409  0.103812  0  1.044961  0
H  H5  1  0.01899564  0.69267387  0.30433100  1  0.223385  0  0.13419  0.103861  0  1.045007  0
H  H6  1  0.51906149  0.19267263  0.19565994  1  0.223326  0  0.134205  0.103913  0  1.044989  0
H  H7  1  0.98093417  0.30733678  0.69566098  1  0.223389  0  0.134144  0.103835  0  1.044951  0
H  H8  1  0.57085113  0.93317711  0.72243586  1  0.543752  0  0.315477  0.294119  0  0.976768  0
H  H9  1  0.92910055  0.56683237  0.22245363  1  0.544038  0  0.315457  0.294283  0  0.976475  0
H  H10  1  0.42912451  0.06683808  0.27753118  1  0.543509  0  0.31541  0.294224  0  0.976733  0
H  H11  1  0.07087442  0.43316078  0.77754357  1  0.543479  0  0.315456  0.294152  0  0.976832  0
H  H12  1  0.28621343  0.78048746  0.58498017  1  0.096611  0  0.120338  0.117767  0  1.014291  0
H  H13  1  0.21378712  0.71948515  0.08499723  1  0.097216  0  0.120402  0.117925  0  1.014002  0
H  H14  1  0.71377280  0.21948880  0.41501471  1  0.097134  0  0.120345  0.117824  0  1.014096  0
H  H15  1  0.78622966  0.28049390  0.91501447  1  0.096841  0  0.120316  0.11776  0  1.014077  0
H  H16  1  0.62272900  0.02430338  0.62640071  1  0.08481  0  0.099726  0.102137  0  1.037665  0
H  H17  1  0.87724465  0.47568502  0.12640930  1  0.085686  0  0.099641  0.102052  0  1.037758  0
H  H18  1  0.37722727  0.97569545  0.37358024  1  0.085481  0  0.099641  0.102067  0  1.037997  0
H  H19  1  0.12279974  0.52427952  0.87360414  1  0.086638  0  0.099614  0.102017  0  1.037789  0
H  H20  1  0.33474303  0.87504846  0.48098964  1  0.061919  0  0.099774  0.096219  0  1.03162  0
H  H21  1  0.16526571  0.62492889  0.98101273  1  0.062166  0  0.099751  0.096165  0  1.031653  0
H  H22  1  0.66521328  0.12494836  0.51899131  1  0.062367  0  0.099739  0.096149  0  1.031638  0
H  H23  1  0.83477428  0.37503706  0.01899781  1  0.061996  0  0.09979  0.096223  0  1.031642  0
H  H24  1  0.48715252  0.66267352  0.02956849  1  0.057707  0  0.099234  0.097709  0  1.019776  0
H  H25  1  0.01283527  0.83732533  0.52956272  1  0.057602  0  0.099234  0.097727  0  1.019772  0
H  H26  1  0.51287302  0.33730471  0.97042697  1  0.057294  0  0.099241  0.097686  0  1.01984  0
H  H27  1  0.98711949  0.16269489  0.47042346  1  0.057272  0  0.099246  0.097667  0  1.019921  0
H  H28  1  0.43745374  0.44915674  0.86719398  1  0.068165  0  0.09809  0.099368  0  1.018373  0
H  H29  1  0.06253640  0.05084165  0.36719033  1  0.067962  0  0.098123  0.099419  0  1.018353  0
H  H30  1  0.56257399  0.55082145  0.13280438  1  0.068404  0  0.098124  0.099327  0  1.018338  0
H  H31  1  0.93739434  0.94917767  0.63279584  1  0.068578  0  0.098126  0.09939  0  1.018269  0
H  H32  1  0.03698400  0.65782666  0.53699341  1  0.118165  0  0.102437  0.105438  0  1.015617  0
H  H33  1  0.46304236  0.84216551  0.03698759  1  0.118002  0  0.102464  0.105497  0  1.015606  0
H  H34  1  0.96295188  0.34220926  0.46303512  1  0.118349  0  0.10258  0.10573  0  1.015411  0
H  H35  1  0.53702852  0.15778587  0.96302817  1  0.118414  0  0.102537  0.105701  0  1.015495  0
H  H36  1  0.07334415  0.37681868  0.59048044  1  0.084977  0  0.102724  0.105077  0  1.020062  0
H  H37  1  0.42665270  0.12317144  0.09047397  1  0.08534  0  0.10275  0.105109  0  1.0199  0
H  H38  1  0.92660931  0.62321226  0.40953997  1  0.085119  0  0.102651  0.104892  0  1.020041  0
H  H39  1  0.57340499  0.87678352  0.90953367  1  0.084883  0  0.102648  0.104839  0  1.01999  0
H  H40  1  0.21025691  0.78245215  0.90258281  1  0.168814  0  0.116973  0.124546  0  1.05236  0
H  H41  1  0.28974837  0.71755194  0.40258308  1  0.168838  0  0.11701  0.124582  0  1.052426  0
H  H42  1  0.78979873  0.21755226  0.09741845  1  0.169364  0  0.116988  0.124531  0  1.052554  0
H  H43  1  0.71021864  0.28245738  0.59742282  1  0.169598  0  0.116922  0.124508  0  1.052428  0
H  H44  1  0.82166648  0.90437318  0.80996624  1  0.545004  0  0.313236  0.291916  0  0.986617  0
H  H45  1  0.67835166  0.59564117  0.30997219  1  0.544921  0  0.313228  0.291849  0  0.986849  0
H  H46  1  0.17837307  0.09561549  0.19003386  1  0.544384  0  0.31326  0.29202  0  0.986566  0
H  H47  1  0.32163552  0.40439851  0.69002907  1  0.544307  0  0.313279  0.291965  0  0.986816  0
H  H48  1  0.90724896  0.77468703  0.71905946  1  0.146603  0  0.142965  0.105675  0  0.972255  0
H  H49  1  0.59276483  0.72532803  0.21906351  1  0.146407  0  0.142955  0.105671  0  0.972177  0
H  H50  1  0.09279398  0.22529557  0.28094877  1  0.146306  0  0.143073  0.10576  0  0.972179  0
H  H51  1  0.40720036  0.27471873  0.78094297  1  0.146078  0  0.142991  0.105557  0  0.97225  0
H  H52  1  0.09062935  0.84490530  0.02823275  1  0.076878  0  0.099525  0.095188  0  1.031751  0
H  H53  1  0.40942037  0.65511183  0.52823999  1  0.076673  0  0.09954  0.095074  0  1.031764  0
H  H54  1  0.90943613  0.15509894  0.97175865  1  0.077156  0  0.09949  0.095  0  1.031723  0
H  H55  1  0.59056503  0.34490719  0.47175663  1  0.077128  0  0.0995  0.09499  0  1.031806  0
H  H56  1  0.91334257  0.04185074  0.86777224  1  0.067336  0  0.10333  0.105172  0  1.019788  0
H  H57  1  0.58665066  0.45815548  0.36776930  1  0.067321  0  0.103395  0.105262  0  1.019724  0
H  H58  1  0.08672506  0.95815547  0.13222206  1  0.067488  0  0.103288  0.105092  0  1.019762  0
H  H59  1  0.41332712  0.54186167  0.63222790  1  0.067244  0  0.103355  0.105195  0  1.019811  0
C  C60  1  0.45462199  0.81918727  0.74372183  1  0.939582  0  0.145685  0.154055  0  3.926994  0
C  C61  1  0.04534232  0.68081880  0.24373264  1  0.93945  0  0.145579  0.15413  0  3.927156  0
C  C62  1  0.54538218  0.18082207  0.25626145  1  0.939442  0  0.145579  0.154173  0  3.927033  0
C  C63  1  0.95461062  0.31918276  0.75626340  1  0.939391  0  0.145548  0.15416  0  3.927129  0
C  C64  1  0.44385901  0.88044428  0.62594478  1  0.355401  0  0.088399  0.116735  0  4.009499  0
C  C65  1  0.05610935  0.61954763  0.12596174  1  0.356823  0  0.088505  0.117046  0  4.009127  0
C  C66  1  0.55609829  0.11955854  0.37403676  1  0.357231  0  0.088402  0.116891  0  4.009149  0
C  C67  1  0.94390641  0.38042810  0.87404648  1  0.356306  0  0.088287  0.11681  0  4.009187  0
C  C68  1  0.35578447  0.80729982  0.62937344  1  0.391878  0  0.00027  -0.086093  0  3.9451  0
C  C69  1  0.14420157  0.69268576  0.12938835  1  0.391315  0  1e-05  -0.08671  0  3.945234  0
C  C70  1  0.64419816  0.19269253  0.37061622  1  0.391375  0  0.000249  -0.086295  0  3.944965  0
C  C71  1  0.85580531  0.30729614  0.87061871  1  0.391738  0  0.000341  -0.086079  0  3.944838  0
C  C72  1  0.47342928  0.94141625  0.56264663  1  -0.025073  0  -0.010943  0.041249  0  4.059006  0
C  C73  1  0.02655295  0.55857204  0.06266305  1  -0.026267  0  -0.011164  0.041066  0  4.059406  0
C  C74  1  0.52652256  0.05858600  0.43733491  1  -0.026968  0  -0.011091  0.041178  0  4.059041  0
C  C75  1  0.97348481  0.44139595  0.93734865  1  -0.025604  0  -0.010957  0.041212  0  4.059151  0
C  C76  1  0.56683731  0.01297484  0.57161785  1  -0.027259  0  -0.093529  -0.123546  0  3.970725  0
C  C77  1  0.93314713  0.48701066  0.07162966  1  -0.027628  0  -0.093507  -0.123638  0  3.971285  0
C  C78  1  0.43312342  0.98701990  0.42836369  1  -0.026759  0  -0.093573  -0.123781  0  3.971602  0
C  C79  1  0.06689613  0.51295590  0.92838610  1  -0.028524  0  -0.093599  -0.123717  0  3.971243  0
C  C80  1  0.40768170  0.92975956  0.48976676  1  -0.002903  0  -0.088093  -0.108663  0  3.975828  0
C  C81  1  0.09232174  0.57021990  0.98978795  1  -0.001911  0  -0.087787  -0.108348  0  3.975473  0
C  C82  1  0.59226799  0.07024073  0.51021594  1  -0.002032  0  -0.087952  -0.108608  0  3.975512  0
C  C83  1  0.90772928  0.42974118  0.01022723  1  -0.004235  0  -0.088156  -0.108776  0  3.97567  0
C  C84  1  0.40587057  0.62940971  0.88329619  1  1.537632  0  0.202362  0.566048  0  4.218393  0
C  C85  1  0.09412883  0.87059181  0.38329213  1  1.538006  0  0.202225  0.565777  0  4.218563  0
C  C86  1  0.59416585  0.37057167  0.11669927  1  1.537435  0  0.202462  0.565986  0  4.218603  0
C  C87  1  0.90582049  0.12942718  0.61669579  1  1.537432  0  0.202448  0.565894  0  4.218767  0
C  C88  1  0.45849442  0.56215561  0.94255905  1  -0.074519  0  -0.016614  -0.026464  0  3.966849  0
C  C89  1  0.04149985  0.93784469  0.44255559  1  -0.074656  0  -0.016586  -0.026291  0  3.966826  0
C  C90  1  0.54154420  0.43782440  0.05743525  1  -0.075227  0  -0.01682  -0.026821  0  3.967405  0
C  C91  1  0.95844180  0.06217577  0.55743116  1  -0.075203  0  -0.016878  -0.026723  0  3.967299  0
C  C92  1  0.49352482  0.59115634  0.01738598  1  0.007625  0  -0.086564  -0.101466  0  3.990118  0
C  C93  1  0.00646050  0.90884256  0.51737996  1  0.007694  0  -0.086637  -0.101478  0  3.990132  0
C  C94  1  0.50650836  0.40882242  0.98261122  1  0.008123  0  -0.086538  -0.101138  0  3.990018  0
C  C95  1  0.99348224  0.09117789  0.48260796  1  0.007593  0  -0.086527  -0.101049  0  3.990156  0
C  C96  1  0.46547688  0.47052266  0.92556299  1  -0.008384  0  -0.087242  -0.093102  0  3.980102  0
C  C97  1  0.03451461  0.02947708  0.42555987  1  -0.007698  0  -0.087296  -0.093287  0  3.98039  0
C  C98  1  0.53455957  0.52945672  0.07443363  1  -0.00831  0  -0.087136  -0.092573  0  3.980331  0
C  C99  1  0.96542050  0.97054216  0.57442689  1  -0.008301  0  -0.087065  -0.092753  0  3.980239  0
C  C100  1  0.12749885  0.54139050  0.64886821  1  1.538243  0  0.216077  0.582604  0  4.211153  0
C  C101  1  0.37250721  0.95860142  0.14886328  1  1.538218  0  0.216053  0.582327  0  4.211468  0
C  C102  1  0.87246340  0.45863827  0.35114987  1  1.53845  0  0.215754  0.581992  0  4.211471  0
C  C103  1  0.62752517  0.04136267  0.85114030  1  1.53826  0  0.215969  0.582243  0  4.21178  0
C  C104  1  0.06108515  0.51975827  0.57218129  1  -0.076037  0  -0.018314  -0.04224  0  3.984242  0
C  C105  1  0.43892130  0.98023294  0.07217615  1  -0.076243  0  -0.018327  -0.041946  0  3.983968  0
C  C106  1  0.93885297  0.48027495  0.42784608  1  -0.076753  0  -0.018364  -0.042092  0  3.98416  0
C  C107  1  0.56114078  0.01972194  0.92783671  1  -0.07627  0  -0.018351  -0.042293  0  3.98447  0
C  C108  1  0.01990574  0.58883576  0.52060201  1  -0.038846  0  -0.081942  -0.081432  0  3.956731  0
C  C109  1  0.48011036  0.91115791  0.02059691  1  -0.038507  0  -0.082013  -0.081712  0  3.956886  0
C  C110  1  0.98002795  0.41120020  0.47942710  1  -0.038627  0  -0.081866  -0.081597  0  3.95676  0
C  C111  1  0.51996271  0.08879343  0.97941943  1  -0.038928  0  -0.081864  -0.081555  0  3.957014  0
C  C112  1  0.04094771  0.43075206  0.55093923  1  0.02021  0  -0.082394  -0.089731  0  3.967185  0
C  C113  1  0.45905039  0.06923868  0.05093246  1  0.020348  0  -0.082393  -0.089831  0  3.967039  0
C  C114  1  0.95899806  0.56928101  0.44908581  1  0.019246  0  -0.082269  -0.089378  0  3.967185  0
C  C115  1  0.54101060  0.93071555  0.94907982  1  0.01906  0  -0.082206  -0.089088  0  3.967109  0
C  C116  1  0.11198866  0.79920834  0.86965441  1  0.384936  0  -0.003531  -0.095192  0  3.953207  0
C  C117  1  0.38801908  0.70079769  0.36965495  1  0.384919  0  -0.003539  -0.095239  0  3.953354  0
C  C118  1  0.88806594  0.20079342  0.13034685  1  0.38505  0  -0.003583  -0.095194  0  3.953576  0
C  C119  1  0.61195104  0.29922026  0.63035095  1  0.385175  0  -0.003537  -0.095299  0  3.953652  0
C  C120  1  0.00889421  0.86776879  0.88034704  1  0.358424  0  0.088011  0.119204  0  4.02123  0
C  C121  1  0.49112241  0.63224310  0.38034951  1  0.35844  0  0.088003  0.119215  0  4.020968  0
C  C122  1  0.99116683  0.13223887  0.11964784  1  0.357952  0  0.08798  0.118951  0  4.021645  0
C  C123  1  0.50885964  0.36777931  0.61965175  1  0.358347  0  0.088109  0.119229  0  4.0215  0
C  C124  1  0.96092727  0.79426095  0.77210797  1  0.98859  0  0.146666  0.1531  0  3.936755  0
C  C125  1  0.53908671  0.70575279  0.27211158  1  0.988165  0  0.146584  0.153103  0  3.936732  0
C  C126  1  0.03912094  0.20573224  0.22789619  1  0.988646  0  0.146452  0.152697  0  3.936728  0
C  C127  1  0.46087978  0.29428259  0.72789258  1  0.988795  0  0.146519  0.153108  0  3.936219  0
C  C128  1  0.00085742  0.93514397  0.94094451  1  0.055219  0  -0.009323  0.046195  0  4.057925  0
C  C129  1  0.49916394  0.56486654  0.44094553  1  0.055023  0  -0.009249  0.046332  0  4.057491  0
C  C130  1  0.99920800  0.06486361  0.05905153  1  0.055205  0  -0.009288  0.046354  0  4.057518  0
C  C131  1  0.50082478  0.43515042  0.55905399  1  0.055078  0  -0.009178  0.04635  0  4.057686  0
C  C132  1  0.05207968  0.91317881  0.01568696  1  -0.112261  0  -0.086443  -0.11124  0  3.980452  0
C  C133  1  0.44796211  0.58683712  0.51569137  1  -0.111499  0  -0.086538  -0.111218  0  3.980326  0
C  C134  1  0.94799120  0.08682867  0.98430676  1  -0.11142  0  -0.086519  -0.111139  0  3.979987  0
C  C135  1  0.55202550  0.41318053  0.48430757  1  -0.111724  0  -0.086505  -0.110928  0  3.979986  0
C  C136  1  0.94920429  0.02301803  0.92598495  1  -0.009907  0  -0.090446  -0.12119  0  3.985965  0
C  C137  1  0.55080123  0.47698933  0.42598480  1  -0.009526  0  -0.090614  -0.121533  0  3.985974  0
C  C138  1  0.05086225  0.97698819  0.07400935  1  -0.009264  0  -0.090435  -0.121112  0  3.986078  0
C  C139  1  0.44918092  0.52302841  0.57401356  1  -0.009659  0  -0.09055  -0.121261  0  3.986228  0
N  N140  1  0.36436120  0.76999405  0.70244115  1  -1.22788  0  -0.362913  -0.295934  0  3.617131  0
N  N141  1  0.13561985  0.73000035  0.20245251  1  -1.227363  0  -0.362881  -0.295868  0  3.61725  0
N  N142  1  0.63565087  0.23000245  0.29754967  1  -1.22805  0  -0.362886  -0.295865  0  3.617004  0
N  N143  1  0.86434520  0.26999699  0.79754759  1  -1.227997  0  -0.362888  -0.295961  0  3.617176  0
N  N144  1  0.50448623  0.88576750  0.69954623  1  -1.295966  0  -0.372722  -0.241332  0  3.626731  0
N  N145  1  0.99546936  0.61423789  0.19956006  1  -1.296222  0  -0.372642  -0.241504  0  3.626335  0
N  N146  1  0.49548507  0.11424575  0.30043125  1  -1.295411  0  -0.372743  -0.241695  0  3.626675  0
N  N147  1  0.00451443  0.38575177  0.80044004  1  -1.295129  0  -0.372628  -0.241495  0  3.626734  0
N  N148  1  0.08134369  0.75428098  0.80222920  1  -1.249649  0  -0.362833  -0.299079  0  3.62143  0
N  N149  1  0.41866131  0.74572707  0.30223007  1  -1.24939  0  -0.362797  -0.299122  0  3.621374  0
N  N150  1  0.91870121  0.24571360  0.19777844  1  -1.24986  0  -0.36275  -0.298945  0  3.621242  0
N  N151  1  0.58130207  0.25429969  0.69777815  1  -1.250069  0  -0.362746  -0.298936  0  3.621254  0
N  N152  1  0.91453326  0.86325262  0.81776007  1  -1.296425  0  -0.365302  -0.237045  0  3.62164  0
N  N153  1  0.58548612  0.63676372  0.31776485  1  -1.296294  0  -0.365222  -0.236918  0  3.621772  0
N  N154  1  0.08551920  0.13674651  0.18223945  1  -1.295914  0  -0.365285  -0.236767  0  3.621628  0
N  N155  1  0.41449351  0.36327076  0.68223641  1  -1.295841  0  -0.365424  -0.237133  0  3.621741  0
O  O156  1  0.41761537  0.71126555  0.89567128  1  -1.171683  0  -0.325079  -0.560059  0  2.152356  0
O  O157  1  0.08240073  0.78873568  0.39567096  1  -1.171859  0  -0.324978  -0.559972  0  2.152531  0
O  O158  1  0.58242539  0.28871709  0.10432070  1  -1.171274  0  -0.325084  -0.560051  0  2.152298  0
O  O159  1  0.91758032  0.21128208  0.60432392  1  -1.17136  0  -0.325067  -0.56001  0  2.152318  0
O  O160  1  0.34457828  0.59547997  0.82230065  1  -1.169074  0  -0.341671  -0.566945  0  2.343433  0
O  O161  1  0.15540765  0.90452175  0.32229310  1  -1.169241  0  -0.341673  -0.566941  0  2.343413  0
O  O162  1  0.65545155  0.40450286  0.17769655  1  -1.169366  0  -0.341667  -0.566896  0  2.343689  0
O  O163  1  0.84451546  0.09549637  0.67768670  1  -1.169488  0  -0.341665  -0.566902  0  2.343906  0
O  O164  1  0.14264848  0.62505468  0.66179959  1  -1.178514  0  -0.326856  -0.546246  0  2.36482  0
O  O165  1  0.35735789  0.87493724  0.16179665  1  -1.178771  0  -0.326894  -0.546226  0  2.3648  0
O  O166  1  0.85734114  0.37497228  0.33821443  1  -1.17863  0  -0.326715  -0.546035  0  2.365407  0
O  O167  1  0.64264822  0.12502865  0.83820925  1  -1.178563  0  -0.326791  -0.546131  0  2.365458  0
O  O168  1  0.16611036  0.47939457  0.69566080  1  -1.219686  0  -0.324651  -0.589389  0  2.239292  0
O  O169  1  0.33389439  0.02059880  0.19565548  1  -1.219374  0  -0.324643  -0.589371  0  2.239496  0
O  O170  1  0.83385848  0.52063276  0.30435554  1  -1.219486  0  -0.324525  -0.589155  0  2.239235  0
O  O171  1  0.66612807  0.97936947  0.80434288  1  -1.219746  0  -0.324642  -0.589239  0  2.239217  0
