# generated using pymatgen
data_CuH16C8S2(ClO)2
_symmetry_space_group_name_H-M   'P 1'
_cell_length_a   7.86034665
_cell_length_b   7.86034509
_cell_length_c   10.72761506
_cell_angle_alpha   89.99975104
_cell_angle_beta   89.99972979
_cell_angle_gamma   105.00717527
_symmetry_Int_Tables_number   1
_chemical_formula_structural   CuH16C8S2(ClO)2
_chemical_formula_sum   'Cu2 H32 C16 S4 Cl4 O4'
_cell_volume   640.20003745
_cell_formula_units_Z   2
loop_
 _symmetry_equiv_pos_site_id
 _symmetry_equiv_pos_as_xyz
  1  'x, y, z'
loop_
 _atom_site_type_symbol
 _atom_site_label
 _atom_site_symmetry_multiplicity
 _atom_site_fract_x
 _atom_site_fract_y
 _atom_site_fract_z
 _atom_site_occupancy
 _atom_site_pbe_cm5_charge
 _atom_site_pbe_ddec_charge
 _atom_site_pbe_ddec_spin_density
 _atom_site_pbe_ddec_sum_bond_order
 _atom_site_pbe_magmom
Cu  Cu0  1  0.49999947  0.50000000  0.00000020  1  0.463442  0.489404  -0.597854  2.52542  -0.429
Cu  Cu1  1  0.00000147  0.99999829  0.50000050  1  0.463457  0.489448  -0.597854  2.525398  -0.429
H  H2  1  0.60320598  0.82383083  0.21922997  1  0.102807  0.127206  -0.001126  0.984128  -0.002
H  H3  1  0.67617247  0.89679772  0.71922530  1  0.102783  0.127208  -0.001126  0.984161  -0.002
H  H4  1  0.82383482  0.60320903  0.21922528  1  0.102774  0.127224  -0.001125  0.984226  -0.002
H  H5  1  0.10320268  0.32382662  0.28077653  1  0.102795  0.127194  -0.001126  0.984194  -0.002
H  H6  1  0.39679412  0.17616643  0.78077463  1  0.102792  0.127201  -0.001126  0.98423  -0.002
H  H7  1  0.32383212  0.10320219  0.28077650  1  0.102789  0.127199  -0.001126  0.984221  -0.002
H  H8  1  0.17616790  0.39679351  0.78076906  1  0.1028  0.127174  -0.001126  0.984156  -0.002
H  H9  1  0.89679513  0.67616669  0.71922527  1  0.102805  0.127218  -0.001126  0.984189  -0.002
H  H10  1  0.59680601  0.96279591  0.08812140  1  0.094261  0.125121  -6.2e-05  1.010665  0.0
H  H11  1  0.53720149  0.90319357  0.58811531  1  0.09425  0.125079  -6.2e-05  1.010687  0.0
H  H12  1  0.96279818  0.59680501  0.08811576  1  0.094225  0.125033  -6.2e-05  1.01065  0.0
H  H13  1  0.09680744  0.46279854  0.41188561  1  0.094252  0.125075  -6.2e-05  1.010704  0.0
H  H14  1  0.40319155  0.03720135  0.91188506  1  0.09424  0.125039  -6.2e-05  1.010683  0.0
H  H15  1  0.46280310  0.09680633  0.41188556  1  0.094244  0.125074  -6.2e-05  1.01069  0.0
H  H16  1  0.03720327  0.40319752  0.91187672  1  0.094241  0.125057  -6.2e-05  1.010685  0.0
H  H17  1  0.90319393  0.53719872  0.58811526  1  0.094252  0.125082  -6.2e-05  1.010707  0.0
H  H18  1  0.80075766  0.12427321  0.25378642  1  0.096203  0.081821  -0.000836  1.019595  -0.001
H  H19  1  0.37573105  0.69924367  0.75378554  1  0.096215  0.081818  -0.000835  1.019572  -0.001
H  H20  1  0.12427163  0.80075783  0.25378372  1  0.09624  0.081887  -0.000835  1.01958  -0.001
H  H21  1  0.30075539  0.62426829  0.24621631  1  0.096225  0.081826  -0.000836  1.019595  -0.001
H  H22  1  0.19924125  0.87572932  0.74621631  1  0.09623  0.081852  -0.000835  1.019562  -0.001
H  H23  1  0.62427100  0.30075623  0.24621533  1  0.09623  0.081836  -0.000835  1.019605  -0.001
H  H24  1  0.87572533  0.19924206  0.74621342  1  0.096197  0.081807  -0.000836  1.019572  -0.001
H  H25  1  0.69924310  0.37572765  0.75378363  1  0.096222  0.081799  -0.000835  1.019589  -0.001
H  H26  1  0.91609448  0.10902398  0.11167451  1  0.083719  0.048408  -0.001629  1.039917  0.0
H  H27  1  0.39097570  0.58390581  0.61167489  1  0.083732  0.04843  -0.001629  1.03989  0.0
H  H28  1  0.10902276  0.91609553  0.11167462  1  0.08375  0.048454  -0.001629  1.039939  0.0
H  H29  1  0.41609616  0.60902317  0.38832414  1  0.083732  0.048412  -0.001629  1.039903  0.0
H  H30  1  0.08390282  0.89097723  0.88832543  1  0.083734  0.048414  -0.001629  1.039913  0.0
H  H31  1  0.60902414  0.41609540  0.38832504  1  0.083743  0.048428  -0.001629  1.039884  0.0
H  H32  1  0.89097742  0.08390700  0.88832438  1  0.083732  0.048427  -0.001629  1.039894  0.0
H  H33  1  0.58390428  0.39097541  0.61167393  1  0.083737  0.048405  -0.001629  1.039866  0.0
C  C34  1  0.68028945  0.89783397  0.14224430  1  -0.157427  -0.225372  -0.002289  3.882305  0.0
C  C35  1  0.60216840  0.81971048  0.64224385  1  -0.15743  -0.225409  -0.002288  3.882223  0.0
C  C36  1  0.89782386  0.68029028  0.14224706  1  -0.157394  -0.225346  -0.002288  3.882209  0.0
C  C37  1  0.18029161  0.39783309  0.35775891  1  -0.157422  -0.225354  -0.002288  3.882331  0.0
C  C38  1  0.31970768  0.10217645  0.85775471  1  -0.157386  -0.225314  -0.002288  3.882268  0.0
C  C39  1  0.39783492  0.18028942  0.35775795  1  -0.15741  -0.225369  -0.002288  3.882343  0.0
C  C40  1  0.10216708  0.31971092  0.85775101  1  -0.15736  -0.225199  -0.002288  3.882163  0.0
C  C41  1  0.81970977  0.60216417  0.64224289  1  -0.157413  -0.225401  -0.002288  3.882319  0.0
C  C42  1  0.84223974  0.03327530  0.19002209  1  -0.083026  0.025524  -0.006274  3.928224  -0.006
C  C43  1  0.46672427  0.65776123  0.69002290  1  -0.083019  0.025539  -0.006273  3.928154  -0.006
C  C44  1  0.03328183  0.84224211  0.19002127  1  -0.083062  0.025439  -0.006274  3.928226  -0.006
C  C45  1  0.34223955  0.53327513  0.30997799  1  -0.083028  0.025543  -0.006274  3.928161  -0.006
C  C46  1  0.15775909  0.96672196  0.80997785  1  -0.083066  0.025484  -0.006274  3.928208  -0.006
C  C47  1  0.53327778  0.34223867  0.30997703  1  -0.083011  0.025548  -0.006273  3.928186  -0.006
C  C48  1  0.96672310  0.15775911  0.80997681  1  -0.083032  0.025508  -0.006274  3.928196  -0.006
C  C49  1  0.65776055  0.46672213  0.69002101  1  -0.082982  0.02568  -0.006273  3.928022  -0.006
S  S50  1  0.74382469  0.74382920  0.03754455  1  0.019504  0.104908  -0.094919  3.017214  -0.099
S  S51  1  0.75617322  0.75617110  0.53754288  1  0.019507  0.104875  -0.094925  3.017128  -0.099
S  S52  1  0.24382883  0.24382880  0.46245613  1  0.019522  0.104874  -0.094921  3.017241  -0.099
S  S53  1  0.25616981  0.25617595  0.96245445  1  0.019473  0.104853  -0.094923  3.017228  -0.099
Cl  Cl54  1  0.31802770  0.68197291  0.00000023  1  -0.285208  -0.459463  -0.080208  1.286517  -0.09
Cl  Cl55  1  0.81803034  0.18197057  0.49999946  1  -0.285241  -0.459485  -0.080207  1.286531  -0.09
Cl  Cl56  1  0.68197158  0.31802841  0.00000018  1  -0.285214  -0.45947  -0.080205  1.286505  -0.09
Cl  Cl57  1  0.18197137  0.81802801  0.50000048  1  -0.285218  -0.459462  -0.080205  1.286517  -0.09
O  O58  1  0.95663983  0.95664092  0.26192736  1  -0.239073  -0.255516  -0.001517  2.59258  -0.003
O  O59  1  0.54336159  0.54335889  0.76192617  1  -0.239169  -0.255589  -0.001517  2.592554  -0.003
O  O60  1  0.45663978  0.45663838  0.23807377  1  -0.239146  -0.255539  -0.001516  2.592559  -0.003
O  O61  1  0.04335841  0.04335897  0.73807351  1  -0.239118  -0.255547  -0.001517  2.592639  -0.003
