# generated using pymatgen
data_Ag2P2H27C27(NO2)3
_symmetry_space_group_name_H-M   'P 1'
_cell_length_a   9.79729297
_cell_length_b   9.79731733
_cell_length_c   15.89054444
_cell_angle_alpha   76.06659361
_cell_angle_beta   76.06687609
_cell_angle_gamma   75.34184633
_symmetry_Int_Tables_number   1
_chemical_formula_structural   Ag2P2H27C27(NO2)3
_chemical_formula_sum   'Ag4 P4 H54 C54 N6 O12'
_cell_volume   1405.70718964
_cell_formula_units_Z   2
loop_
 _symmetry_equiv_pos_site_id
 _symmetry_equiv_pos_as_xyz
  1  'x, y, z'
loop_
 _atom_site_type_symbol
 _atom_site_label
 _atom_site_symmetry_multiplicity
 _atom_site_fract_x
 _atom_site_fract_y
 _atom_site_fract_z
 _atom_site_occupancy
 _atom_site_hle17_bader_spin_density
 _atom_site_hle17_ddec_charge
 _atom_site_hle17_ddec_spin_density
 _atom_site_hle17_ddec_sum_bond_order
 _atom_site_hle17_magmom
 _atom_site_hse06_10hf_bader_spin_density
 _atom_site_hse06_10hf_ddec_charge
 _atom_site_hse06_10hf_ddec_spin_density
 _atom_site_hse06_10hf_ddec_sum_bond_order
 _atom_site_hse06_10hf_magmom
 _atom_site_hse06_bader_spin_density
 _atom_site_hse06_ddec_charge
 _atom_site_hse06_ddec_spin_density
 _atom_site_hse06_ddec_sum_bond_order
 _atom_site_hse06_magmom
 _atom_site_pbe_bader_spin_density
 _atom_site_pbe_cm5_charge
 _atom_site_pbe_ddec_charge
 _atom_site_pbe_ddec_spin_density
 _atom_site_pbe_ddec_sum_bond_order
 _atom_site_pbe_magmom
Ag  Ag0  1  0.90498727  0.22502924  0.58850077  1  0  0.412351  0  1.552377  0  0  0.29491  0  1.98758  0  0  0.317705  0  1.945152  0  0  0.449867  0.279512  0  2.015285  0
Ag  Ag1  1  0.22502826  0.90498896  0.08850141  1  0  0.412342  0  1.552416  0  0  0.294889  0  1.987628  0  0  0.317683  0  1.945203  0  0  0.44987  0.279502  0  2.015333  0
Ag  Ag2  1  0.75820343  0.61898321  0.26534393  1  0  0.40121  0  1.61275  0  0  0.28862  0  2.057372  0  0  0.309614  0  2.015102  0  0  0.451821  0.274353  0  2.084972  0
Ag  Ag3  1  0.61898828  0.75820479  0.76534465  1  0  0.401183  0  1.612757  0  0  0.288623  0  2.057373  0  0  0.309616  0  2.015104  0  0  0.451822  0.274348  0  2.08497  0
P  P4  1  0.89288631  0.35923600  0.44656251  1  0  0.416964  0  3.96373  0  0  0.367982  0  4.421296  0  0  0.379069  0  4.41953  0  0  0.083336  0.359732  0  4.4214  0
P  P5  1  0.35923712  0.89288769  0.94656379  1  0  0.416883  0  3.963751  0  0  0.367923  0  4.421322  0  0  0.379015  0  4.419552  0  0  0.083313  0.359675  0  4.421438  0
P  P6  1  0.85396883  0.37498088  0.26429493  1  0  0.406128  0  3.938497  0  0  0.342933  0  4.417458  0  0  0.357045  0  4.4121  0  0  0.083136  0.33225  0  4.42049  0
P  P7  1  0.37498462  0.85397198  0.76429565  1  0  0.406258  0  3.9384  0  0  0.343011  0  4.417502  0  0  0.35712  0  4.412148  0  0  0.083204  0.332341  0  4.420511  0
H  H8  1  0.11069719  0.42756249  0.28129091  1  0  0.083922  0  0.995973  0  0  0.093448  0  1.06348  0  0  0.095505  0  1.063325  0  0  0.096838  0.091597  0  1.064379  0
H  H9  1  0.42756387  0.11069896  0.78129099  1  0  0.083922  0  0.996038  0  0  0.093413  0  1.063569  0  0  0.095488  0  1.063395  0  0  0.096818  0.091564  0  1.06446  0
H  H10  1  0.28655202  0.58466553  0.24471583  1  0  0.094997  0  0.937329  0  0  0.109025  0  0.992364  0  0  0.111732  0  0.991621  0  0  0.103747  0.106894  0  0.993094  0
H  H11  1  0.58466749  0.28655514  0.74471559  1  0  0.095046  0  0.937237  0  0  0.10906  0  0.992289  0  0  0.111768  0  0.991544  0  0  0.103745  0.106895  0  0.993052  0
H  H12  1  0.30068745  0.72191206  0.35457435  1  0  0.094948  0  0.967548  0  0  0.102365  0  1.033614  0  0  0.10524  0  1.032317  0  0  0.101608  0.09965  0  1.035868  0
H  H13  1  0.72191118  0.30068773  0.85457704  1  0  0.094936  0  0.967528  0  0  0.102358  0  1.033588  0  0  0.105234  0  1.032291  0  0  0.1016  0.099642  0  1.035836  0
H  H14  1  0.13682104  0.69916532  0.50188292  1  0  0.079395  0  0.970674  0  0  0.092077  0  1.030367  0  0  0.094374  0  1.02998  0  0  0.099478  0.090557  0  1.030462  0
H  H15  1  0.69916596  0.13682043  0.00188132  1  0  0.079384  0  0.970731  0  0  0.092104  0  1.030377  0  0  0.094401  0  1.029988  0  0  0.099468  0.090586  0  1.03048  0
H  H16  1  0.95978440  0.54270307  0.53859214  1  0  0.090551  0  0.968711  0  0  0.098888  0  1.035539  0  0  0.101551  0  1.034386  0  0  0.099227  0.09692  0  1.03639  0
H  H17  1  0.54270628  0.95978373  0.03859168  1  0  0.090553  0  0.968675  0  0  0.098901  0  1.035494  0  0  0.101562  0  1.034342  0  0  0.099231  0.096934  0  1.036349  0
H  H18  1  0.79963098  0.67850541  0.41528606  1  0  0.097047  0  0.990584  0  0  0.105988  0  1.053327  0  0  0.108381  0  1.052697  0  0  0.098955  0.104433  0  1.053362  0
H  H19  1  0.67850632  0.79962892  0.91528794  1  0  0.097046  0  0.990624  0  0  0.106  0  1.053349  0  0  0.108392  0  1.052719  0  0  0.098963  0.104446  0  1.053382  0
H  H20  1  0.56275673  0.83715688  0.44682756  1  0  0.090157  0  0.949526  0  0  0.104315  0  1.003846  0  0  0.106611  0  1.003215  0  0  0.104748  0.102634  0  1.004419  0
H  H21  1  0.83715654  0.56275459  0.94682588  1  0  0.090165  0  0.949478  0  0  0.104352  0  1.003766  0  0  0.106647  0  1.003136  0  0  0.104757  0.102666  0  1.004337  0
H  H22  1  0.34794273  0.73304873  0.52427472  1  0  0.080059  0  0.961541  0  0  0.091715  0  1.022571  0  0  0.093767  0  1.022755  0  0  0.098311  0.09018  0  1.022587  0
H  H23  1  0.73304844  0.34794399  0.02427268  1  0  0.080035  0  0.961576  0  0  0.091691  0  1.022621  0  0  0.093743  0  1.022804  0  0  0.098289  0.090156  0  1.022638  0
H  H24  1  0.37008297  0.46729364  0.55827273  1  0  0.082845  0  0.972034  0  0  0.092255  0  1.03609  0  0  0.093792  0  1.03767  0  0  0.095977  0.091719  0  1.033792  0
H  H25  1  0.46729367  0.37008183  0.05827493  1  0  0.082851  0  0.97202  0  0  0.092265  0  1.03608  0  0  0.093807  0  1.037652  0  0  0.095976  0.091728  0  1.033787  0
H  H26  1  0.60542302  0.30655783  0.51890868  1  0  0.091166  0  0.95065  0  0  0.103818  0  1.011068  0  0  0.106352  0  1.010376  0  0  0.100736  0.101703  0  1.012316  0
H  H27  1  0.30655674  0.60542453  0.01891188  1  0  0.091124  0  0.950642  0  0  0.103772  0  1.01107  0  0  0.106317  0  1.010368  0  0  0.100745  0.101657  0  1.012322  0
H  H28  1  0.95609707  0.09048676  0.30888277  1  0  0.044863  0  0.943283  0  0  0.057054  0  1.00828  0  0  0.057349  0  1.008263  0  0  0.108705  0.056832  0  1.008181  0
H  H29  1  0.09048997  0.95609686  0.80888154  1  0  0.044856  0  0.943301  0  0  0.057038  0  1.008304  0  0  0.057336  0  1.008286  0  0  0.108695  0.056808  0  1.008221  0
H  H30  1  0.71804630  0.09539830  0.40596621  1  0  0.105294  0  0.970999  0  0  0.123675  0  1.036517  0  0  0.124479  0  1.038364  0  0  0.084554  0.123117  0  1.035246  0
H  H31  1  0.09539811  0.71804715  0.90596635  1  0  0.105276  0  0.97095  0  0  0.123652  0  1.036486  0  0  0.124456  0  1.038333  0  0  0.084545  0.123094  0  1.035213  0
H  H32  1  0.79601708  0.06666521  0.50115137  1  0  0.093622  0  1.004479  0  0  0.109948  0  1.080812  0  0  0.111737  0  1.079583  0  0  0.074862  0.108556  0  1.081835  0
H  H33  1  0.06666491  0.79602027  0.00115034  1  0  0.093607  0  1.004503  0  0  0.109958  0  1.080808  0  0  0.111746  0  1.079582  0  0  0.074874  0.108566  0  1.081837  0
H  H34  1  0.84232170  0.93316533  0.43467567  1  0  0.118439  0  0.936058  0  0  0.142384  0  0.990131  0  0  0.143841  0  0.99033  0  0  0.091715  0.141325  0  0.989934  0
H  H35  1  0.93316584  0.84232532  0.93467460  1  0  0.118393  0  0.93605  0  0  0.142352  0  0.990115  0  0  0.143808  0  0.990315  0  0  0.091701  0.141293  0  0.989916  0
H  H36  1  0.16991153  0.10208248  0.36889906  1  0  0.105957  0  0.951465  0  0  0.12757  0  1.010683  0  0  0.12895  0  1.010649  0  0  0.087979  0.12677  0  1.010356  0
H  H37  1  0.10208197  0.16991263  0.86889699  1  0  0.105965  0  0.951485  0  0  0.127552  0  1.010732  0  0  0.128933  0  1.010696  0  0  0.087965  0.126753  0  1.0104  0
H  H38  1  0.11249326  0.93590506  0.40339736  1  0  0.117449  0  0.95782  0  0  0.140197  0  1.014939  0  0  0.141323  0  1.015766  0  0  0.093589  0.139472  0  1.014232  0
H  H39  1  0.93590490  0.11249338  0.90339498  1  0  0.11744  0  0.957812  0  0  0.140203  0  1.01491  0  0  0.14133  0  1.015738  0  0  0.093585  0.139478  0  1.014202  0
H  H40  1  0.07097795  0.05786807  0.47734913  1  0  0.082278  0  0.995221  0  0  0.097701  0  1.074694  0  0  0.099604  0  1.073125  0  0  0.071875  0.096138  0  1.075992  0
H  H41  1  0.05786732  0.07097948  0.97734713  1  0  0.082322  0  0.995148  0  0  0.097745  0  1.074615  0  0  0.099646  0  1.073047  0  0  0.07191  0.096179  0  1.075923  0
H  H42  1  0.54661513  0.42148168  0.32128441  1  0  0.084385  0  0.962852  0  0  0.091298  0  1.035212  0  0  0.093998  0  1.034105  0  0  0.095588  0.089604  0  1.035645  0
H  H43  1  0.42148551  0.54661632  0.82128725  1  0  0.084451  0  0.962997  0  0  0.091406  0  1.035285  0  0  0.094106  0  1.034179  0  0  0.095643  0.089711  0  1.035718  0
H  H44  1  0.36304405  0.29388468  0.31236028  1  0  0.077894  0  0.984109  0  0  0.090423  0  1.045082  0  0  0.092183  0  1.045815  0  0  0.094753  0.088927  0  1.045407  0
H  H45  1  0.29388677  0.36304541  0.81236282  1  0  0.077923  0  0.98402  0  0  0.09044  0  1.045002  0  0  0.092199  0  1.045735  0  0  0.094738  0.088943  0  1.045334  0
H  H46  1  0.43565938  0.08327399  0.23689709  1  0  0.092543  0  0.983886  0  0  0.099076  0  1.051707  0  0  0.102448  0  1.049317  0  0  0.097986  0.096673  0  1.053402  0
H  H47  1  0.08327633  0.43566468  0.73689665  1  0  0.092619  0  0.983853  0  0  0.099168  0  1.051655  0  0  0.102541  0  1.049264  0  0  0.098051  0.096761  0  1.053365  0
H  H48  1  0.68901453  0.01069848  0.16331730  1  0  0.088559  0  0.945577  0  0  0.101906  0  1.000028  0  0  0.104269  0  0.999621  0  0  0.100736  0.10009  0  1.000574  0
H  H49  1  0.01070256  0.68902062  0.66331845  1  0  0.088619  0  0.945564  0  0  0.101939  0  1.000042  0  0  0.104318  0  0.999616  0  0  0.100757  0.100121  0  1.000587  0
H  H50  1  0.87277538  0.13983310  0.16974088  1  0  0.087853  0  0.977014  0  0  0.096099  0  1.044081  0  0  0.098567  0  1.04334  0  0  0.09773  0.09414  0  1.044682  0
H  H51  1  0.13983833  0.87277490  0.66974212  1  0  0.087801  0  0.97713  0  0  0.09606  0  1.044163  0  0  0.098523  0  1.043426  0  0  0.097743  0.094102  0  1.044761  0
H  H52  1  0.14834738  0.16720597  0.24126925  1  0  0.096292  0  0.972183  0  0  0.109025  0  1.032654  0  0  0.11144  0  1.031692  0  0  0.105596  0.106936  0  1.034098  0
H  H53  1  0.16721058  0.14834996  0.74127139  1  0  0.096321  0  0.972164  0  0  0.109073  0  1.032605  0  0  0.111487  0  1.031646  0  0  0.105599  0.106984  0  1.034043  0
H  H54  1  0.33526220  0.13918241  0.10866610  1  0  0.084423  0  0.991602  0  0  0.09034  0  1.064269  0  0  0.092906  0  1.063173  0  0  0.094157  0.088681  0  1.06473  0
H  H55  1  0.13918263  0.33526461  0.60866666  1  0  0.084416  0  0.991548  0  0  0.090366  0  1.064182  0  0  0.09291  0  1.063106  0  0  0.094143  0.088701  0  1.064657  0
H  H56  1  0.29884422  0.28969649  0.96251645  1  0  0.086687  0  0.970655  0  0  0.096062  0  1.034332  0  0  0.097863  0  1.035354  0  0  0.098341  0.094972  0  1.033254  0
H  H57  1  0.28969396  0.29884515  0.46251540  1  0  0.086682  0  0.970648  0  0  0.096054  0  1.034332  0  0  0.097855  0  1.035353  0  0  0.098348  0.094961  0  1.033265  0
H  H58  1  0.07473641  0.47699741  0.95122041  1  0  0.084955  0  0.972086  0  0  0.096127  0  1.03256  0  0  0.098609  0  1.032367  0  0  0.099868  0.094189  0  1.033085  0
H  H59  1  0.47699588  0.07473515  0.45122022  1  0  0.08495  0  0.972061  0  0  0.096116  0  1.032542  0  0  0.098599  0  1.032349  0  0  0.099862  0.094177  0  1.033074  0
H  H60  1  0.88868010  0.51267441  0.08607252  1  0  0.088294  0  0.963126  0  0  0.09702  0  1.031874  0  0  0.100109  0  1.029757  0  0  0.100923  0.095139  0  1.032708  0
H  H61  1  0.51267394  0.88868055  0.58607317  1  0  0.088292  0  0.963113  0  0  0.097038  0  1.031838  0  0  0.100127  0  1.02972  0  0  0.100928  0.095155  0  1.032673  0
C  C62  1  0.02266845  0.47510731  0.41225603  1  0  -0.128868  0  3.796448  0  0  -0.089463  0  4.031033  0  0  -0.095378  0  4.057186  0  0  -0.031944  -0.085127  0  4.012663  0
C  C63  1  0.47510888  0.02267189  0.91225606  1  0  -0.128779  0  3.796437  0  0  -0.089433  0  4.031078  0  0  -0.095349  0  4.057237  0  0  -0.03195  -0.085099  0  4.012713  0
C  C64  1  0.11534014  0.48712992  0.32988946  1  0  -0.079409  0  3.757197  0  0  -0.101769  0  4.0084  0  0  -0.101904  0  4.028823  0  0  -0.090693  -0.101979  0  3.994391  0
C  C65  1  0.48713036  0.11534402  0.82988758  1  0  -0.079463  0  3.757173  0  0  -0.101764  0  4.00836  0  0  -0.101913  0  4.028773  0  0  -0.090681  -0.10197  0  3.994334  0
C  C66  1  0.21510640  0.57593725  0.30921693  1  0  -0.058137  0  3.734978  0  0  -0.072391  0  3.984734  0  0  -0.075193  0  4.006046  0  0  -0.088902  -0.069715  0  3.970397  0
C  C67  1  0.57593874  0.21510845  0.80921702  1  0  -0.058152  0  3.734954  0  0  -0.072397  0  3.984683  0  0  -0.075199  0  4.005998  0  0  -0.088887  -0.069692  0  3.97034  0
C  C68  1  0.22298757  0.65284124  0.37060878  1  0  -0.055513  0  3.735466  0  0  -0.071457  0  3.986326  0  0  -0.07175  0  4.006869  0  0  -0.086623  -0.072475  0  3.974215  0
C  C69  1  0.65284110  0.22299019  0.87060915  1  0  -0.055546  0  3.735446  0  0  -0.071493  0  3.986316  0  0  -0.071786  0  4.006858  0  0  -0.086651  -0.072506  0  3.974183  0
C  C70  1  0.13088803  0.64041071  0.45315492  1  0  -0.070027  0  3.771111  0  0  -0.081797  0  4.016909  0  0  -0.084468  0  4.038825  0  0  -0.089873  -0.080759  0  4.002658  0
C  C71  1  0.64041368  0.13088844  0.95315529  1  0  -0.069954  0  3.771085  0  0  -0.081763  0  4.016876  0  0  -0.084434  0  4.03879  0  0  -0.089834  -0.080736  0  4.00264  0
C  C72  1  0.03176712  0.55205010  0.47422834  1  0  -0.077415  0  3.750818  0  0  -0.091964  0  3.990303  0  0  -0.093568  0  4.012413  0  0  -0.086578  -0.09084  0  3.97559  0
C  C73  1  0.55205051  0.03176789  0.97422716  1  0  -0.077448  0  3.75083  0  0  -0.091988  0  3.990344  0  0  -0.093592  0  4.012455  0  0  -0.086564  -0.090869  0  3.975647  0
C  C74  1  0.71837951  0.48171225  0.46218414  1  0  -0.134694  0  3.807071  0  0  -0.094169  0  4.042143  0  0  -0.099889  0  4.067442  0  0  -0.037626  -0.090949  0  4.025985  0
C  C75  1  0.48171364  0.71838101  0.96218523  1  0  -0.13468  0  3.807047  0  0  -0.09414  0  4.042086  0  0  -0.099861  0  4.067389  0  0  -0.037595  -0.090921  0  4.025929  0
C  C76  1  0.70523236  0.63147396  0.44366128  1  0  -0.082959  0  3.769231  0  0  -0.09694  0  4.008733  0  0  -0.097863  0  4.028036  0  0  -0.102525  -0.095889  0  3.995321  0
C  C77  1  0.63147525  0.70523087  0.94366309  1  0  -0.082943  0  3.76925  0  0  -0.096934  0  4.008752  0  0  -0.097857  0  4.028055  0  0  -0.102523  -0.095878  0  3.995332  0
C  C78  1  0.57150095  0.72121291  0.46441713  1  0  -0.039488  0  3.726133  0  0  -0.050557  0  3.969114  0  0  -0.051961  0  3.988711  0  0  -0.083423  -0.049609  0  3.955542  0
C  C79  1  0.72121583  0.57150079  0.96441636  1  0  -0.039513  0  3.726002  0  0  -0.050601  0  3.968986  0  0  -0.052004  0  3.988582  0  0  -0.083428  -0.049643  0  3.955402  0
C  C80  1  0.45127819  0.66259427  0.50593019  1  0  -0.05247  0  3.739333  0  0  -0.069366  0  3.989113  0  0  -0.071004  0  4.011169  0  0  -0.084217  -0.067635  0  3.974145  0
C  C81  1  0.66259372  0.45127769  0.00593131  1  0  -0.052418  0  3.73939  0  0  -0.069325  0  3.989188  0  0  -0.070962  0  4.011246  0  0  -0.084205  -0.067594  0  3.974218  0
C  C82  1  0.46376914  0.51343657  0.52511023  1  0  -0.054122  0  3.741996  0  0  -0.064149  0  3.984861  0  0  -0.066526  0  4.008243  0  0  -0.086385  -0.063097  0  3.969198  0
C  C83  1  0.51343777  0.46377128  0.02511169  1  0  -0.054195  0  3.742105  0  0  -0.064228  0  3.984959  0  0  -0.066609  0  4.008353  0  0  -0.086392  -0.063177  0  3.969301  0
C  C84  1  0.59628707  0.42295915  0.50297453  1  0  -0.072431  0  3.743101  0  0  -0.092524  0  3.987612  0  0  -0.093825  0  4.008405  0  0  -0.087526  -0.092377  0  3.974874  0
C  C85  1  0.42295938  0.59628775  0.00297723  1  0  -0.07233  0  3.743098  0  0  -0.092431  0  3.987628  0  0  -0.093734  0  4.008409  0  0  -0.087547  -0.092288  0  3.974898  0
C  C86  1  0.94098954  0.11512520  0.37481012  1  0  0.250081  0  3.584919  0  0  0.24205  0  3.824269  0  0  0.247464  0  3.840231  0  0  0.006429  0.238224  0  3.813209  0
C  C87  1  0.11512647  0.94099234  0.87480816  1  0  0.25013  0  3.58491  0  0  0.242128  0  3.824215  0  0  0.247542  0  3.840177  0  0  0.006473  0.238299  0  3.81315  0
C  C88  1  0.81641023  0.04951684  0.43300798  1  0  -0.350713  0  3.663859  0  0  -0.429321  0  3.899835  0  0  -0.43294  0  3.909851  0  0  -0.253568  -0.426596  0  3.893099  0
C  C89  1  0.04951703  0.81641275  0.93300758  1  0  -0.350635  0  3.663723  0  0  -0.429273  0  3.899686  0  0  -0.432894  0  3.909705  0  0  -0.253562  -0.426545  0  3.89295  0
C  C90  1  0.08178805  0.04990022  0.40808036  1  0  -0.342824  0  3.67063  0  0  -0.420992  0  3.907914  0  0  -0.424415  0  3.917533  0  0  -0.247273  -0.418523  0  3.900945  0
C  C91  1  0.04989929  0.08178848  0.90807851  1  0  -0.342869  0  3.670618  0  0  -0.42104  0  3.907904  0  0  -0.424463  0  3.917522  0  0  -0.247298  -0.41857  0  3.900936  0
C  C92  1  0.72222238  0.28689905  0.24762319  1  0  -0.12314  0  3.775652  0  0  -0.080343  0  4.006801  0  0  -0.087459  0  4.033947  0  0  -0.028998  -0.075289  0  3.987788  0
C  C93  1  0.28690266  0.72222548  0.74762401  1  0  -0.12299  0  3.775471  0  0  -0.080216  0  4.006642  0  0  -0.08733  0  4.033783  0  0  -0.028977  -0.075164  0  3.987629  0
C  C94  1  0.57778880  0.33121545  0.28667830  1  0  -0.067459  0  3.748833  0  0  -0.08536  0  3.989315  0  0  -0.086038  0  4.011438  0  0  -0.084152  -0.084706  0  3.974149  0
C  C95  1  0.33121867  0.57779193  0.78667885  1  0  -0.067527  0  3.7491  0  0  -0.085434  0  3.989551  0  0  -0.086113  0  4.011676  0  0  -0.084126  -0.084782  0  3.974388  0
C  C96  1  0.47496113  0.25911014  0.28188412  1  0  -0.07781  0  3.773982  0  0  -0.086207  0  4.012463  0  0  -0.090014  0  4.036002  0  0  -0.092991  -0.083748  0  3.996819  0
C  C97  1  0.25911212  0.47496577  0.78188532  1  0  -0.07795  0  3.774136  0  0  -0.086342  0  4.012646  0  0  -0.090149  0  4.036187  0  0  -0.093093  -0.08389  0  3.997009  0
C  C98  1  0.51479442  0.14309323  0.23816566  1  0  -0.059214  0  3.739734  0  0  -0.072876  0  3.986278  0  0  -0.073341  0  4.006648  0  0  -0.087504  -0.07193  0  3.971778  0
C  C99  1  0.14309708  0.51479517  0.73816689  1  0  -0.059374  0  3.739705  0  0  -0.073047  0  3.986233  0  0  -0.073515  0  4.006609  0  0  -0.087592  -0.072102  0  3.971732  0
C  C100  1  0.65754711  0.10197519  0.19679275  1  0  -0.059217  0  3.747322  0  0  -0.073142  0  3.999492  0  0  -0.075949  0  4.020969  0  0  -0.090402  -0.071173  0  3.984546  0
C  C101  1  0.10197870  0.65755293  0.69679298  1  0  -0.059185  0  3.74701  0  0  -0.073088  0  3.999164  0  0  -0.075907  0  4.020636  0  0  -0.090385  -0.071115  0  3.984213  0
C  C102  1  0.76107502  0.17390926  0.20091138  1  0  -0.062276  0  3.738696  0  0  -0.084141  0  3.98499  0  0  -0.084099  0  4.006307  0  0  -0.084258  -0.083628  0  3.969646  0
C  C103  1  0.17391542  0.76107946  0.70091074  1  0  -0.062294  0  3.738735  0  0  -0.084145  0  3.985024  0  0  -0.084101  0  4.006343  0  0  -0.084304  -0.083634  0  3.969673  0
C  C104  1  0.00347363  0.34040329  0.17276962  1  0  -0.115564  0  3.761993  0  0  -0.076115  0  3.999935  0  0  -0.081928  0  4.025129  0  0  -0.027366  -0.071612  0  3.982429  0
C  C105  1  0.34040812  0.00347434  0.67277189  1  0  -0.115503  0  3.761963  0  0  -0.076043  0  3.99988  0  0  -0.081856  0  4.025079  0  0  -0.027354  -0.071551  0  3.982404  0
C  C106  1  0.13035099  0.23615353  0.17851171  1  0  -0.059357  0  3.715347  0  0  -0.08205  0  3.957418  0  0  -0.082041  0  3.977639  0  0  -0.085681  -0.081655  0  3.944216  0
C  C107  1  0.23615643  0.13035280  0.67851373  1  0  -0.059487  0  3.715348  0  0  -0.082189  0  3.957414  0  0  -0.082183  0  3.977633  0  0  -0.085685  -0.08179  0  3.944196  0
C  C108  1  0.23602078  0.21888416  0.10286322  1  0  -0.094116  0  3.789697  0  0  -0.101679  0  4.039413  0  0  -0.104679  0  4.060088  0  0  -0.100363  -0.100501  0  4.025783  0
C  C109  1  0.21888655  0.23602070  0.60286476  1  0  -0.094061  0  3.789604  0  0  -0.101647  0  4.03932  0  0  -0.104626  0  4.060007  0  0  -0.100352  -0.100466  0  4.025674  0
C  C110  1  0.21567949  0.30421677  0.02097291  1  0  -0.06286  0  3.763599  0  0  -0.074419  0  4.006257  0  0  -0.075459  0  4.028452  0  0  -0.088089  -0.07373  0  3.991398  0
C  C111  1  0.30421661  0.21568132  0.52097220  1  0  -0.062855  0  3.76351  0  0  -0.074416  0  4.006171  0  0  -0.075452  0  4.028357  0  0  -0.088099  -0.07373  0  3.991315  0
C  C112  1  0.08989176  0.40908864  0.01497732  1  0  -0.069552  0  3.753255  0  0  -0.077088  0  3.989344  0  0  -0.08052  0  4.012193  0  0  -0.088653  -0.075412  0  3.97541  0
C  C113  1  0.40908529  0.08989041  0.51497857  1  0  -0.069544  0  3.753273  0  0  -0.077077  0  3.989365  0  0  -0.08051  0  4.012216  0  0  -0.088647  -0.075403  0  3.975438  0
C  C114  1  0.98530288  0.42832741  0.09048235  1  0  -0.063104  0  3.731135  0  0  -0.080065  0  3.967272  0  0  -0.081176  0  3.989697  0  0  -0.080829  -0.080013  0  3.952493  0
C  C115  1  0.42832873  0.98530363  0.59048428  1  0  -0.063155  0  3.731196  0  0  -0.080127  0  3.967328  0  0  -0.081239  0  3.989754  0  0  -0.080862  -0.080073  0  3.952545  0
N  N116  1  0.82094226  0.97279355  0.71488047  1  0  0.680895  0  4.12658  0  0  0.718157  0  4.401558  0  0  0.734667  0  4.427877  0  0  0.092611  0.698604  0  4.395173  0
N  N117  1  0.97279423  0.82093950  0.21488039  1  0  0.680959  0  4.126461  0  0  0.718191  0  4.401496  0  0  0.734781  0  4.427706  0  0  0.092588  0.698638  0  4.395113  0
N  N118  1  0.90652655  0.27732374  0.36056111  1  0  -0.469305  0  3.193167  0  0  -0.371605  0  3.441123  0  0  -0.391111  0  3.454363  0  0  -0.31434  -0.357536  0  3.431286  0
N  N119  1  0.27732589  0.90652854  0.86055947  1  0  -0.46941  0  3.19333  0  0  -0.371717  0  3.441278  0  0  -0.391226  0  3.454519  0  0  -0.314385  -0.357647  0  3.431442  0
N  N120  1  0.80036209  0.48663853  0.70487283  1  0  0.672842  0  4.141011  0  0  0.71532  0  4.413927  0  0  0.7441  0  4.420864  0  0  0.090779  0.696047  0  4.408203  0
N  N121  1  0.48663918  0.80036037  0.20487244  1  0  0.672706  0  4.141132  0  0  0.715098  0  4.41414  0  0  0.743876  0  4.421081  0  0  0.090664  0.695824  0  4.408413  0
O  O122  1  0.89308545  0.36929101  0.70202580  1  0  -0.464237  0  1.816742  0  0  -0.440579  0  2.048905  0  0  -0.458436  0  2.039868  0  0  -0.1971  -0.427562  0  2.05436  0
O  O123  1  0.36929000  0.89308660  0.20202489  1  0  -0.464225  0  1.816756  0  0  -0.44052  0  2.048893  0  0  -0.458378  0  2.039862  0  0  -0.197065  -0.427501  0  2.054347  0
O  O124  1  0.91477936  0.04907466  0.70688579  1  0  -0.442272  0  1.86677  0  0  -0.407101  0  2.11024  0  0  -0.423993  0  2.10704  0  0  -0.204235  -0.391557  0  2.11437  0
O  O125  1  0.04907402  0.91477949  0.20688567  1  0  -0.442306  0  1.866762  0  0  -0.40713  0  2.110243  0  0  -0.424049  0  2.10702  0  0  -0.204233  -0.391582  0  2.114375  0
O  O126  1  0.73979329  0.00302618  0.65963658  1  0  -0.461575  0  1.773027  0  0  -0.448506  0  1.991233  0  0  -0.460106  0  1.988917  0  0  -0.185095  -0.436955  0  1.995421  0
O  O127  1  0.00302547  0.73979051  0.15963774  1  0  -0.461588  0  1.772942  0  0  -0.448507  0  1.991155  0  0  -0.460131  0  1.988805  0  0  -0.185097  -0.43695  0  1.995342  0
O  O128  1  0.81408999  0.86809538  0.77894662  1  0  -0.421084  0  1.82248  0  0  -0.39589  0  2.043406  0  0  -0.409584  0  2.043299  0  0  -0.173281  -0.383109  0  2.04652  0
O  O129  1  0.86809386  0.81408929  0.27894388  1  0  -0.421144  0  1.822534  0  0  -0.395906  0  2.043428  0  0  -0.409632  0  2.043295  0  0  -0.173242  -0.383107  0  2.046521  0
O  O130  1  0.79236760  0.55242983  0.76743581  1  0  -0.448277  0  1.860011  0  0  -0.422669  0  2.104957  0  0  -0.442684  0  2.097101  0  0  -0.205784  -0.408301  0  2.109685  0
O  O131  1  0.55243106  0.79236732  0.26743525  1  0  -0.448276  0  1.860002  0  0  -0.422647  0  2.104962  0  0  -0.442661  0  2.097105  0  0  -0.205789  -0.408277  0  2.10969  0
O  O132  1  0.72015272  0.53693796  0.64939789  1  0  -0.445826  0  1.76494  0  0  -0.443095  0  1.978937  0  0  -0.457362  0  1.973933  0  0  -0.180296  -0.432602  0  1.98146  0
O  O133  1  0.53693779  0.72015275  0.14939822  1  0  -0.445688  0  1.765034  0  0  -0.442915  0  1.979051  0  0  -0.457181  0  1.974051  0  0  -0.180196  -0.432422  0  1.981579  0
