# generated using pymatgen
data_ZnH15C12(NO2)2
_symmetry_space_group_name_H-M   'P 1'
_cell_length_a   10.69057981
_cell_length_b   17.31412903
_cell_length_c   17.31328024
_cell_angle_alpha   119.99777713
_cell_angle_beta   89.99835306
_cell_angle_gamma   90.00082007
_symmetry_Int_Tables_number   1
_chemical_formula_structural   ZnH15C12(NO2)2
_chemical_formula_sum   'Zn6 H90 C72 N12 O24'
_cell_volume   2775.37471694
_cell_formula_units_Z   6
loop_
 _symmetry_equiv_pos_site_id
 _symmetry_equiv_pos_as_xyz
  1  'x, y, z'
loop_
 _atom_site_type_symbol
 _atom_site_label
 _atom_site_symmetry_multiplicity
 _atom_site_fract_x
 _atom_site_fract_y
 _atom_site_fract_z
 _atom_site_occupancy
 _atom_site_pbe_bader_charge
 _atom_site_pbe_bader_spin_density
 _atom_site_pbe_cm5_charge
 _atom_site_pbe_ddec_charge
 _atom_site_pbe_ddec_spin_density
 _atom_site_pbe_ddec_sum_bond_order
 _atom_site_pbe_magmom
Zn  Zn0  1  0.85198623  0.92702921  0.46585385  1  1.270429  0  0.7064  0.78441  0  2.376965  0
Zn  Zn1  1  0.68546930  0.46569873  0.53871437  1  1.270743  0  0.706554  0.784948  0  2.377152  0
Zn  Zn2  1  0.51832888  0.53885708  0.07308751  1  1.270138  0  0.706407  0.784473  0  2.376795  0
Zn  Zn3  1  0.35202101  0.07296068  0.53415169  1  1.270497  0  0.70639  0.784686  0  2.376815  0
Zn  Zn4  1  0.18518277  0.53430980  0.46127552  1  1.270481  0  0.706709  0.784521  0  2.378736  0
Zn  Zn5  1  0.01827677  0.46115618  0.92688214  1  1.27078  0  0.706437  0.784347  0  2.376988  0
H  H6  1  0.29653432  0.65482640  0.09856193  1  0.160727  0  0.12145  0.099026  0  1.024158  0
H  H7  1  0.13035156  0.09842518  0.44378102  1  0.139761  0  0.121088  0.098349  0  1.024526  0
H  H8  1  0.96365669  0.44407246  0.34536735  1  0.136152  0  0.12119  0.098599  0  1.024601  0
H  H9  1  0.79653880  0.34519315  0.90143227  1  0.155783  0  0.121361  0.099023  0  1.024013  0
H  H10  1  0.63036635  0.90157356  0.55622541  1  0.140418  0  0.121074  0.0983  0  1.024264  0
H  H11  1  0.46363685  0.55594704  0.65463777  1  0.135814  0  0.121079  0.098455  0  1.024716  0
H  H12  1  0.64220362  0.69903441  0.22192616  1  0.127545  0  0.121952  0.100539  0  1.015304  0
H  H13  1  0.47566260  0.22227429  0.52344645  1  0.144845  0  0.121769  0.100648  0  1.014686  0
H  H14  1  0.30927124  0.52336845  0.30125135  1  0.120438  0  0.12193  0.100715  0  1.014957  0
H  H15  1  0.14222956  0.30095939  0.77805843  1  0.129348  0  0.12199  0.100531  0  1.015415  0
H  H16  1  0.97566143  0.77769856  0.47655314  1  0.144602  0  0.121797  0.1007  0  1.014681  0
H  H17  1  0.80923268  0.47665388  0.69873407  1  0.120854  0  0.121808  0.100626  0  1.015153  0
H  H18  1  0.23036708  0.81339242  0.20100480  1  0.097818  0  0.11301  0.125968  0  1.008552  0
H  H19  1  0.06402080  0.20084520  0.38769704  1  0.108025  0  0.113406  0.12648  0  1.008518  0
H  H20  1  0.89755474  0.38795288  0.18680082  1  0.10852  0  0.113528  0.126433  0  1.008225  0
H  H21  1  0.73038113  0.18661703  0.79900185  1  0.100692  0  0.112999  0.125962  0  1.008493  0
H  H22  1  0.56401112  0.79916103  0.61231810  1  0.108702  0  0.113472  0.126636  0  1.00853  0
H  H23  1  0.39754297  0.61208839  0.81319527  1  0.10748  0  0.113448  0.126293  0  1.008145  0
H  H24  1  0.22096286  0.84043945  0.36484162  1  0.067886  0  0.111512  0.080744  0  1.005924  0
H  H25  1  0.05402474  0.36505813  0.52439852  1  0.071181  0  0.111883  0.081537  0  1.006079  0
H  H26  1  0.88769586  0.52421967  0.15952740  1  0.063139  0  0.111448  0.080531  0  1.006939  0
H  H27  1  0.72096131  0.15955524  0.63518111  1  0.067882  0  0.111524  0.080815  0  1.005772  0
H  H28  1  0.55398208  0.63494660  0.47560329  1  0.071238  0  0.111857  0.081564  0  1.00586  0
H  H29  1  0.38768075  0.47579249  0.84046909  1  0.062956  0  0.111437  0.080509  0  1.006951  0
H  H30  1  0.20896790  0.80735133  0.48448206  1  0.050686  0  0.097248  0.064469  0  0.978585  0
H  H31  1  0.04189790  0.48477299  0.67701656  1  0.047773  0  0.097352  0.06494  0  0.978974  0
H  H32  1  0.87489114  0.67693060  0.19234304  1  0.042683  0  0.097616  0.065176  0  0.978011  0
H  H33  1  0.70896131  0.19265040  0.51554193  1  0.048237  0  0.097289  0.064586  0  0.978525  0
H  H34  1  0.54184925  0.51517512  0.32296354  1  0.048723  0  0.097365  0.064821  0  0.978822  0
H  H35  1  0.37489097  0.32309374  0.80765653  1  0.043649  0  0.097572  0.065053  0  0.978301  0
H  H36  1  0.44117550  0.98955710  0.35178664  1  0.067838  0  0.114753  0.107028  0  0.963101  0
H  H37  1  0.27454953  0.35163851  0.36223593  1  0.077026  0  0.115202  0.107771  0  0.962473  0
H  H38  1  0.10876215  0.36273598  0.01070153  1  0.087866  0  0.114938  0.107366  0  0.962733  0
H  H39  1  0.94118127  0.01043204  0.64823654  1  0.068434  0  0.114731  0.106941  0  0.963009  0
H  H40  1  0.77458678  0.64827686  0.63769651  1  0.077285  0  0.1153  0.107866  0  0.962451  0
H  H41  1  0.60872423  0.63728043  0.98928762  1  0.083938  0  0.114902  0.107408  0  0.962855  0
H  H42  1  0.28193667  0.96025448  0.31876162  1  0.095405  0  0.118499  0.115056  0  0.954522  0
H  H43  1  0.11533992  0.31861906  0.35864456  1  0.09466  0  0.118932  0.115983  0  0.953876  0
H  H44  1  0.94954653  0.35837722  0.03968031  1  0.092494  0  0.118437  0.114901  0  0.954479  0
H  H45  1  0.78194346  0.03975417  0.68125530  1  0.095237  0  0.11851  0.115188  0  0.954237  0
H  H46  1  0.61536184  0.68132381  0.64137297  1  0.094701  0  0.119003  0.115956  0  0.954307  0
H  H47  1  0.44953526  0.64165593  0.96031603  1  0.090224  0  0.118557  0.115045  0  0.954574  0
H  H48  1  0.59252373  0.85895680  0.32783753  1  0.173889  0  0.112442  0.139246  0  1.02608  0
H  H49  1  0.42583890  0.32814141  0.46938694  1  0.159488  0  0.112713  0.139257  0  1.025758  0
H  H50  1  0.25968950  0.46937951  0.14133125  1  0.169328  0  0.112727  0.139353  0  1.025636  0
H  H51  1  0.09253784  0.14103820  0.67216986  1  0.173952  0  0.112455  0.139239  0  1.026267  0
H  H52  1  0.92581888  0.67183624  0.53062837  1  0.155892  0  0.112697  0.139286  0  1.025762  0
H  H53  1  0.75966638  0.53064330  0.85865689  1  0.169017  0  0.11265  0.139214  0  1.025645  0
H  H54  1  0.42551963  0.93983604  0.57544700  1  0.05463  0  0.084477  0.118276  0  1.052147  0
H  H55  1  0.25888808  0.57557107  0.63575411  1  0.048367  0  0.084421  0.118395  0  1.051855  0
H  H56  1  0.09163122  0.63550416  0.06000684  1  0.048966  0  0.084451  0.118151  0  1.051982  0
H  H57  1  0.92553014  0.06016495  0.42457964  1  0.051781  0  0.084493  0.118273  0  1.052048  0
H  H58  1  0.75891036  0.42442578  0.36425076  1  0.048215  0  0.084462  0.118392  0  1.051835  0
H  H59  1  0.59161941  0.36451191  0.93998295  1  0.048995  0  0.084471  0.118132  0  1.051909  0
H  H60  1  0.36978114  0.86347371  0.60719880  1  0.013764  0  0.088254  0.123793  0  1.023568  0
H  H61  1  0.20291894  0.60725657  0.74381526  1  0.012018  0  0.088753  0.124235  0  1.023981  0
H  H62  1  0.03562063  0.74357884  0.13622284  1  0.054357  0  0.088582  0.124224  0  1.023341  0
H  H63  1  0.86978918  0.13652640  0.39281932  1  0.014098  0  0.088252  0.123767  0  1.02348  0
H  H64  1  0.70290709  0.39272083  0.25618118  1  0.012176  0  0.088701  0.12419  0  1.023881  0
H  H65  1  0.53561082  0.25643528  0.86377337  1  0.054832  0  0.088631  0.124246  0  1.02341  0
H  H66  1  0.27146167  0.95064206  0.61757128  1  0.035261  0  0.086451  0.124335  0  1.007278  0
H  H67  1  0.10489245  0.61775003  0.66695124  1  0.037823  0  0.086367  0.12429  0  1.007486  0
H  H68  1  0.93754384  0.66656932  0.04897562  1  0.03965  0  0.086293  0.123705  0  1.008085  0
H  H69  1  0.77145608  0.04935469  0.38245194  1  0.03707  0  0.08648  0.124307  0  1.00741  0
H  H70  1  0.60490492  0.38220633  0.33305530  1  0.037371  0  0.086331  0.124229  0  1.007397  0
H  H71  1  0.43753924  0.33345560  0.95102340  1  0.038426  0  0.086185  0.123605  0  1.008144  0
H  H72  1  0.35715923  0.72424274  0.35659258  1  0.000287  0  0.084321  0.117772  0  1.009697  0
H  H73  1  0.18957517  0.35674567  0.63254750  1  0.001115  0  0.084166  0.117557  0  1.010045  0
H  H74  1  0.02313888  0.63270922  0.27584299  1  0.030715  0  0.084025  0.117066  0  1.010111  0
H  H75  1  0.85716456  0.27576899  0.64342337  1  0.00028  0  0.084299  0.117792  0  1.009706  0
H  H76  1  0.68954043  0.64323431  0.36744777  1  0.001305  0  0.084202  0.11764  0  1.009859  0
H  H77  1  0.52316783  0.36729358  0.72414744  1  0.030359  0  0.08407  0.117161  0  1.010008  0
H  H78  1  0.40559123  0.72504861  0.45503975  1  0.043528  0  0.087834  0.125599  0  1.020071  0
H  H79  1  0.23791379  0.45518106  0.73025602  1  0.058219  0  0.088209  0.125719  0  1.019541  0
H  H80  1  0.07128518  0.73026484  0.27478391  1  0.01747  0  0.087938  0.125982  0  1.019181  0
H  H81  1  0.90559448  0.27494849  0.54496803  1  0.043953  0  0.087814  0.125496  0  1.02008  0
H  H82  1  0.73786167  0.54479511  0.26973988  1  0.057865  0  0.088254  0.125824  0  1.019421  0
H  H83  1  0.57128291  0.26973543  0.72521513  1  0.017517  0  0.0879  0.125867  0  1.019167  0
H  H84  1  0.48055315  0.79621286  0.42235933  1  0.029971  0  0.083278  0.117678  0  1.032059  0
H  H85  1  0.31340093  0.42231946  0.62653955  1  0.036985  0  0.083112  0.11707  0  1.032192  0
H  H86  1  0.14660241  0.62649547  0.20392964  1  0.04401  0  0.083168  0.116984  0  1.032751  0
H  H87  1  0.98056362  0.20379424  0.57765443  1  0.029558  0  0.083264  0.117647  0  1.031995  0
H  H88  1  0.81336353  0.57763999  0.37345093  1  0.037459  0  0.083202  0.117207  0  1.032199  0
H  H89  1  0.64660858  0.37350985  0.79607108  1  0.043936  0  0.08311  0.116931  0  1.032748  0
H  H90  1  0.88863451  0.84617186  0.21496607  1  0.06631  0  0.097851  0.003112  0  0.976523  0
H  H91  1  0.72206895  0.21476733  0.36880851  1  0.031424  0  0.098554  0.003873  0  0.976052  0
H  H92  1  0.55341304  0.36896450  0.15437396  1  0.024451  0  0.098121  0.002966  0  0.975788  0
H  H93  1  0.38859700  0.15384919  0.78504463  1  0.066443  0  0.097773  0.002927  0  0.97675  0
H  H94  1  0.22215443  0.78523386  0.63122272  1  0.031506  0  0.098543  0.003699  0  0.976107  0
H  H95  1  0.05337869  0.63102135  0.84560631  1  0.025038  0  0.098168  0.003009  0  0.97588  0
C  C96  1  0.13136189  0.94685106  0.48358537  1  1.687004  0  0.23309  0.588842  0  4.165428  0
C  C97  1  0.96484635  0.48374803  0.53656521  1  1.631635  0  0.231914  0.586733  0  4.164721  0
C  C98  1  0.79747693  0.53627990  0.05317241  1  1.641244  0  0.232258  0.587146  0  4.1638  0
C  C99  1  0.63138864  0.05314146  0.51642149  1  1.687033  0  0.233053  0.588905  0  4.165296  0
C  C100  1  0.46463042  0.51619851  0.46342160  1  1.632936  0  0.232719  0.586696  0  4.165826  0
C  C101  1  0.29747448  0.46373541  0.94682487  1  1.641822  0  0.232247  0.587107  0  4.164213  0
C  C102  1  0.35834228  0.70250205  0.15065442  1  0.432938  0  0.049964  0.094521  0  3.932865  0
C  C103  1  0.19207647  0.15060266  0.44830295  1  0.401796  0  0.050649  0.095615  0  3.933087  0
C  C104  1  0.02543836  0.44859787  0.29773886  1  0.501935  0  0.050012  0.094301  0  3.933102  0
C  C105  1  0.85836492  0.29750771  0.84934153  1  0.436858  0  0.050049  0.09427  0  3.932841  0
C  C106  1  0.69208750  0.84939164  0.55171259  1  0.401378  0  0.050738  0.095777  0  3.933101  0
C  C107  1  0.52541627  0.55141437  0.70225364  1  0.501271  0  0.050064  0.094325  0  3.932832  0
C  C108  1  0.55223131  0.72732047  0.21984321  1  0.505728  0  0.049085  0.095412  0  3.92112  0
C  C109  1  0.38573083  0.22010241  0.49296609  1  0.44034  0  0.049839  0.096224  0  3.921241  0
C  C110  1  0.21927830  0.49302418  0.27293976  1  0.457029  0  0.049536  0.094728  0  3.920117  0
C  C111  1  0.05225278  0.27268106  0.78015144  1  0.502167  0  0.04898  0.095252  0  3.920956  0
C  C112  1  0.88573019  0.77987871  0.50703607  1  0.442116  0  0.049937  0.096251  0  3.920941  0
C  C113  1  0.71923819  0.50699489  0.72704937  1  0.456702  0  0.04947  0.094596  0  3.920672  0
C  C114  1  0.32292855  0.79054330  0.20728900  1  -0.04913  0  -0.079536  -0.184073  0  3.938981  0
C  C115  1  0.15653530  0.20725968  0.41693781  1  0.011751  0  -0.080171  -0.184456  0  3.938307  0
C  C116  1  0.99005748  0.41718605  0.20967608  1  -0.03762  0  -0.079227  -0.183513  0  3.938065  0
C  C117  1  0.82294900  0.20945741  0.79270855  1  -0.050764  0  -0.079492  -0.183959  0  3.938828  0
C  C118  1  0.65653149  0.79274373  0.58308082  1  0.020777  0  -0.080275  -0.184724  0  3.93874  0
C  C119  1  0.49005452  0.58285144  0.79033253  1  -0.036264  0  -0.079131  -0.183042  0  3.937742  0
C  C120  1  0.25416216  0.89088780  0.43142544  1  0.381468  0  0.014689  -0.044253  0  3.867178  0
C  C121  1  0.08732358  0.43161950  0.54051522  1  0.373147  0  0.014155  -0.044095  0  3.868054  0
C  C122  1  0.92054761  0.54036640  0.10900434  1  0.388076  0  0.015488  -0.042092  0  3.866671  0
C  C123  1  0.75415597  0.10911729  0.56858976  1  0.383153  0  0.014853  -0.044421  0  3.866645  0
C  C124  1  0.58742985  0.56841282  0.45945955  1  0.375531  0  0.014913  -0.042389  0  3.868527  0
C  C125  1  0.42053077  0.45964224  0.89098470  1  0.386574  0  0.01535  -0.04195  0  3.866875  0
C  C126  1  0.29541360  0.84013932  0.48119317  1  0.02684  0  -0.080316  0.105371  0  3.839454  0
C  C127  1  0.12848706  0.48134134  0.64103099  1  0.020925  0  -0.081326  0.102311  0  3.842913  0
C  C128  1  0.96144152  0.64095612  0.15967532  1  0.041471  0  -0.081609  0.102188  0  3.84186  0
C  C129  1  0.79540987  0.15986053  0.51882537  1  0.03042  0  -0.080249  0.105328  0  3.839816  0
C  C130  1  0.62844620  0.51859977  0.35894186  1  0.019118  0  -0.081441  0.102429  0  3.843707  0
C  C131  1  0.46143785  0.35906774  0.84032086  1  0.040451  0  -0.081566  0.102428  0  3.84215  0
C  C132  1  0.36699866  0.94173274  0.34249425  1  0.294694  0  -0.056512  -0.105331  0  3.972119  0
C  C133  1  0.20042160  0.34247121  0.40088710  1  0.296778  0  -0.057675  -0.107607  0  3.971455  0
C  C134  1  0.03425384  0.40099684  0.05836160  1  0.277177  0  -0.057459  -0.10707  0  3.973692  0
C  C135  1  0.86701817  0.05827290  0.65752877  1  0.294589  0  -0.056516  -0.105559  0  3.97088  0
C  C136  1  0.70041405  0.65749820  0.59910005  1  0.297623  0  -0.058088  -0.107738  0  3.971902  0
C  C137  1  0.53422940  0.59902947  0.94163747  1  0.283169  0  -0.057593  -0.107096  0  3.975002  0
C  C138  1  0.40584929  0.84842629  0.27349396  1  -0.044303  0  0.016745  0.150918  0  3.930157  0
C  C139  1  0.23933304  0.27357620  0.42536407  1  -0.037178  0  0.016419  0.149428  0  3.931211  0
C  C140  1  0.07295335  0.42553552  0.15178634  1  -0.079565  0  0.016902  0.150114  0  3.931453  0
C  C141  1  0.90587053  0.15157414  0.72651048  1  -0.044062  0  0.016719  0.151007  0  3.930255  0
C  C142  1  0.73931878  0.72642055  0.57465973  1  -0.04765  0  0.016494  0.149521  0  3.931149  0
C  C143  1  0.57292326  0.57449201  0.84821658  1  -0.081  0  0.016668  0.149597  0  3.932523  0
C  C144  1  0.52397525  0.81618295  0.27812733  1  -0.039584  0  -0.076007  -0.169217  0  3.913123  0
C  C145  1  0.35737917  0.27834189  0.46235172  1  -0.017879  0  -0.076063  -0.168126  0  3.913814  0
C  C146  1  0.19105326  0.46243963  0.18406197  1  -0.015893  0  -0.076212  -0.167879  0  3.912  0
C  C147  1  0.02399740  0.18381221  0.72187881  1  -0.041535  0  -0.075968  -0.169153  0  3.913168  0
C  C148  1  0.85737117  0.72164191  0.53766098  1  -0.014447  0  -0.075898  -0.167902  0  3.913496  0
C  C149  1  0.69102195  0.53757935  0.81592892  1  -0.014812  0  -0.076047  -0.167469  0  3.912203  0
C  C150  1  0.34283147  0.90219601  0.57537162  1  -0.069479  0  -0.253846  -0.416576  0  3.929113  0
C  C151  1  0.17611342  0.57549023  0.67324249  1  -0.068217  0  -0.253936  -0.416142  0  3.930292  0
C  C152  1  0.00883265  0.67299758  0.09753892  1  -0.126511  0  -0.253828  -0.415674  0  3.930009  0
C  C153  1  0.84283345  0.09779829  0.42464585  1  -0.069336  0  -0.253883  -0.416464  0  3.929118  0
C  C154  1  0.67612525  0.42446725  0.32675587  1  -0.066356  0  -0.253662  -0.415859  0  3.93011  0
C  C155  1  0.50881892  0.32701833  0.90245021  1  -0.125564  0  -0.25388  -0.415734  0  3.929955  0
C  C156  1  0.39039395  0.76740892  0.42522058  1  -0.065406  0  -0.247644  -0.395322  0  3.903401  0
C  C157  1  0.22302349  0.42532936  0.65803168  1  -0.070025  0  -0.247798  -0.393982  0  3.903685  0
C  C158  1  0.05632357  0.65804865  0.23256210  1  -0.071091  0  -0.246963  -0.39324  0  3.903104  0
C  C159  1  0.89039022  0.23258733  0.57479063  1  -0.066037  0  -0.247607  -0.395214  0  3.903646  0
C  C160  1  0.72298745  0.57464515  0.34196152  1  -0.070119  0  -0.247646  -0.394094  0  3.903576  0
C  C161  1  0.55632847  0.34195950  0.76743508  1  -0.071201  0  -0.246914  -0.393216  0  3.903174  0
C  C162  1  0.91987198  0.87862086  0.28582065  1  1.54994  0  0.130244  0.482082  0  4.291283  0
C  C163  1  0.75327297  0.28560483  0.40722574  1  1.583777  0  0.129215  0.481521  0  4.291377  0
C  C164  1  0.58517301  0.40715214  0.12180682  1  1.586626  0  0.129721  0.482339  0  4.290524  0
C  C165  1  0.41983603  0.12138888  0.71419617  1  1.548414  0  0.130136  0.482107  0  4.29183  0
C  C166  1  0.25331747  0.71439219  0.59279408  1  1.580875  0  0.129415  0.482279  0  4.290934  0
C  C167  1  0.08514007  0.59284132  0.87816181  1  1.585817  0  0.129818  0.482393  0  4.290547  0
N  N168  1  0.47025338  0.67083993  0.15791795  1  -1.268668  0  -0.325282  -0.230273  0  3.553529  0
N  N169  1  0.30392928  0.15800332  0.48734080  1  -1.255999  0  -0.325843  -0.231211  0  3.554295  0
N  N170  1  0.13731975  0.48752490  0.32939842  1  -1.260901  0  -0.326165  -0.229727  0  3.55344  0
N  N171  1  0.97027143  0.32917194  0.84207274  1  -1.266042  0  -0.325223  -0.229951  0  3.553478  0
N  N172  1  0.80393724  0.84198271  0.51267178  1  -1.257008  0  -0.325956  -0.231151  0  3.554039  0
N  N173  1  0.63728889  0.51248070  0.67058139  1  -1.260345  0  -0.326242  -0.230055  0  3.553019  0
N  N174  1  0.34060160  0.95025945  0.42868413  1  -0.992393  0  -0.337869  -0.227667  0  3.26335  0
N  N175  1  0.17393206  0.42877094  0.47838486  1  -0.997858  0  -0.337461  -0.226793  0  3.260758  0
N  N176  1  0.00711231  0.47844766  0.04960496  1  -0.994784  0  -0.337555  -0.226833  0  3.263991  0
N  N177  1  0.84057526  0.04971793  0.57131912  1  -0.993845  0  -0.338097  -0.227248  0  3.261784  0
N  N178  1  0.67396540  0.57123950  0.52150976  1  -1.000448  0  -0.336736  -0.227059  0  3.263431  0
N  N179  1  0.50712223  0.52157042  0.95037971  1  -0.992438  0  -0.33732  -0.22736  0  3.264694  0
O  O180  1  0.03981840  0.89595998  0.47098823  1  -1.156713  0  -0.288627  -0.514296  0  2.389672  0
O  O181  1  0.87314872  0.47143177  0.57495804  1  -1.153772  0  -0.288168  -0.513818  0  2.391133  0
O  O182  1  0.70606113  0.57450161  0.10424026  1  -1.15465  0  -0.288444  -0.513598  0  2.391153  0
O  O183  1  0.53982606  0.10402077  0.52901587  1  -1.156638  0  -0.288732  -0.514447  0  2.389901  0
O  O184  1  0.37309196  0.52871716  0.42509946  1  -1.152285  0  -0.287273  -0.512516  0  2.391328  0
O  O185  1  0.20605455  0.42550139  0.89576172  1  -1.155098  0  -0.288359  -0.513546  0  2.390824  0
O  O186  1  0.13799109  0.02972371  0.52938009  1  -1.181974  0  -0.285346  -0.512413  0  2.264707  0
O  O187  1  0.97152461  0.52939297  0.49929073  1  -1.133267  0  -0.286148  -0.513102  0  2.26503  0
O  O188  1  0.80377803  0.49909508  0.97027741  1  -1.14005  0  -0.285166  -0.51233  0  2.263177  0
O  O189  1  0.63802159  0.97026696  0.47063080  1  -1.182319  0  -0.285566  -0.512652  0  2.264703  0
O  O190  1  0.47137612  0.47060393  0.50069297  1  -1.131443  0  -0.28508  -0.51166  0  2.266286  0
O  O191  1  0.30379384  0.50089505  0.02971258  1  -1.140281  0  -0.285248  -0.512368  0  2.263308  0
O  O192  1  0.83596136  0.87251681  0.33678716  1  -1.176717  0  -0.349831  -0.534523  0  2.370223  0
O  O193  1  0.66931234  0.33663116  0.46419566  1  -1.176458  0  -0.349483  -0.534116  0  2.370429  0
O  O194  1  0.50154568  0.46423767  0.12750004  1  -1.172619  0  -0.349333  -0.53414  0  2.370621  0
O  O195  1  0.33593068  0.12747996  0.66321757  1  -1.175638  0  -0.349751  -0.534432  0  2.3703  0
O  O196  1  0.16933398  0.66341133  0.53583448  1  -1.175402  0  -0.349653  -0.534394  0  2.37046  0
O  O197  1  0.00151828  0.53575566  0.87247598  1  -1.17162  0  -0.349361  -0.534254  0  2.371076  0
O  O198  1  0.02419925  0.91486074  0.30698688  1  -1.190399  0  -0.342565  -0.530754  0  2.166905  0
O  O199  1  0.85767761  0.30670895  0.39221908  1  -1.191683  0  -0.342531  -0.531194  0  2.165945  0
O  O200  1  0.68968810  0.39186279  0.08584868  1  -1.190041  0  -0.342893  -0.530849  0  2.164495  0
O  O201  1  0.52415225  0.08513260  0.69301877  1  -1.190054  0  -0.342436  -0.530654  0  2.167213  0
O  O202  1  0.35770599  0.69322097  0.60777241  1  -1.190091  0  -0.342875  -0.531864  0  2.165899  0
O  O203  1  0.18966509  0.60813693  0.91411298  1  -1.19095  0  -0.342979  -0.530822  0  2.164562  0
