# generated using pymatgen
data_PrH20C33I3(NO3)2
_symmetry_space_group_name_H-M   'P 1'
_cell_length_a   11.64972232
_cell_length_b   13.23627170
_cell_length_c   13.15853220
_cell_angle_alpha   115.58106953
_cell_angle_beta   114.85173013
_cell_angle_gamma   90.76040027
_symmetry_Int_Tables_number   1
_chemical_formula_structural   PrH20C33I3(NO3)2
_chemical_formula_sum   'Pr2 H40 C66 I6 N4 O12'
_cell_volume   1612.96930890
_cell_formula_units_Z   2
loop_
 _symmetry_equiv_pos_site_id
 _symmetry_equiv_pos_as_xyz
  1  'x, y, z'
loop_
 _atom_site_type_symbol
 _atom_site_label
 _atom_site_symmetry_multiplicity
 _atom_site_fract_x
 _atom_site_fract_y
 _atom_site_fract_z
 _atom_site_occupancy
 _atom_site_hle17_bader_spin_density
 _atom_site_hle17_ddec_charge
 _atom_site_hle17_ddec_spin_density
 _atom_site_hle17_ddec_sum_bond_order
 _atom_site_hle17_magmom
 _atom_site_hse06_10hf_bader_spin_density
 _atom_site_hse06_10hf_ddec_charge
 _atom_site_hse06_10hf_ddec_spin_density
 _atom_site_hse06_10hf_ddec_sum_bond_order
 _atom_site_hse06_10hf_magmom
 _atom_site_hse06_bader_spin_density
 _atom_site_hse06_ddec_charge
 _atom_site_hse06_ddec_spin_density
 _atom_site_hse06_ddec_sum_bond_order
 _atom_site_hse06_magmom
 _atom_site_pbe_bader_spin_density
 _atom_site_pbe_cm5_charge
 _atom_site_pbe_ddec_charge
 _atom_site_pbe_ddec_spin_density
 _atom_site_pbe_ddec_sum_bond_order
 _atom_site_pbe_magmom
Pr  Pr0  1  0.10897304  0.15689545  0.05909422  1  0  2.216008  0  1.698128  0  0  2.022332  0  2.193993  0  0  2.069811  0  2.143784  0  0  1.488313  1.986046  0  2.232373  0
Pr  Pr1  1  0.89102998  0.84310196  0.94090524  1  0  2.216014  0  1.69807  0  0  2.022285  0  2.194035  0  0  2.069782  0  2.143808  0  0  1.488326  1.986003  0  2.232399  0
H  H2  1  0.37741323  0.53173929  0.42781567  1  0  0.09941  0  0.953809  0  0  0.110261  0  1.014395  0  0  0.113257  0  1.013047  0  0  0.104898  0.108115  0  1.015378  0
H  H3  1  0.62258885  0.46825464  0.57217891  1  0  0.09933  0  0.953908  0  0  0.110192  0  1.014494  0  0  0.113197  0  1.013122  0  0  0.104885  0.108047  0  1.015481  0
H  H4  1  0.55050393  0.71842519  0.56128238  1  0  0.108959  0  0.956129  0  0  0.119258  0  1.015188  0  0  0.12306  0  1.012634  0  0  0.105759  0.116455  0  1.017205  0
H  H5  1  0.44948817  0.28157391  0.43870921  1  0  0.108963  0  0.956062  0  0  0.119224  0  1.015167  0  0  0.123023  0  1.012622  0  0  0.105763  0.116425  0  1.017177  0
H  H6  1  0.68983888  0.75608673  0.47702267  1  0  0.083823  0  0.963153  0  0  0.092157  0  1.029631  0  0  0.094742  0  1.028432  0  0  0.095118  0.090231  0  1.030533  0
H  H7  1  0.31015700  0.24391582  0.52297256  1  0  0.08383  0  0.963009  0  0  0.092149  0  1.02951  0  0  0.094733  0  1.028312  0  0  0.095111  0.090224  0  1.030414  0
H  H8  1  0.66658735  0.60823902  0.26731504  1  0  0.088567  0  0.978429  0  0  0.097297  0  1.045722  0  0  0.100637  0  1.044049  0  0  0.090164  0.094942  0  1.046948  0
H  H9  1  0.33341184  0.39176179  0.73267915  1  0  0.088576  0  0.978521  0  0  0.09731  0  1.045805  0  0  0.100649  0  1.044131  0  0  0.090177  0.094954  0  1.047033  0
H  H10  1  0.38537449  0.95807008  0.93822738  1  0  0.097002  0  0.959957  0  0  0.108647  0  1.021059  0  0  0.111594  0  1.019313  0  0  0.101471  0.106601  0  1.022246  0
H  H11  1  0.61462757  0.04192730  0.06176790  1  0  0.097  0  0.959991  0  0  0.108643  0  1.021092  0  0  0.111591  0  1.019341  0  0  0.101456  0.1066  0  1.022283  0
H  H12  1  0.51703492  0.86314690  0.82938946  1  0  0.109001  0  0.958053  0  0  0.116764  0  1.022129  0  0  0.120722  0  1.018995  0  0  0.104094  0.114022  0  1.024312  0
H  H13  1  0.48297189  0.13685051  0.17061216  1  0  0.109048  0  0.95814  0  0  0.116772  0  1.022265  0  0  0.120728  0  1.019134  0  0  0.104116  0.114031  0  1.024446  0
H  H14  1  0.40848062  0.68188647  0.62241953  1  0  0.088106  0  0.957444  0  0  0.100873  0  1.017233  0  0  0.102733  0  1.016948  0  0  0.102649  0.099526  0  1.017446  0
H  H15  1  0.59152902  0.31811093  0.37758237  1  0  0.088079  0  0.957535  0  0  0.100839  0  1.017332  0  0  0.10268  0  1.01707  0  0  0.102608  0.099493  0  1.017549  0
H  H16  1  0.17257662  0.59789708  0.52208281  1  0  0.087023  0  0.989364  0  0  0.097382  0  1.054277  0  0  0.100709  0  1.052327  0  0  0.087701  0.095037  0  1.055585  0
H  H17  1  0.82743323  0.40210115  0.47791497  1  0  0.087012  0  0.989369  0  0  0.097359  0  1.05429  0  0  0.100685  0  1.052344  0  0  0.087743  0.09503  0  1.055584  0
H  H18  1  0.11237666  0.03464342  0.37671657  1  0  0.095256  0  0.93608  0  0  0.107631  0  0.993467  0  0  0.110468  0  0.99251  0  0  0.104097  0.105593  0  0.994205  0
H  H19  1  0.88761974  0.96535746  0.62328422  1  0  0.095212  0  0.936077  0  0  0.107626  0  0.993436  0  0  0.110465  0  0.992476  0  0  0.104094  0.105586  0  0.994175  0
H  H20  1  0.18166586  0.94049713  0.51386877  1  0  0.087959  0  0.947139  0  0  0.103063  0  0.999619  0  0  0.105485  0  0.999101  0  0  0.100078  0.101273  0  1.000159  0
H  H21  1  0.81832912  0.05950548  0.48613375  1  0  0.087932  0  0.947176  0  0  0.103004  0  0.999712  0  0  0.105419  0  0.999215  0  0  0.100053  0.101215  0  1.000252  0
H  H22  1  0.35624419  0.83342227  0.51651447  1  0  0.088841  0  0.959289  0  0  0.098978  0  1.022907  0  0  0.101159  0  1.022641  0  0  0.099064  0.097416  0  1.023102  0
H  H23  1  0.64375411  0.16658208  0.48349231  1  0  0.088876  0  0.959163  0  0  0.098993  0  1.022794  0  0  0.101175  0  1.022525  0  0  0.099052  0.097423  0  1.022998  0
H  H24  1  0.45754314  0.81728090  0.37948244  1  0  0.094654  0  0.971767  0  0  0.106223  0  1.03322  0  0  0.108566  0  1.033116  0  0  0.097052  0.104574  0  1.033299  0
H  H25  1  0.54245163  0.18271741  0.62051892  1  0  0.094676  0  0.971751  0  0  0.106212  0  1.033233  0  0  0.108555  0  1.033129  0  0  0.09705  0.104564  0  1.033311  0
H  H26  1  0.88081885  0.31688094  0.10053774  1  0  0.083529  0  0.952801  0  0  0.089018  0  1.019446  0  0  0.091999  0  1.016482  0  0  0.116871  0.086819  0  1.0216  0
H  H27  1  0.11918180  0.68312167  0.89946688  1  0  0.083545  0  0.952826  0  0  0.089039  0  1.019442  0  0  0.092021  0  1.016475  0  0  0.116868  0.08684  0  1.021597  0
H  H28  1  0.74345926  0.44341775  0.03533565  1  0  0.088023  0  0.988384  0  0  0.092989  0  1.060116  0  0  0.096834  0  1.058146  0  0  0.090524  0.090336  0  1.06151  0
H  H29  1  0.25654117  0.55658399  0.96466775  1  0  0.088053  0  0.988368  0  0  0.093014  0  1.060101  0  0  0.096859  0  1.058132  0  0  0.090532  0.090361  0  1.061495  0
H  H30  1  0.75175176  0.48591586  0.86965949  1  0  0.097701  0  0.964155  0  0  0.107617  0  1.02618  0  0  0.109409  0  1.02585  0  0  0.10611  0.106265  0  1.026489  0
H  H31  1  0.24825079  0.51408675  0.13034506  1  0  0.097713  0  0.964153  0  0  0.107624  0  1.026177  0  0  0.109419  0  1.025837  0  0  0.106115  0.106278  0  1.026489  0
H  H32  1  0.84811631  0.46593744  0.72845706  1  0  0.116778  0  0.95849  0  0  0.125767  0  1.020738  0  0  0.129206  0  1.018824  0  0  0.106397  0.123211  0  1.022208  0
H  H33  1  0.15188459  0.53406258  0.27154578  1  0  0.116758  0  0.958443  0  0  0.125743  0  1.020701  0  0  0.129183  0  1.01879  0  0  0.106386  0.123182  0  1.022171  0
H  H34  1  0.99272551  0.37752777  0.63538881  1  0  0.078743  0  1.004921  0  0  0.083898  0  1.079816  0  0  0.086882  0  1.078566  0  0  0.087346  0.081668  0  1.080885  0
H  H35  1  0.00727748  0.62247654  0.36461436  1  0  0.07874  0  1.005008  0  0  0.083892  0  1.07991  0  0  0.086875  0  1.078661  0  0  0.087345  0.081662  0  1.080976  0
H  H36  1  0.14117589  0.24683223  0.61695844  1  0  0.084139  0  0.975568  0  0  0.092506  0  1.044077  0  0  0.095319  0  1.041993  0  0  0.096316  0.090405  0  1.045694  0
H  H37  1  0.85882309  0.75317123  0.38304364  1  0  0.084147  0  0.975593  0  0  0.092518  0  1.044088  0  0  0.095333  0  1.042002  0  0  0.096322  0.090418  0  1.045705  0
H  H38  1  0.27193473  0.12216233  0.69696158  1  0  0.089893  0  0.990582  0  0  0.09526  0  1.060923  0  0  0.098494  0  1.060276  0  0  0.09421  0.092879  0  1.061644  0
H  H39  1  0.72806730  0.87784196  0.30303894  1  0  0.089884  0  0.990579  0  0  0.095222  0  1.060944  0  0  0.098469  0  1.060286  0  0  0.0942  0.092839  0  1.061666  0
H  H40  1  0.24608637  0.08879250  0.86060596  1  0  0.086135  0  0.953319  0  0  0.092942  0  1.018477  0  0  0.095956  0  1.015412  0  0  0.119631  0.090705  0  1.020656  0
H  H41  1  0.75391945  0.91121179  0.13939596  1  0  0.086219  0  0.953219  0  0  0.092958  0  1.018435  0  0  0.09597  0  1.015375  0  0  0.119657  0.090721  0  1.020613  0
C  C42  1  0.32489219  0.35628808  0.20833360  1  0  0.630097  0  3.950439  0  0  0.585279  0  4.241012  0  0  0.619265  0  4.23291  0  0  0.183626  0.562428  0  4.245448  0
C  C43  1  0.67511225  0.64371105  0.79166712  1  0  0.630136  0  3.950152  0  0  0.585329  0  4.240707  0  0  0.619315  0  4.232605  0  0  0.183633  0.562479  0  4.245141  0
C  C44  1  0.43039748  0.46391602  0.27852261  1  0  -0.092245  0  3.739253  0  0  -0.072485  0  3.969322  0  0  -0.079705  0  3.991468  0  0  -0.021888  -0.067922  0  3.954645  0
C  C45  1  0.56960458  0.53608136  0.72147421  1  0  -0.092149  0  3.739003  0  0  -0.072397  0  3.969077  0  0  -0.079619  0  3.991223  0  0  -0.021845  -0.067833  0  3.954398  0
C  C46  1  0.44358777  0.55003812  0.39576566  1  0  -0.069298  0  3.73718  0  0  -0.092015  0  3.987951  0  0  -0.092639  0  4.008991  0  0  -0.08203  -0.091468  0  3.973806  0
C  C47  1  0.55641384  0.44995755  0.60423101  1  0  -0.069395  0  3.737253  0  0  -0.092129  0  3.988034  0  0  -0.092747  0  4.009073  0  0  -0.082133  -0.091585  0  3.973895  0
C  C48  1  0.53738819  0.65335519  0.46848661  1  0  -0.0687  0  3.739448  0  0  -0.084513  0  3.991716  0  0  -0.086548  0  4.010544  0  0  -0.089931  -0.083197  0  3.979007  0
C  C49  1  0.46260819  0.34664220  0.53150735  1  0  -0.068668  0  3.739546  0  0  -0.084447  0  3.991803  0  0  -0.086484  0  4.010629  0  0  -0.089931  -0.083131  0  3.979097  0
C  C50  1  0.61758766  0.67432212  0.42168754  1  0  -0.046951  0  3.764023  0  0  -0.056969  0  4.008114  0  0  -0.056211  0  4.026662  0  0  -0.090259  -0.05726  0  3.995404  0
C  C51  1  0.38241178  0.32567957  0.57830940  1  0  -0.046924  0  3.763854  0  0  -0.056923  0  4.007939  0  0  -0.056164  0  4.026483  0  0  -0.090208  -0.057217  0  3.995231  0
C  C52  1  0.60532092  0.59132236  0.30469666  1  0  -0.126839  0  3.795151  0  0  -0.144033  0  4.039797  0  0  -0.147809  0  4.061372  0  0  -0.108421  -0.141557  0  4.025138  0
C  C53  1  0.39467735  0.40867848  0.69530024  1  0  -0.126864  0  3.795192  0  0  -0.144063  0  4.039836  0  0  -0.147834  0  4.061403  0  0  -0.108456  -0.141586  0  4.025179  0
C  C54  1  0.51381084  0.48563876  0.23420376  1  0  0.028723  0  3.622657  0  0  0.047649  0  3.875084  0  0  0.050628  0  3.899077  0  0  -0.041235  0.045735  0  3.858973  0
C  C55  1  0.48618886  0.51435690  0.76579068  1  0  0.02875  0  3.622644  0  0  0.047687  0  3.875056  0  0  0.050666  0  3.899049  0  0  -0.041194  0.045774  0  3.858939  0
C  C56  1  0.14190292  0.88887152  0.87337563  1  0  0.71103  0  3.871969  0  0  0.658911  0  4.168509  0  0  0.694787  0  4.15672  0  0  0.227344  0.634565  0  4.175696  0
C  C57  1  0.85810178  0.11112156  0.12662184  1  0  0.71091  0  3.872242  0  0  0.658903  0  4.16864  0  0  0.694783  0  4.156845  0  0  0.227359  0.634558  0  4.175827  0
C  C58  1  0.20809254  0.83027419  0.79498875  1  0  -0.105343  0  3.748707  0  0  -0.088471  0  3.98164  0  0  -0.095949  0  4.004568  0  0  -0.026468  -0.083883  0  3.966718  0
C  C59  1  0.79191021  0.16972230  0.20500337  1  0  -0.105272  0  3.74862  0  0  -0.088521  0  3.981679  0  0  -0.095999  0  4.004601  0  0  -0.026488  -0.083933  0  3.966763  0
C  C60  1  0.34082166  0.87880548  0.84679268  1  0  -0.08131  0  3.760842  0  0  -0.103291  0  4.010159  0  0  -0.104015  0  4.030586  0  0  -0.091088  -0.102966  0  3.996668  0
C  C61  1  0.65918134  0.12119189  0.15320296  1  0  -0.081362  0  3.760776  0  0  -0.103288  0  4.010098  0  0  -0.104011  0  4.030523  0  0  -0.091071  -0.102966  0  3.996599  0
C  C62  1  0.41335577  0.82697342  0.78611365  1  0  -0.073619  0  3.779159  0  0  -0.092443  0  4.039142  0  0  -0.093063  0  4.056822  0  0  -0.095347  -0.092042  0  4.027094  0
C  C63  1  0.58665101  0.17302395  0.21388338  1  0  -0.073595  0  3.779257  0  0  -0.092402  0  4.039249  0  0  -0.093022  0  4.056926  0  0  -0.095322  -0.091998  0  4.027191  0
C  C64  1  0.35236374  0.72501304  0.66972242  1  0  -0.033484  0  3.734437  0  0  -0.047801  0  3.984213  0  0  -0.047974  0  4.003978  0  0  -0.085861  -0.047285  0  3.970273  0
C  C65  1  0.64764304  0.27498433  0.33027385  1  0  -0.033497  0  3.734397  0  0  -0.047802  0  3.984172  0  0  -0.047962  0  4.003944  0  0  -0.085898  -0.047286  0  3.970237  0
C  C66  1  0.21979365  0.67679323  0.61371202  1  0  -0.123958  0  3.797143  0  0  -0.142106  0  4.043262  0  0  -0.145729  0  4.065745  0  0  -0.105834  -0.139352  0  4.027493  0
C  C67  1  0.78021452  0.32320585  0.38628322  1  0  -0.123988  0  3.797058  0  0  -0.1421  0  4.043185  0  0  -0.145721  0  4.065665  0  0  -0.105903  -0.139358  0  4.027408  0
C  C68  1  0.14792181  0.72897719  0.67612112  1  0  0.01863  0  3.638879  0  0  0.039632  0  3.888776  0  0  0.04193  0  3.913374  0  0  -0.046702  0.038184  0  3.872118  0
C  C69  1  0.85208495  0.27102015  0.32387209  1  0  0.018757  0  3.638662  0  0  0.039714  0  3.888694  0  0  0.042013  0  3.913288  0  0  -0.046633  0.038263  0  3.872042  0
C  C70  1  0.19999903  0.03898204  0.22109673  1  0  0.695201  0  3.902517  0  0  0.643682  0  4.200619  0  0  0.678942  0  4.1891  0  0  0.214662  0.619778  0  4.207497  0
C  C71  1  0.80000162  0.96102056  0.77890636  1  0  0.695143  0  3.902506  0  0  0.643605  0  4.200615  0  0  0.678858  0  4.189115  0  0  0.214691  0.6197  0  4.207493  0
C  C72  1  0.24751877  0.98171816  0.30292544  1  0  -0.07206  0  3.727378  0  0  -0.055015  0  3.961618  0  0  -0.060006  0  3.981963  0  0  -0.013266  -0.051904  0  3.948146  0
C  C73  1  0.75248143  0.01828273  0.69707827  1  0  -0.072077  0  3.72743  0  0  -0.054988  0  3.961655  0  0  -0.05998  0  3.982006  0  0  -0.013259  -0.051877  0  3.948181  0
C  C74  1  0.18984042  0.98865414  0.37966452  1  0  -0.079057  0  3.733273  0  0  -0.099658  0  3.982309  0  0  -0.101131  0  4.002685  0  0  -0.086506  -0.098574  0  3.9684  0
C  C75  1  0.81015386  0.01134588  0.62033587  1  0  -0.079013  0  3.733228  0  0  -0.099658  0  3.982245  0  0  -0.101131  0  4.002622  0  0  -0.086508  -0.098573  0  3.968334  0
C  C76  1  0.22866315  0.93585537  0.45626042  1  0  -0.076426  0  3.789024  0  0  -0.091659  0  4.042975  0  0  -0.092666  0  4.063111  0  0  -0.095434  -0.090846  0  4.029197  0
C  C77  1  0.77133018  0.06414465  0.54373963  1  0  -0.076353  0  3.7892  0  0  -0.091567  0  4.043183  0  0  -0.092577  0  4.063319  0  0  -0.095432  -0.090752  0  4.029403  0
C  C78  1  0.32579393  0.87508655  0.45701972  1  0  -0.055652  0  3.769481  0  0  -0.070566  0  4.022635  0  0  -0.071532  0  4.043259  0  0  -0.089028  -0.069915  0  4.00866  0
C  C79  1  0.67420154  0.12491436  0.54298377  1  0  -0.055732  0  3.769782  0  0  -0.070639  0  4.022916  0  0  -0.071604  0  4.043538  0  0  -0.08901  -0.069982  0  4.008943  0
C  C80  1  0.38340785  0.86637362  0.38053367  1  0  -0.098831  0  3.774363  0  0  -0.119069  0  4.022754  0  0  -0.121427  0  4.044983  0  0  -0.09707  -0.11733  0  4.007754  0
C  C81  1  0.61658690  0.13362814  0.61946916  1  0  -0.098744  0  3.77447  0  0  -0.118921  0  4.022814  0  0  -0.121277  0  4.045043  0  0  -0.097008  -0.117182  0  4.007813  0
C  C82  1  0.34410933  0.91964812  0.30411350  1  0  0.017249  0  3.63689  0  0  0.035131  0  3.89205  0  0  0.037011  0  3.915938  0  0  -0.04152  0.033639  0  3.876191  0
C  C83  1  0.65588989  0.08035621  0.69589057  1  0  0.017209  0  3.636903  0  0  0.035069  0  3.892054  0  0  0.036949  0  3.915942  0  0  -0.041513  0.033575  0  3.876196  0
C  C84  1  0.88122946  0.33619043  0.02803962  1  0  0.153797  0  3.714672  0  0  0.123636  0  3.977262  0  0  0.132333  0  3.991777  0  0  0.059332  0.118054  0  3.967264  0
C  C85  1  0.11877310  0.66381218  0.97196646  1  0  0.153721  0  3.714766  0  0  0.123575  0  3.977335  0  0  0.132269  0  3.991856  0  0  0.059329  0.11799  0  3.967333  0
C  C86  1  0.80468459  0.40768489  0.99140026  1  0  -0.125234  0  3.766883  0  0  -0.137698  0  4.020594  0  0  -0.14481  0  4.04136  0  0  -0.089469  -0.133188  0  4.006644  0
C  C87  1  0.19531819  0.59231857  0.00860474  1  0  -0.125217  0  3.766816  0  0  -0.137694  0  4.020524  0  0  -0.144806  0  4.041291  0  0  -0.089482  -0.133183  0  4.006578  0
C  C88  1  0.80921886  0.43087012  0.90049397  1  0  -0.031415  0  3.663813  0  0  -0.055198  0  3.909158  0  0  -0.052563  0  3.927795  0  0  -0.062436  -0.056704  0  3.896595  0
C  C89  1  0.19078487  0.56913335  0.09951291  1  0  -0.031486  0  3.663748  0  0  -0.055244  0  3.909052  0  0  -0.052607  0  3.927691  0  0  -0.062466  -0.056762  0  3.896499  0
C  C90  1  0.89008344  0.38253939  0.84611796  1  0  0.030976  0  3.771764  0  0  0.048417  0  4.000024  0  0  0.04565  0  4.024731  0  0  0.000505  0.049958  0  3.983595  0
C  C91  1  0.10991888  0.61746237  0.15388767  1  0  0.030973  0  3.771761  0  0  0.048423  0  4.000008  0  0  0.045656  0  4.024713  0  0  0.000518  0.049965  0  3.983579  0
C  C92  1  0.90171515  0.40626681  0.75410166  1  0  -0.090268  0  3.713458  0  0  -0.112326  0  3.963247  0  0  -0.115103  0  3.986185  0  0  -0.081842  -0.110438  0  3.94798  0
C  C93  1  0.09828315  0.59373061  0.24589682  1  0  -0.090194  0  3.713449  0  0  -0.112241  0  3.963227  0  0  -0.115018  0  3.986162  0  0  -0.081821  -0.110349  0  3.947957  0
C  C94  1  0.98136267  0.35857425  0.70401244  1  0  -0.106986  0  3.755669  0  0  -0.125209  0  4.003684  0  0  -0.130018  0  4.028255  0  0  -0.090788  -0.121987  0  3.987264  0
C  C95  1  0.01863727  0.64142575  0.29598852  1  0  -0.106991  0  3.755689  0  0  -0.12524  0  4.003707  0  0  -0.13005  0  4.02828  0  0  -0.090779  -0.122019  0  3.987286  0
C  C96  1  0.05403266  0.28345140  0.74143450  1  0  0.03022  0  3.785978  0  0  0.047667  0  4.011232  0  0  0.045146  0  4.03649  0  0  -0.00211  0.049106  0  3.994266  0
C  C97  1  0.94596541  0.71654862  0.25856729  1  0  0.03015  0  3.786051  0  0  0.047648  0  4.011248  0  0  0.045126  0  4.036509  0  0  -0.002139  0.049089  0  3.994283  0
C  C98  1  0.13539113  0.23100688  0.68972878  1  0  -0.050339  0  3.703528  0  0  -0.068915  0  3.940117  0  0  -0.067033  0  3.958762  0  0  -0.069569  -0.06988  0  3.927393  0
C  C99  1  0.86460834  0.76899486  0.31027351  1  0  -0.050303  0  3.703563  0  0  -0.068889  0  3.940144  0  0  -0.067009  0  3.958793  0  0  -0.069552  -0.069856  0  3.927421  0
C  C100  1  0.20552282  0.16145992  0.73203151  1  0  -0.135106  0  3.772455  0  0  -0.146128  0  4.023304  0  0  -0.153385  0  4.044493  0  0  -0.0944  -0.141478  0  4.008857  0
C  C101  1  0.79448112  0.83854439  0.26797201  1  0  -0.135063  0  3.772415  0  0  -0.146056  0  4.023253  0  0  -0.153323  0  4.044433  0  0  -0.094395  -0.141406  0  4.008807  0
C  C102  1  0.19230948  0.14301192  0.82449735  1  0  0.153609  0  3.714473  0  0  0.122801  0  3.974536  0  0  0.131351  0  3.988906  0  0  0.056254  0.117555  0  3.964119  0
C  C103  1  0.80769564  0.85699324  0.17550621  1  0  0.15339  0  3.714578  0  0  0.122646  0  3.974621  0  0  0.131197  0  3.988992  0  0  0.056156  0.117401  0  3.964203  0
C  C104  1  0.04596273  0.25910403  0.83396017  1  0  0.143714  0  3.743821  0  0  0.138707  0  3.984797  0  0  0.142933  0  4.00588  0  0  0.123703  0.135986  0  3.970288  0
C  C105  1  0.95403817  0.74089598  0.16604190  1  0  0.143646  0  3.743946  0  0  0.138629  0  3.984938  0  0  0.142854  0  4.006022  0  0  0.123654  0.135908  0  3.970428  0
C  C106  1  0.96280523  0.31014029  0.88786541  1  0  0.137518  0  3.746414  0  0  0.133321  0  3.98621  0  0  0.137091  0  4.007879  0  0  0.121203  0.130983  0  3.971361  0
C  C107  1  0.03719591  0.68986059  0.11213864  1  0  0.137577  0  3.746419  0  0  0.133328  0  3.986287  0  0  0.137098  0  4.007954  0  0  0.121217  0.130988  0  3.971435  0
I  I108  1  0.50757076  0.37000366  0.05902129  1  0  -0.000511  0  1.401441  0  0  -0.014369  0  1.701923  0  0  -0.017216  0  1.695451  0  0  0.097431  -0.013001  0  1.706943  0
I  I109  1  0.49241826  0.62999804  0.94097104  1  0  -0.000496  0  1.401359  0  0  -0.014355  0  1.701823  0  0  -0.017201  0  1.695353  0  0  0.097449  -0.012987  0  1.706844  0
I  I110  1  0.94494597  0.65505544  0.57660756  1  0  0.015548  0  1.412581  0  0  0.001664  0  1.712057  0  0  -2.4e-05  0  1.701608  0  0  0.134328  0.003022  0  1.718926  0
I  I111  1  0.05505959  0.34494448  0.42338480  1  0  0.015519  0  1.412567  0  0  0.001658  0  1.712088  0  0  -3.6e-05  0  1.701649  0  0  0.134329  0.003019  0  1.718952  0
I  I112  1  0.42848051  0.89800469  0.18403292  1  0  0.030529  0  1.332575  0  0  0.026176  0  1.627447  0  0  0.021659  0  1.621318  0  0  0.132054  0.029698  0  1.631948  0
I  I113  1  0.57151773  0.10201000  0.81597598  1  0  0.030514  0  1.332541  0  0  0.026152  0  1.627451  0  0  0.021632  0  1.621319  0  0  0.132033  0.029673  0  1.631955  0
N  N114  1  0.95770296  0.28803918  0.97813386  1  0  -0.425374  0  3.200539  0  0  -0.377147  0  3.474007  0  0  -0.39122  0  3.490777  0  0  -0.365407  -0.367408  0  3.462507  0
N  N115  1  0.04229746  0.71196256  0.02186877  1  0  -0.425356  0  3.200633  0  0  -0.377106  0  3.4741  0  0  -0.391182  0  3.490873  0  0  -0.365398  -0.36737  0  3.462612  0
N  N116  1  0.11432204  0.18904278  0.87331445  1  0  -0.4274  0  3.227689  0  0  -0.378141  0  3.499706  0  0  -0.392056  0  3.516568  0  0  -0.372505  -0.368302  0  3.487789  0
N  N117  1  0.88567979  0.81095722  0.12668644  1  0  -0.427268  0  3.227787  0  0  -0.378003  0  3.499779  0  0  -0.391922  0  3.516646  0  0  -0.372414  -0.368163  0  3.487857  0
O  O118  1  0.22493516  0.36448720  0.22693266  1  0  -0.703038  0  1.947961  0  0  -0.655758  0  2.189284  0  0  -0.679012  0  2.179683  0  0  -0.387042  -0.638905  0  2.194782  0
O  O119  1  0.77506928  0.63550846  0.77306506  1  0  -0.703104  0  1.947817  0  0  -0.6558  0  2.189096  0  0  -0.67906  0  2.179493  0  0  -0.387052  -0.638952  0  2.194604  0
O  O120  1  0.33557005  0.26132270  0.13254859  1  0  -0.671585  0  2.029107  0  0  -0.617308  0  2.271274  0  0  -0.641928  0  2.264514  0  0  -0.372778  -0.600041  0  2.275447  0
O  O121  1  0.66443181  0.73867386  0.86745160  1  0  -0.67156  0  2.028994  0  0  -0.617293  0  2.27115  0  0  -0.641921  0  2.264407  0  0  -0.372785  -0.600026  0  2.275321  0
O  O122  1  0.18667014  0.99687658  0.94841563  1  0  -0.715443  0  2.050644  0  0  -0.659494  0  2.308834  0  0  -0.684146  0  2.29745  0  0  -0.39175  -0.641917  0  2.316014  0
O  O123  1  0.81332721  0.00311736  0.05157797  1  0  -0.715381  0  2.050613  0  0  -0.659448  0  2.308757  0  0  -0.684104  0  2.297375  0  0  -0.391749  -0.64187  0  2.315932  0
O  O124  1  0.04867541  0.82655821  0.86189296  1  0  -0.726015  0  2.11461  0  0  -0.664528  0  2.374158  0  0  -0.689411  0  2.362581  0  0  -0.393416  -0.646737  0  2.381505  0
O  O125  1  0.95133025  0.17343143  0.13810415  1  0  -0.726104  0  2.114892  0  0  -0.664622  0  2.374349  0  0  -0.689505  0  2.362769  0  0  -0.393439  -0.646833  0  2.3817  0
O  O126  1  0.08726351  0.99135978  0.12249773  1  0  -0.800116  0  2.146103  0  0  -0.736582  0  2.412033  0  0  -0.762518  0  2.40019  0  0  -0.423044  -0.717855  0  2.419405  0
O  O127  1  0.91274113  0.00864019  0.87750039  1  0  -0.800089  0  2.146197  0  0  -0.736559  0  2.412138  0  0  -0.762492  0  2.400296  0  0  -0.423082  -0.717835  0  2.419514  0
O  O128  1  0.26770240  0.13252647  0.25186688  1  0  -0.653775  0  1.939772  0  0  -0.604614  0  2.174839  0  0  -0.628891  0  2.166346  0  0  -0.343844  -0.587439  0  2.180081  0
O  O129  1  0.73229945  0.86747702  0.74814083  1  0  -0.653774  0  1.939613  0  0  -0.604616  0  2.174726  0  0  -0.628887  0  2.166224  0  0  -0.343884  -0.587434  0  2.179965  0
