# generated using pymatgen
data_PrP4H20Ru2(CO5)4
_symmetry_space_group_name_H-M   'P 1'
_cell_length_a   9.66319446
_cell_length_b   9.66207947
_cell_length_c   15.69000000
_cell_angle_alpha   92.53723471
_cell_angle_beta   92.53694176
_cell_angle_gamma   97.17192674
_symmetry_Int_Tables_number   1
_chemical_formula_structural   PrP4H20Ru2(CO5)4
_chemical_formula_sum   'Pr2 P8 H40 Ru4 C8 O40'
_cell_volume   1450.20168042
_cell_formula_units_Z   2
loop_
 _symmetry_equiv_pos_site_id
 _symmetry_equiv_pos_as_xyz
  1  'x, y, z'
loop_
 _atom_site_type_symbol
 _atom_site_label
 _atom_site_symmetry_multiplicity
 _atom_site_fract_x
 _atom_site_fract_y
 _atom_site_fract_z
 _atom_site_occupancy
 _atom_site_pbe_bader_charge
 _atom_site_pbe_bader_spin_density
 _atom_site_pbe_cm5_charge
 _atom_site_pbe_ddec_charge
 _atom_site_pbe_ddec_spin_density
 _atom_site_pbe_ddec_sum_bond_order
 _atom_site_pbe_magmom
Pr  Pr0  1  0.99829075  0.00169828  0.75001481  1  2.313131  -0.000183  1.519934  2.283836  -0.000342  1.984202  0.0
Pr  Pr1  1  0.00165466  0.99821933  0.25004417  1  2.313418  -0.000181  1.520009  2.284149  -0.000337  1.983437  0.0
P  P2  1  0.05991685  0.33788720  0.63626460  1  3.275376  0.003123  0.322314  1.164486  0.002455  5.456332  0.005
P  P3  1  0.66208100  0.94009337  0.86379116  1  3.275479  0.003118  0.322381  1.165187  0.002441  5.456721  0.005
P  P4  1  0.94006770  0.66204504  0.36382262  1  3.274738  0.003111  0.322434  1.165132  0.002433  5.457241  0.005
P  P5  1  0.33789098  0.05987856  0.13624836  1  3.27454  0.003125  0.322302  1.164859  0.002445  5.455715  0.005
P  P6  1  0.00210272  0.64058046  0.65932460  1  3.325219  0.003222  0.32543  1.176951  0.002685  5.446674  0.005
P  P7  1  0.35943857  0.99794777  0.84068520  1  3.323644  0.003229  0.325222  1.175999  0.00269  5.446127  0.005
P  P8  1  0.99791349  0.35937266  0.34073409  1  3.323681  0.003225  0.325211  1.176173  0.002682  5.44702  0.005
P  P9  1  0.64054564  0.00199804  0.15930741  1  3.32492  0.003229  0.324949  1.175547  0.002683  5.448299  0.005
H  H10  1  0.83419701  0.44116074  0.72163958  1  0.611989  0.000303  0.332501  0.361844  0.000246  0.884656  0.0
H  H11  1  0.55895570  0.16585201  0.77836965  1  0.611853  0.000304  0.332438  0.361652  0.000246  0.884651  0.0
H  H12  1  0.16577872  0.55884879  0.27845014  1  0.612406  0.000303  0.332595  0.361888  0.000246  0.883845  0.0
H  H13  1  0.44100839  0.83412304  0.22164743  1  0.610412  0.000305  0.332428  0.361736  0.000246  0.884657  0.0
H  H14  1  0.39288886  0.65708493  0.55172353  1  0.605458  0.000557  0.330974  0.407501  0.000124  0.867856  0.001
H  H15  1  0.34304399  0.60674432  0.94824092  1  0.60731  0.00055  0.331053  0.407226  0.000125  0.86801  0.001
H  H16  1  0.60645159  0.34312618  0.44820268  1  0.60994  0.000537  0.330965  0.407074  0.000125  0.867845  0.001
H  H17  1  0.65692132  0.39328922  0.05177332  1  0.607767  0.000548  0.331027  0.407085  0.000125  0.86801  0.001
H  H18  1  0.38651805  0.49846680  0.53006577  1  0.664993  0.000561  0.323679  0.407703  0.00018  0.879151  0.0
H  H19  1  0.50200416  0.61463518  0.96908966  1  0.652147  0.000564  0.323753  0.408585  0.000193  0.87769  0.0
H  H20  1  0.61591399  0.50247437  0.46806660  1  0.639048  0.000573  0.323192  0.408143  0.000204  0.879597  0.0
H  H21  1  0.49790065  0.38517486  0.03106853  1  0.653573  0.000565  0.32387  0.408962  0.000195  0.877494  0.0
H  H22  1  0.82444936  0.14926086  0.62156547  1  0.647666  7.8e-05  0.299272  0.404304  -0.000129  0.920448  0.0
H  H23  1  0.85056803  0.17559155  0.87838216  1  0.647286  7.8e-05  0.299436  0.404708  -0.000129  0.919933  0.0
H  H24  1  0.17553720  0.85056484  0.37846919  1  0.647182  7.8e-05  0.299497  0.404916  -0.000129  0.919775  0.0
H  H25  1  0.14938207  0.82437933  0.12165163  1  0.647312  7.8e-05  0.299382  0.404632  -0.000129  0.920096  0.0
H  H26  1  0.71096370  0.07733661  0.68229046  1  0.653057  2.8e-05  0.294949  0.38667  2.1e-05  0.951669  0.0
H  H27  1  0.92250511  0.28905270  0.81762690  1  0.6499  2.8e-05  0.29496  0.386647  2e-05  0.951597  0.0
H  H28  1  0.28901082  0.92253296  0.31774378  1  0.653474  2.8e-05  0.294997  0.386906  2.1e-05  0.95137  0.0
H  H29  1  0.07746528  0.71090670  0.18241096  1  0.649237  2.9e-05  0.294765  0.386452  2.1e-05  0.951789  0.0
H  H30  1  0.13719941  0.90184232  0.92103226  1  0.649079  0.00015  0.308428  0.408041  -8.1e-05  0.912993  0.0
H  H31  1  0.09824645  0.86276825  0.57898546  1  0.647873  0.00015  0.30845  0.407975  -8.2e-05  0.913004  0.0
H  H32  1  0.86281704  0.09814527  0.07902483  1  0.649158  0.000151  0.3085  0.408235  -8.1e-05  0.912754  0.0
H  H33  1  0.90178840  0.13722561  0.42108759  1  0.648836  0.000152  0.308455  0.408068  -8e-05  0.912898  0.0
H  H34  1  0.97458129  0.88831768  0.93649217  1  0.62908  -1.3e-05  0.335438  0.427569  -2e-05  0.855156  0.0
H  H35  1  0.11199883  0.02542828  0.56359791  1  0.628077  -1.3e-05  0.335646  0.427744  -2e-05  0.854932  0.0
H  H36  1  0.02547368  0.11181822  0.06367645  1  0.629328  -1.4e-05  0.335428  0.427582  -2.1e-05  0.855111  0.0
H  H37  1  0.88846478  0.97466271  0.43673103  1  0.632645  -1.4e-05  0.335548  0.427679  -2e-05  0.855083  0.0
H  H38  1  0.14721996  0.59932348  0.82273338  1  0.059955  0.000177  0.099467  0.141431  4.2e-05  0.992554  0.0
H  H39  1  0.40068727  0.85285324  0.67728446  1  0.059694  0.000176  0.099484  0.141512  4.1e-05  0.992252  0.0
H  H40  1  0.85281389  0.40063800  0.17730052  1  0.060403  0.000174  0.099544  0.141506  4e-05  0.992377  0.0
H  H41  1  0.59930017  0.14713435  0.32271703  1  0.0599  0.000174  0.099477  0.14151  4e-05  0.992307  0.0
H  H42  1  0.25869295  0.54068886  0.74470345  1  0.052359  0.00031  0.098583  0.136353  0.000152  0.996194  0.0
H  H43  1  0.45925569  0.74130345  0.75530157  1  0.052049  0.00031  0.098564  0.136331  0.000151  0.995944  0.0
H  H44  1  0.74130671  0.45923188  0.25530547  1  0.051759  0.000309  0.098408  0.13606  0.00015  0.996355  0.0
H  H45  1  0.54072211  0.25866535  0.24469150  1  0.052395  0.000308  0.098503  0.136241  0.00015  0.996418  0.0
H  H46  1  0.17496358  0.41812843  0.81350615  1  0.086851  0.000282  0.105487  0.149022  0.000113  0.979308  0.0
H  H47  1  0.58184526  0.82505614  0.68650986  1  0.087388  0.000282  0.105477  0.149058  0.000114  0.979124  0.0
H  H48  1  0.82505914  0.58183514  0.18654217  1  0.087915  0.000281  0.105383  0.148804  0.000113  0.979293  0.0
H  H49  1  0.41814114  0.17493145  0.31349160  1  0.087116  0.000281  0.105464  0.148982  0.000113  0.979476  0.0
Ru  Ru50  1  0.11887916  0.53668234  0.49575407  1  1.272075  1.331127  0.779443  0.886954  1.400834  3.807398  1.311
Ru  Ru51  1  0.46321827  0.88111199  0.00430060  1  1.270255  1.332279  0.778873  0.885274  1.402002  3.807014  1.312
Ru  Ru52  1  0.88116218  0.46319141  0.50437070  1  1.265974  1.333409  0.778274  0.882698  1.403159  3.80826  1.313
Ru  Ru53  1  0.53673100  0.11884426  0.99571493  1  1.267522  1.332353  0.778806  0.884804  1.402099  3.807776  1.312
C  C54  1  0.03855351  0.48294726  0.71427087  1  -0.445352  0.000109  0.05194  -0.138441  -0.000918  3.912486  -0.001
C  C55  1  0.51702208  0.96149005  0.78575268  1  -0.44395  0.000111  0.051897  -0.138348  -0.000917  3.912326  -0.001
C  C56  1  0.96144485  0.51697140  0.28579341  1  -0.443129  0.00011  0.051974  -0.138578  -0.000918  3.912334  -0.001
C  C57  1  0.48291960  0.03847978  0.21425982  1  -0.446069  0.000108  0.051933  -0.137928  -0.000918  3.911643  -0.001
C  C58  1  0.16285540  0.51210215  0.77832617  1  -0.099725  0.001193  -0.232853  -0.382589  0.000892  3.938094  0.001
C  C59  1  0.48788387  0.83717494  0.72168792  1  -0.099791  0.001192  -0.232914  -0.382715  0.000892  3.937065  0.001
C  C60  1  0.83716495  0.48785097  0.22171543  1  -0.100558  0.001187  -0.232825  -0.382272  0.000888  3.937654  0.001
C  C61  1  0.51209736  0.16281265  0.27831467  1  -0.099666  0.00119  -0.23292  -0.382715  0.000889  3.93782  0.001
O  O62  1  0.17598100  0.38991772  0.57536585  1  -1.33734  0.03653  -0.369949  -0.65267  0.02196  2.323646  0.023
O  O63  1  0.60997662  0.82399811  0.92465645  1  -1.338342  0.036425  -0.36996  -0.653454  0.021885  2.324935  0.023
O  O64  1  0.82396816  0.60991529  0.42469348  1  -1.339444  0.0364  -0.36972  -0.653347  0.021855  2.325637  0.023
O  O65  1  0.38997196  0.17598531  0.07535788  1  -1.337895  0.036412  -0.369909  -0.653253  0.021877  2.32456  0.023
O  O66  1  0.91513764  0.30754267  0.58410283  1  -1.351532  0.037608  -0.366271  -0.682406  0.023306  2.388058  0.023
O  O67  1  0.69238041  0.08483161  0.91594994  1  -1.350958  0.037399  -0.36627  -0.682937  0.023177  2.388907  0.023
O  O68  1  0.08477031  0.69236554  0.41598547  1  -1.351888  0.03724  -0.3662  -0.683172  0.023065  2.389251  0.023
O  O69  1  0.30755187  0.91511316  0.08405843  1  -1.350447  0.037409  -0.366113  -0.682765  0.023187  2.38742  0.023
O  O70  1  0.09169627  0.21393242  0.68483911  1  -1.456732  -0.001093  -0.44548  -0.789844  -0.001812  2.258943  -0.001
O  O71  1  0.78600213  0.90828556  0.81521176  1  -1.457073  -0.001097  -0.445379  -0.789963  -0.001815  2.258384  -0.001
O  O72  1  0.90822624  0.78595177  0.31523873  1  -1.456611  -0.001094  -0.445526  -0.789925  -0.00181  2.25881  -0.001
O  O73  1  0.21394443  0.09167383  0.18481971  1  -1.456549  -0.001093  -0.445365  -0.790077  -0.001809  2.258176  -0.001
O  O74  1  0.12272513  0.67849206  0.59713845  1  -1.34402  0.033335  -0.363692  -0.680023  0.020299  2.368204  0.02
O  O75  1  0.32147886  0.87729347  0.90288957  1  -1.343859  0.033435  -0.363686  -0.679722  0.020357  2.367459  0.02
O  O76  1  0.87727565  0.32145375  0.40295723  1  -1.344478  0.033547  -0.363643  -0.67979  0.020429  2.368432  0.02
O  O77  1  0.67847828  0.12265130  0.09712204  1  -1.344363  0.033438  -0.363659  -0.679628  0.020367  2.368225  0.02
O  O78  1  0.86128256  0.59418894  0.60700538  1  -1.329827  0.041828  -0.368175  -0.649856  0.025582  2.294689  0.027
O  O79  1  0.40580543  0.13878916  0.89304830  1  -1.329146  0.041781  -0.36806  -0.649675  0.025557  2.293572  0.027
O  O80  1  0.13875118  0.40573912  0.39306713  1  -1.329402  0.04167  -0.367884  -0.649773  0.025491  2.294011  0.027
O  O81  1  0.59415906  0.86118903  0.10697143  1  -1.329868  0.041714  -0.368056  -0.64982  0.025515  2.294668  0.027
O  O82  1  0.99278839  0.75627152  0.72527789  1  -1.452443  -0.001203  -0.454301  -0.796977  -0.001957  2.261322  -0.002
O  O83  1  0.24372423  0.00726209  0.77474274  1  -1.452345  -0.001207  -0.454194  -0.796722  -0.001962  2.261162  -0.002
O  O84  1  0.00716936  0.24366176  0.27478185  1  -1.452321  -0.001214  -0.454423  -0.796833  -0.001968  2.261413  -0.002
O  O85  1  0.75622783  0.99267537  0.22525960  1  -1.452831  -0.001211  -0.454001  -0.796493  -0.001966  2.261513  -0.002
O  O86  1  0.91498502  0.43968910  0.76140986  1  -1.087922  0.003648  -0.35662  -0.427356  0.002247  2.252395  0.003
O  O87  1  0.56035592  0.08502902  0.73860985  1  -1.088536  0.003639  -0.356577  -0.427211  0.002242  2.252509  0.003
O  O88  1  0.08499966  0.56028491  0.23866958  1  -1.088237  0.003636  -0.356703  -0.427337  0.002241  2.251868  0.003
O  O89  1  0.43962526  0.91494186  0.26141395  1  -1.085833  0.003637  -0.35656  -0.427494  0.002241  2.252383  0.003
O  O90  1  0.37244106  0.58686627  0.50472732  1  -1.210725  0.006649  -0.551824  -0.690299  0.002678  1.978962  -0.002
O  O91  1  0.41367935  0.62705896  0.99501988  1  -1.200309  0.006607  -0.552321  -0.691523  0.002678  1.974721  -0.002
O  O92  1  0.62647667  0.41429006  0.49470198  1  -1.190317  0.006518  -0.55209  -0.691424  0.002647  1.97343  -0.002
O  O93  1  0.58620216  0.37296728  0.00504224  1  -1.202342  0.006599  -0.552414  -0.691685  0.002676  1.974647  -0.002
O  O94  1  0.79913688  0.06558650  0.65439997  1  -1.305354  0.000316  -0.645011  -0.869721  0.000127  1.996528  0.0
O  O95  1  0.93417602  0.20081825  0.84549061  1  -1.302  0.000315  -0.645296  -0.870101  0.000126  1.996649  0.0
O  O96  1  0.20080843  0.93421622  0.34561254  1  -1.305105  0.000319  -0.645351  -0.870608  0.000129  1.995957  0.0
O  O97  1  0.06577179  0.79912652  0.15454177  1  -1.301492  0.00032  -0.645052  -0.869759  0.00013  1.996508  0.0
O  O98  1  0.04937427  0.94013306  0.90708662  1  -1.264031  0.000506  -0.612849  -0.837205  0.000215  2.004217  0.0
O  O99  1  0.05996068  0.95062564  0.59288241  1  -1.261957  0.000503  -0.612843  -0.83721  0.000213  2.003885  0.0
O  O100  1  0.95063139  0.05984305  0.09296413  1  -1.264196  0.000506  -0.612817  -0.837325  0.000215  2.003908  0.0
O  O101  1  0.94001616  0.04936822  0.40711959  1  -1.267528  0.00051  -0.613037  -0.837412  0.000217  2.004302  0.0
