# generated using pymatgen
data_CoAgH34C26(NO4)2
_symmetry_space_group_name_H-M   'P 1'
_cell_length_a   11.84017357
_cell_length_b   11.84124227
_cell_length_c   12.61583446
_cell_angle_alpha   105.62231497
_cell_angle_beta   109.39668245
_cell_angle_gamma   111.06517683
_symmetry_Int_Tables_number   1
_chemical_formula_structural   CoAgH34C26(NO4)2
_chemical_formula_sum   'Co2 Ag2 H68 C52 N4 O16'
_cell_volume   1396.88575933
_cell_formula_units_Z   2
loop_
 _symmetry_equiv_pos_site_id
 _symmetry_equiv_pos_as_xyz
  1  'x, y, z'
loop_
 _atom_site_type_symbol
 _atom_site_label
 _atom_site_symmetry_multiplicity
 _atom_site_fract_x
 _atom_site_fract_y
 _atom_site_fract_z
 _atom_site_occupancy
 _atom_site_hle17_bader_spin_density
 _atom_site_hle17_ddec_charge
 _atom_site_hle17_ddec_spin_density
 _atom_site_hle17_ddec_sum_bond_order
 _atom_site_hle17_magmom
 _atom_site_hse06_10hf_bader_spin_density
 _atom_site_hse06_10hf_ddec_charge
 _atom_site_hse06_10hf_ddec_spin_density
 _atom_site_hse06_10hf_ddec_sum_bond_order
 _atom_site_hse06_10hf_magmom
 _atom_site_hse06_bader_spin_density
 _atom_site_hse06_ddec_charge
 _atom_site_hse06_ddec_spin_density
 _atom_site_hse06_ddec_sum_bond_order
 _atom_site_hse06_magmom
 _atom_site_pbe_bader_spin_density
 _atom_site_pbe_cm5_charge
 _atom_site_pbe_ddec_charge
 _atom_site_pbe_ddec_spin_density
 _atom_site_pbe_ddec_sum_bond_order
 _atom_site_pbe_magmom
Co  Co0  1  0.45346789  0.45334277  0.99999394  1  0  0.798846  0  2.847076  0  0  0.868058  0  3.230059  0  0  0.947581  0  3.181192  0  0  0.791216  0.82161  0  3.26671  0
Co  Co1  1  0.19702173  0.69724081  0.50009427  1  0  0.805545  0  2.822837  0  0  0.876281  0  3.200515  0  0  0.956343  0  3.151152  0  0  0.782035  0.830622  0  3.237181  0
Ag  Ag2  1  0.20143463  0.66250741  0.78523959  1  0  0.680913  0  1.201526  0  0  0.579508  0  1.588803  0  0  0.607979  0  1.543394  0  0  0.484581  0.559337  0  1.620418  0
Ag  Ag3  1  0.87737638  0.41635704  0.21468924  1  0  0.681125  0  1.202234  0  0  0.57908  0  1.590254  0  0  0.607547  0  1.544806  0  0  0.484377  0.558922  0  1.621881  0
H  H4  1  0.26492618  0.49756099  0.31872984  1  0  0.112322  0  0.967681  0  0  0.117397  0  1.034886  0  0  0.121352  0  1.031956  0  0  0.104659  0.11444  0  1.037002  0
H  H5  1  0.17855464  0.94598641  0.68101380  1  0  0.112443  0  0.96749  0  0  0.11761  0  1.034693  0  0  0.121547  0  1.031785  0  0  0.104639  0.114726  0  1.036721  0
H  H6  1  0.19410925  0.29192492  0.35445315  1  0  0.086457  0  0.979007  0  0  0.094519  0  1.046204  0  0  0.096598  0  1.047692  0  0  0.091982  0.092982  0  1.045443  0
H  H7  1  0.93725071  0.83963184  0.64550099  1  0  0.086736  0  0.980326  0  0  0.095001  0  1.047166  0  0  0.097073  0  1.048703  0  0  0.091995  0.093466  0  1.046377  0
H  H8  1  0.24369647  0.11307716  0.25889763  1  0  0.080983  0  0.984131  0  0  0.095109  0  1.040715  0  0  0.097005  0  1.039309  0  0  0.098949  0.093629  0  1.041942  0
H  H9  1  0.85421505  0.98490340  0.74131222  1  0  0.080601  0  0.982506  0  0  0.094247  0  1.039872  0  0  0.096239  0  1.038345  0  0  0.098605  0.09268  0  1.041225  0
H  H10  1  0.36205149  0.14017964  0.13082216  1  0  0.107485  0  0.957061  0  0  0.119473  0  1.014669  0  0  0.123487  0  1.012633  0  0  0.103014  0.116459  0  1.016473  0
H  H11  1  0.00968436  0.23135592  0.86947443  1  0  0.107268  0  0.957635  0  0  0.119234  0  1.01528  0  0  0.123245  0  1.013249  0  0  0.102919  0.116228  0  1.017066  0
H  H12  1  0.38483699  0.63888879  0.24939561  1  0  0.097  0  0.942017  0  0  0.105915  0  1.006583  0  0  0.108546  0  1.001109  0  0  0.126742  0.103815  0  1.010865  0
H  H13  1  0.38944472  0.13525813  0.75042377  1  0  0.09708  0  0.943017  0  0  0.104971  0  1.008298  0  0  0.107586  0  1.002849  0  0  0.126498  0.102907  0  1.01248  0
H  H14  1  0.43827656  0.76099772  0.14377827  1  0  0.090763  0  0.913693  0  0  0.102087  0  0.970352  0  0  0.104244  0  0.969148  0  0  0.119872  0.100445  0  0.971312  0
H  H15  1  0.61739274  0.29442672  0.85623964  1  0  0.089942  0  0.912594  0  0  0.101851  0  0.969997  0  0  0.103996  0  0.968737  0  0  0.119824  0.100219  0  0.971005  0
H  H16  1  0.70206015  0.75286180  0.17603628  1  0  0.053656  0  0.948977  0  0  0.067225  0  1.009574  0  0  0.068165  0  1.009966  0  0  0.096124  0.066496  0  1.009333  0
H  H17  1  0.57659806  0.52568407  0.82377167  1  0  0.054654  0  0.948454  0  0  0.067928  0  1.008916  0  0  0.068859  0  1.009349  0  0  0.096297  0.067199  0  1.008672  0
H  H18  1  0.79895415  0.91119491  0.40022323  1  0  0.09605  0  0.957224  0  0  0.120244  0  1.017824  0  0  0.120873  0  1.018844  0  0  0.087326  0.119831  0  1.017055  0
H  H19  1  0.51089921  0.39843485  0.59967044  1  0  0.095596  0  0.955869  0  0  0.119645  0  1.017059  0  0  0.120228  0  1.018141  0  0  0.087259  0.119272  0  1.016233  0
H  H20  1  0.65571160  0.75738427  0.35628598  1  0  0.095792  0  0.981908  0  0  0.115716  0  1.04868  0  0  0.116063  0  1.050377  0  0  0.086021  0.115454  0  1.047525  0
H  H21  1  0.40101424  0.29903841  0.64352068  1  0  0.095388  0  0.980976  0  0  0.115268  0  1.047906  0  0  0.115593  0  1.049626  0  0  0.085877  0.115014  0  1.046726  0
H  H22  1  0.63618072  0.90109468  0.36740860  1  0  0.102837  0  0.93981  0  0  0.126879  0  0.996791  0  0  0.128589  0  0.996256  0  0  0.090521  0.125509  0  0.997318  0
H  H23  1  0.53370043  0.26850920  0.63246387  1  0  0.101802  0  0.939883  0  0  0.125926  0  0.996904  0  0  0.127677  0  0.996296  0  0  0.090204  0.12453  0  0.997477  0
H  H24  1  0.81031778  0.00076261  0.23917789  1  0  0.089826  0  0.99691  0  0  0.111813  0  1.063101  0  0  0.111827  0  1.065313  0  0  0.084427  0.111858  0  1.061498  0
H  H25  1  0.76158973  0.57106647  0.76085760  1  0  0.090599  0  0.995304  0  0  0.112275  0  1.061817  0  0  0.112251  0  1.064045  0  0  0.084576  0.112336  0  1.06021  0
H  H26  1  0.64768584  0.99129659  0.20010753  1  0  0.098901  0  0.941568  0  0  0.124704  0  0.995103  0  0  0.126011  0  0.995068  0  0  0.088894  0.123719  0  0.995195  0
H  H27  1  0.79129709  0.44761707  0.80004022  1  0  0.098972  0  0.941541  0  0  0.124588  0  0.995312  0  0  0.125887  0  0.995286  0  0  0.088884  0.123593  0  0.995416  0
H  H28  1  0.67755606  0.90824595  0.08135089  1  0  0.099705  0  0.970482  0  0  0.119359  0  1.033772  0  0  0.121131  0  1.033415  0  0  0.084695  0.117935  0  1.034224  0
H  H29  1  0.82675422  0.59616947  0.91866324  1  0  0.100025  0  0.970466  0  0  0.119514  0  1.033956  0  0  0.121304  0  1.033561  0  0  0.08476  0.118098  0  1.034402  0
H  H30  1  0.68244238  0.56701435  0.30266954  1  0  0.104008  0  0.9597  0  0  0.110049  0  1.02695  0  0  0.113052  0  1.025069  0  0  0.104404  0.107863  0  1.028288  0
H  H31  1  0.26431741  0.37991885  0.69713616  1  0  0.104865  0  0.958396  0  0  0.110809  0  1.025815  0  0  0.113911  0  1.023787  0  0  0.104776  0.108528  0  1.02725  0
H  H32  1  0.56372288  0.44050465  0.39772066  1  0  0.088285  0  0.989811  0  0  0.095963  0  1.056728  0  0  0.097646  0  1.059145  0  0  0.09397  0.094668  0  1.055341  0
H  H33  1  0.04280852  0.16599325  0.60198971  1  0  0.088686  0  0.990732  0  0  0.0962  0  1.057564  0  0  0.097933  0  1.059942  0  0  0.09424  0.094899  0  1.056184  0
H  H34  1  0.70409568  0.41608165  0.57844630  1  0  0.08467  0  0.966218  0  0  0.099536  0  1.020618  0  0  0.10172  0  1.018576  0  0  0.10265  0.097835  0  1.022337  0
H  H35  1  0.83752307  0.12556351  0.42131990  1  0  0.085444  0  0.965565  0  0  0.099645  0  1.020733  0  0  0.101828  0  1.018696  0  0  0.102693  0.097962  0  1.022412  0
H  H36  1  0.95760170  0.53035460  0.67361313  1  0  0.093504  0  0.990361  0  0  0.102792  0  1.061217  0  0  0.107501  0  1.057113  0  0  0.091508  0.09927  0  1.064449  0
H  H37  1  0.85640244  0.28398094  0.32629729  1  0  0.093141  0  0.989934  0  0  0.102212  0  1.061205  0  0  0.106931  0  1.057085  0  0  0.091428  0.098715  0  1.064418  0
H  H38  1  0.87113829  0.68656543  0.28865627  1  0  0.092284  0  0.944301  0  0  0.101216  0  1.011157  0  0  0.103697  0  1.005281  0  0  0.12367  0.099218  0  1.015841  0
H  H39  1  0.39775169  0.58258858  0.71127476  1  0  0.092092  0  0.945438  0  0  0.101186  0  1.011875  0  0  0.103687  0  1.005997  0  0  0.12386  0.099196  0  1.016534  0
H  H40  1  0.02953655  0.69220530  0.20503120  1  0  0.093811  0  0.930423  0  0  0.10447  0  0.989514  0  0  0.106465  0  0.988329  0  0  0.120307  0.102935  0  0.990451  0
H  H41  1  0.48722617  0.82468365  0.79510959  1  0  0.09337  0  0.929367  0  0  0.104768  0  0.988521  0  0  0.106786  0  0.987348  0  0  0.120406  0.103218  0  0.989475  0
H  H42  1  0.17723772  0.91997667  0.24859808  1  0  0.037611  0  0.939315  0  0  0.052376  0  1.001018  0  0  0.053103  0  1.000923  0  0  0.09338  0.051786  0  1.001125  0
H  H43  1  0.67140728  0.92856344  0.75141626  1  0  0.037087  0  0.939608  0  0  0.053093  0  1.000895  0  0  0.053871  0  1.000724  0  0  0.093391  0.052486  0  1.001017  0
H  H44  1  0.01597556  0.00433621  0.25433724  1  0  0.095928  0  0.956984  0  0  0.12015  0  1.016692  0  0  0.121166  0  1.01748  0  0  0.087332  0.119439  0  1.016102  0
H  H45  1  0.74985496  0.76149560  0.74570396  1  0  0.095318  0  0.956653  0  0  0.119589  0  1.01623  0  0  0.120557  0  1.017069  0  0  0.087388  0.118909  0  1.015627  0
H  H46  1  0.95345012  0.90499401  0.32512483  1  0  0.095033  0  0.966134  0  0  0.118256  0  1.02723  0  0  0.118511  0  1.028736  0  0  0.086857  0.118075  0  1.026182  0
H  H47  1  0.57968767  0.62821176  0.67493104  1  0  0.094949  0  0.965088  0  0  0.117857  0  1.026741  0  0  0.118115  0  1.028225  0  0  0.086996  0.117663  0  1.025726  0
H  H48  1  0.92057509  0.82519759  0.16823895  1  0  0.100459  0  0.943832  0  0  0.12289  0  1.002218  0  0  0.124771  0  1.001609  0  0  0.086876  0.121359  0  1.002834  0
H  H49  1  0.65684527  0.75229019  0.83179219  1  0  0.100788  0  0.942477  0  0  0.122549  0  1.001639  0  0  0.124478  0  1.000962  0  0  0.086938  0.121026  0  1.002258  0
H  H50  1  0.25139035  0.11894369  0.44184767  1  0  0.090079  0  0.970368  0  0  0.114407  0  1.031673  0  0  0.114386  0  1.033689  0  0  0.083803  0.114515  0  1.030148  0
H  H51  1  0.67685382  0.80931017  0.55809697  1  0  0.089244  0  0.972128  0  0  0.113764  0  1.03312  0  0  0.113758  0  1.035119  0  0  0.083597  0.113866  0  1.0316  0
H  H52  1  0.33509794  0.02564916  0.47861993  1  0  0.110783  0  0.946403  0  0  0.131669  0  1.004559  0  0  0.133953  0  1.00346  0  0  0.089535  0.129806  0  1.005572  0
H  H53  1  0.54679011  0.85626113  0.52138460  1  0  0.111127  0  0.947015  0  0  0.131837  0  1.005294  0  0  0.134135  0  1.004194  0  0  0.08962  0.130016  0  1.006266  0
H  H54  1  0.19635285  0.01067531  0.50914677  1  0  0.103021  0  0.959179  0  0  0.122695  0  1.025833  0  0  0.123331  0  1.027154  0  0  0.085741  0.122345  0  1.024764  0
H  H55  1  0.50123362  0.68699006  0.49086771  1  0  0.102404  0  0.960163  0  0  0.121983  0  1.026815  0  0  0.122645  0  1.028089  0  0  0.08552  0.121612  0  1.025785  0
H  H56  1  0.17917313  0.45097849  0.87439070  1  0  0.369204  0  0.919229  0  0  0.346096  0  0.987732  0  0  0.355846  0  0.978066  0  0  0.294718  0.339397  0  0.994112  0
H  H57  1  0.57672167  0.30483829  0.12554425  1  0  0.369879  0  0.918736  0  0  0.346575  0  0.987542  0  0  0.35638  0  0.977801  0  0  0.294908  0.339851  0  0.993928  0
H  H58  1  0.18818592  0.62930607  0.04625941  1  0  0.068521  0  0.987355  0  0  0.082451  0  1.061605  0  0  0.083303  0  1.061566  0  0  0.083587  0.081654  0  1.06183  0
H  H59  1  0.58297742  0.14176371  0.95357035  1  0  0.06883  0  0.986175  0  0  0.082587  0  1.060668  0  0  0.083448  0  1.060627  0  0  0.083681  0.081753  0  1.06093  0
H  H60  1  0.08295160  0.45394476  0.99702939  1  0  0.076108  0  0.949015  0  0  0.092799  0  1.017291  0  0  0.093793  0  1.015954  0  0  0.092222  0.092067  0  1.018287  0
H  H61  1  0.45694600  0.08605657  0.00295371  1  0  0.075952  0  0.948283  0  0  0.092721  0  1.016533  0  0  0.093746  0  1.015144  0  0  0.091801  0.091981  0  1.017537  0
H  H62  1  0.00930581  0.54480112  0.93662049  1  0  0.073447  0  0.966153  0  0  0.095199  0  1.028415  0  0  0.094998  0  1.029193  0  0  0.092545  0.095255  0  1.027942  0
H  H63  1  0.60815776  0.07268319  0.06330232  1  0  0.073058  0  0.965801  0  0  0.094471  0  1.028657  0  0  0.094332  0  1.029334  0  0  0.092111  0.094487  0  1.028231  0
H  H64  1  0.28704396  0.86784900  0.03345459  1  0  0.370678  0  0.839178  0  0  0.361389  0  0.886939  0  0  0.368145  0  0.880085  0  0  0.328108  0.356561  0  0.891863  0
H  H65  1  0.83462320  0.25347098  0.96673769  1  0  0.370509  0  0.839199  0  0  0.361593  0  0.886489  0  0  0.368328  0  0.879674  0  0  0.328304  0.356768  0  0.89142  0
H  H66  1  0.11695217  0.95258218  0.99322395  1  0  0.073396  0  0.952187  0  0  0.088996  0  1.019622  0  0  0.089063  0  1.020735  0  0  0.090851  0.088978  0  1.01882  0
H  H67  1  0.95951241  0.12353564  0.00713318  1  0  0.073338  0  0.95044  0  0  0.089072  0  1.017896  0  0  0.089137  0  1.019007  0  0  0.090603  0.089054  0  1.017094  0
H  H68  1  0.07633261  0.80256873  0.01689008  1  0  0.070987  0  0.951261  0  0  0.088045  0  1.017784  0  0  0.08853  0  1.017664  0  0  0.094726  0.087515  0  1.017993  0
H  H69  1  0.78579168  0.05945367  0.98340363  1  0  0.070785  0  0.951458  0  0  0.087729  0  1.018162  0  0  0.08823  0  1.018028  0  0  0.094234  0.087201  0  1.018366  0
H  H70  1  0.01586310  0.79026659  0.86186977  1  0  0.081086  0  0.945092  0  0  0.099169  0  1.01074  0  0  0.098887  0  1.011903  0  0  0.097857  0.099303  0  1.010037  0
H  H71  1  0.92852643  0.15404658  0.13845644  1  0  0.0808  0  0.945904  0  0  0.099238  0  1.010984  0  0  0.098936  0  1.012181  0  0  0.097619  0.099385  0  1.010258  0
C  C72  1  0.38078968  0.33307112  0.15042323  1  0  0.329591  0  3.804107  0  0  0.319627  0  4.065346  0  0  0.34083  0  4.077824  0  0  0.095713  0.30512  0  4.056502  0
C  C73  1  0.18274380  0.23032998  0.84952409  1  0  0.328805  0  3.801814  0  0  0.318752  0  4.064042  0  0  0.339923  0  4.076593  0  0  0.094705  0.30427  0  4.055127  0
C  C74  1  0.35277184  0.43527528  0.20509022  1  0  -0.102925  0  3.798455  0  0  -0.090432  0  4.042486  0  0  -0.10577  0  4.066386  0  0  -0.03081  -0.080411  0  4.027109  0
C  C75  1  0.23014310  0.14754667  0.79475168  1  0  -0.100376  0  3.796553  0  0  -0.088465  0  4.040778  0  0  -0.103829  0  4.06477  0  0  -0.029816  -0.078423  0  4.025346  0
C  C76  1  0.28538010  0.41816570  0.27809476  1  0  -0.066467  0  3.722996  0  0  -0.086008  0  3.971297  0  0  -0.080905  0  3.98937  0  0  -0.082861  -0.089329  0  3.959402  0
C  C77  1  0.13990903  0.00715267  0.72174888  1  0  -0.067139  0  3.721419  0  0  -0.086917  0  3.97023  0  0  -0.081793  0  3.988351  0  0  -0.082678  -0.0903  0  3.958296  0
C  C78  1  0.24588632  0.30366143  0.29791973  1  0  -0.119676  0  3.81237  0  0  -0.136887  0  4.072227  0  0  -0.144703  0  4.09517  0  0  -0.114936  -0.131879  0  4.057076  0
C  C79  1  0.00559334  0.94794164  0.70203023  1  0  -0.120781  0  3.813843  0  0  -0.138133  0  4.073238  0  0  -0.145981  0  4.096218  0  0  -0.11536  -0.133106  0  4.058076  0
C  C80  1  0.27398756  0.20365497  0.24432083  1  0  -0.041468  0  3.809616  0  0  -0.054681  0  4.055902  0  0  -0.048922  0  4.073736  0  0  -0.089824  -0.058731  0  4.044328  0
C  C81  1  0.95934994  0.02973201  0.75577378  1  0  -0.038895  0  3.806604  0  0  -0.051533  0  4.052492  0  0  -0.045841  0  4.070284  0  0  -0.089195  -0.055528  0  4.040936  0
C  C82  1  0.33967732  0.21750963  0.17198402  1  0  -0.205535  0  3.741447  0  0  -0.22492  0  3.992661  0  0  -0.234592  0  4.010249  0  0  -0.109927  -0.218644  0  3.981308  0
C  C83  1  0.04567357  0.16773481  0.82814042  1  0  -0.206888  0  3.742794  0  0  -0.226425  0  3.994212  0  0  -0.236079  0  4.011836  0  0  -0.109803  -0.220148  0  3.982809  0
C  C84  1  0.39738990  0.55958727  0.19406687  1  0  0.159227  0  3.637662  0  0  0.121424  0  3.900592  0  0  0.146958  0  3.902717  0  0  0.085091  0.103369  0  3.900407  0
C  C85  1  0.36551561  0.20315512  0.80580759  1  0  0.1582  0  3.640214  0  0  0.12196  0  3.901597  0  0  0.147542  0  3.903827  0  0  0.085293  0.10389  0  3.901356  0
C  C86  1  0.49371858  0.71179900  0.11556263  1  0  -0.044243  0  3.609862  0  0  -0.057621  0  3.841724  0  0  -0.059604  0  3.85512  0  0  0.012094  -0.055778  0  3.83263  0
C  C87  1  0.59633039  0.37802983  0.88442371  1  0  -0.039765  0  3.604968  0  0  -0.057152  0  3.842342  0  0  -0.058905  0  3.855452  0  0  0.011972  -0.055457  0  3.833451  0
C  C88  1  0.45771068  0.67823794  0.97910247  1  0  0.63636  0  3.821906  0  0  0.591058  0  4.128093  0  0  0.628344  0  4.117832  0  0  0.216789  0.565219  0  4.134087  0
C  C89  1  0.69927304  0.47857029  0.02086922  1  0  0.634861  0  3.820351  0  0  0.589599  0  4.128255  0  0  0.626849  0  4.117982  0  0  0.215679  0.563774  0  4.134269  0
C  C90  1  0.65142539  0.80913442  0.20172797  1  0  0.082182  0  3.621141  0  0  0.088004  0  3.85757  0  0  0.087111  0  3.876255  0  0  -0.086354  0.088572  0  3.844817  0
C  C91  1  0.60733746  0.44947064  0.79818100  1  0  0.078771  0  3.623746  0  0  0.086415  0  3.859221  0  0  0.085481  0  3.877853  0  0  -0.086854  0.08699  0  3.84655  0
C  C92  1  0.68721504  0.84661001  0.33878089  1  0  -0.320072  0  3.684079  0  0  -0.403246  0  3.927912  0  0  -0.405714  0  3.939693  0  0  -0.246442  -0.401139  0  3.919495  0
C  C93  1  0.50780212  0.34814293  0.66111342  1  0  -0.317321  0  3.6816  0  0  -0.400473  0  3.925267  0  0  -0.402937  0  3.937146  0  0  -0.245816  -0.398375  0  3.916804  0
C  C94  1  0.69918812  0.93408490  0.17874600  1  0  -0.328862  0  3.70276  0  0  -0.411036  0  3.944259  0  0  -0.414004  0  3.955988  0  0  -0.250946  -0.408777  0  3.936186  0
C  C95  1  0.75528799  0.52036567  0.82125723  1  0  -0.329617  0  3.703659  0  0  -0.411509  0  3.945014  0  0  -0.414428  0  3.956756  0  0  -0.251085  -0.40926  0  3.936949  0
C  C96  1  0.96750342  0.61809573  0.54533840  1  0  0.322489  0  3.825133  0  0  0.313004  0  4.079542  0  0  0.334494  0  4.093362  0  0  0.085057  0.298069  0  4.069956  0
C  C97  1  0.07243757  0.42236355  0.45472089  1  0  0.322583  0  3.823254  0  0  0.31312  0  4.077244  0  0  0.334614  0  4.091034  0  0  0.085362  0.298188  0  4.06768  0
C  C98  1  0.88617560  0.62336387  0.43585026  1  0  -0.112733  0  3.825601  0  0  -0.098037  0  4.071986  0  0  -0.113876  0  4.095604  0  0  -0.035443  -0.087525  0  4.056807  0
C  C99  1  0.18725506  0.45051670  0.56415762  1  0  -0.113682  0  3.826125  0  0  -0.098627  0  4.072025  0  0  -0.114536  0  4.09571  0  0  -0.035829  -0.088085  0  4.056784  0
C  C100  1  0.74153231  0.56180289  0.38667995  1  0  -0.069491  0  3.734579  0  0  -0.092593  0  3.992866  0  0  -0.086743  0  4.010312  0  0  -0.085165  -0.096587  0  3.981354  0
C  C101  1  0.17499634  0.35495325  0.61318720  1  0  -0.070503  0  3.734967  0  0  -0.093702  0  3.993417  0  0  -0.087961  0  4.010994  0  0  -0.085868  -0.097642  0  3.981944  0
C  C102  1  0.67533597  0.49026603  0.43841373  1  0  -0.102385  0  3.784395  0  0  -0.120468  0  4.041831  0  0  -0.127607  0  4.063472  0  0  -0.110145  -0.115902  0  4.027824  0
C  C103  1  0.05178084  0.23697148  0.56138698  1  0  -0.10248  0  3.786986  0  0  -0.120331  0  4.044233  0  0  -0.127517  0  4.065822  0  0  -0.109774  -0.115776  0  4.030202  0
C  C104  1  0.75462830  0.47848053  0.54110588  1  0  -0.017222  0  3.777734  0  0  -0.030447  0  4.019189  0  0  -0.02347  0  4.035934  0  0  -0.084298  -0.035514  0  4.008527  0
C  C105  1  0.93722503  0.21352732  0.45874191  1  0  -0.017871  0  3.779046  0  0  -0.030578  0  4.020376  0  0  -0.023569  0  4.03709  0  0  -0.084483  -0.035665  0  4.00975  0
C  C106  1  0.89721111  0.54239916  0.59449572  1  0  -0.21675  0  3.755161  0  0  -0.233579  0  4.005509  0  0  -0.245437  0  4.025054  0  0  -0.113547  -0.225665  0  3.992891  0
C  C107  1  0.94761689  0.30279379  0.40544094  1  0  -0.215898  0  3.755301  0  0  -0.232529  0  4.005234  0  0  -0.244364  0  4.024776  0  0  -0.113389  -0.224658  0  3.992603  0
C  C108  1  0.94308908  0.68256216  0.36703421  1  0  0.123994  0  3.694683  0  0  0.086945  0  3.963733  0  0  0.112281  0  3.963927  0  0  0.065861  0.068922  0  3.965088  0
C  C109  1  0.31532600  0.57623508  0.63301049  1  0  0.12313  0  3.694902  0  0  0.085899  0  3.963738  0  0  0.111256  0  3.964006  0  0  0.064724  0.067838  0  3.965047  0
C  C110  1  0.11114865  0.76709213  0.30138038  1  0  -0.050286  0  3.602809  0  0  -0.067983  0  3.841345  0  0  -0.069292  0  3.853556  0  0  0.006331  -0.066573  0  3.833079  0
C  C111  1  0.46573546  0.80993040  0.69876118  1  0  -0.048086  0  3.599768  0  0  -0.067803  0  3.842329  0  0  -0.069124  0  3.854563  0  0  0.006676  -0.06642  0  3.834066  0
C  C112  1  0.24003404  0.75655095  0.31720065  1  0  0.634584  0  3.820712  0  0  0.592848  0  4.128719  0  0  0.629325  0  4.120199  0  0  0.215854  0.567753  0  4.133279  0
C  C113  1  0.43954716  0.92306728  0.68299013  1  0  0.633342  0  3.82247  0  0  0.592375  0  4.130053  0  0  0.628885  0  4.121495  0  0  0.215215  0.567262  0  4.134654  0
C  C114  1  0.13277425  0.90719828  0.31165286  1  0  0.086108  0  3.648533  0  0  0.091941  0  3.886292  0  0  0.091216  0  3.9053  0  0  -0.087099  0.092527  0  3.873008  0
C  C115  1  0.59546010  0.82105539  0.68836760  1  0  0.086488  0  3.649679  0  0  0.089635  0  3.891996  0  0  0.088858  0  3.911075  0  0  -0.086912  0.090261  0  3.878679  0
C  C116  1  0.99764613  0.90945779  0.26130720  1  0  -0.318919  0  3.692836  0  0  -0.400225  0  3.935013  0  0  -0.402957  0  3.94672  0  0  -0.245366  -0.397966  0  3.926719  0
C  C117  1  0.64799755  0.73625014  0.73871784  1  0  -0.318198  0  3.690427  0  0  -0.397933  0  3.933643  0  0  -0.400688  0  3.94544  0  0  -0.245491  -0.39567  0  3.925257  0
C  C118  1  0.23522672  0.02200072  0.44270632  1  0  -0.319046  0  3.679143  0  0  -0.401715  0  3.921288  0  0  -0.404048  0  3.932359  0  0  -0.25123  -0.399765  0  3.913447  0
C  C119  1  0.57907027  0.79232098  0.55728219  1  0  -0.318331  0  3.683017  0  0  -0.400202  0  3.925749  0  0  -0.40259  0  3.936915  0  0  -0.251143  -0.398253  0  3.91782  0
C  C120  1  0.10151779  0.53428579  0.96621436  1  0  -0.031511  0  3.668989  0  0  -0.124118  0  3.932006  0  0  -0.117782  0  3.937154  0  0  -0.163839  -0.128353  0  3.928452  0
C  C121  1  0.56809712  0.13531153  0.03367934  1  0  -0.031166  0  3.668102  0  0  -0.123427  0  3.930368  0  0  -0.117172  0  3.935587  0  0  -0.16329  -0.127581  0  3.926808  0
C  C122  1  0.10147091  0.84967193  0.95775146  1  0  -0.02572  0  3.662016  0  0  -0.116085  0  3.92554  0  0  -0.110199  0  3.931561  0  0  -0.150285  -0.119927  0  3.921242  0
C  C123  1  0.89209362  0.14367225  0.04255232  1  0  -0.02568  0  3.661003  0  0  -0.116418  0  3.924618  0  0  -0.110548  0  3.930634  0  0  -0.149454  -0.120258  0  3.920299  0
N  N124  1  0.45009190  0.58319548  0.12212060  1  0  -0.266385  0  3.329778  0  0  -0.238566  0  3.621817  0  0  -0.264473  0  3.636559  0  0  -0.364613  -0.223922  0  3.613738  0
N  N125  1  0.46114724  0.32779041  0.87784602  1  0  -0.267956  0  3.330536  0  0  -0.238663  0  3.621504  0  0  -0.264767  0  3.636459  0  0  -0.364529  -0.223958  0  3.613428  0
N  N126  1  0.06919231  0.72388158  0.38720950  1  0  -0.258965  0  3.293154  0  0  -0.227296  0  3.580233  0  0  -0.251357  0  3.592924  0  0  -0.361658  -0.214504  0  3.574069  0
N  N127  1  0.33652181  0.68221530  0.61294004  1  0  -0.259062  0  3.292157  0  0  -0.226489  0  3.579271  0  0  -0.250614  0  3.592116  0  0  -0.36116  -0.213621  0  3.572996  0
O  O128  1  0.44810238  0.34236225  0.08455459  1  0  -0.525531  0  2.213161  0  0  -0.499936  0  2.474764  0  0  -0.537948  0  2.476658  0  0  -0.301051  -0.473964  0  2.472704  0
O  O129  1  0.25794793  0.36352212  0.91536871  1  0  -0.525566  0  2.209968  0  0  -0.499939  0  2.471974  0  0  -0.538017  0  2.474127  0  0  -0.301463  -0.473935  0  2.46979  0
O  O130  1  0.45280979  0.56836943  0.91654865  1  0  -0.53823  0  2.099348  0  0  -0.522144  0  2.37623  0  0  -0.55763  0  2.36799  0  0  -0.291774  -0.497577  0  2.38103  0
O  O131  1  0.65191855  0.53607557  0.08347478  1  0  -0.53731  0  2.097231  0  0  -0.52099  0  2.374372  0  0  -0.556473  0  2.366124  0  0  -0.291318  -0.496462  0  2.379262  0
O  O132  1  0.43777205  0.75565742  0.93357272  1  0  -0.612879  0  2.02353  0  0  -0.561254  0  2.280571  0  0  -0.588626  0  2.268896  0  0  -0.319835  -0.541334  0  2.287675  0
O  O133  1  0.82232525  0.50430646  0.06637378  1  0  -0.613345  0  2.024304  0  0  -0.560749  0  2.280671  0  0  -0.588104  0  2.26899  0  0  -0.319274  -0.540828  0  2.287753  0
O  O134  1  0.10480902  0.68031682  0.60143718  1  0  -0.55213  0  2.237986  0  0  -0.513386  0  2.521894  0  0  -0.553631  0  2.520541  0  0  -0.314651  -0.485678  0  2.521995  0
O  O135  1  0.07847766  0.50369714  0.39878432  1  0  -0.552595  0  2.239413  0  0  -0.513592  0  2.523101  0  0  -0.553876  0  2.521832  0  0  -0.315072  -0.485873  0  2.52315  0
O  O136  1  0.28176543  0.71006176  0.39612569  1  0  -0.526147  0  2.098516  0  0  -0.509636  0  2.372174  0  0  -0.54809  0  2.366897  0  0  -0.289912  -0.483415  0  2.37504  0
O  O137  1  0.31418111  0.88598395  0.60398337  1  0  -0.525998  0  2.100058  0  0  -0.509727  0  2.37374  0  0  -0.548109  0  2.368217  0  0  -0.290147  -0.483507  0  2.376661  0
O  O138  1  0.29766754  0.78676910  0.25472724  1  0  -0.592851  0  1.889165  0  0  -0.561538  0  2.108592  0  0  -0.586724  0  2.100162  0  0  -0.323062  -0.542564  0  2.113103  0
O  O139  1  0.53236187  0.04314695  0.74550349  1  0  -0.592068  0  1.890983  0  0  -0.560583  0  2.109964  0  0  -0.585787  0  2.101524  0  0  -0.322005  -0.541619  0  2.114483  0
O  O140  1  0.12634910  0.49983070  0.86091609  1  0  -0.557785  0  2.173373  0  0  -0.485657  0  2.427857  0  0  -0.506937  0  2.416005  0  0  -0.428188  -0.47019  0  2.435182  0
O  O141  1  0.63908920  0.26552994  0.13890834  1  0  -0.55852  0  2.17502  0  0  -0.486208  0  2.429705  0  0  -0.507575  0  2.417841  0  0  -0.428199  -0.47067  0  2.436984  0
O  O142  1  0.22155184  0.85109132  0.95200322  1  0  -0.517985  0  2.138626  0  0  -0.457929  0  2.383252  0  0  -0.474984  0  2.371214  0  0  -0.40813  -0.445693  0  2.391212  0
O  O143  1  0.89941111  0.26951760  0.04818831  1  0  -0.517302  0  2.138132  0  0  -0.457603  0  2.382661  0  0  -0.474626  0  2.370603  0  0  -0.408151  -0.445388  0  2.390658  0
