# generated using pymatgen
data_Ag2H3C7NO4
_symmetry_space_group_name_H-M   'P 1'
_cell_length_a   6.74304098
_cell_length_b   10.54278221
_cell_length_c   11.11662342
_cell_angle_alpha   89.99913736
_cell_angle_beta   105.31268612
_cell_angle_gamma   89.99961616
_symmetry_Int_Tables_number   1
_chemical_formula_structural   Ag2H3C7NO4
_chemical_formula_sum   'Ag8 H12 C28 N4 O16'
_cell_volume   762.22940042
_cell_formula_units_Z   4
loop_
 _symmetry_equiv_pos_site_id
 _symmetry_equiv_pos_as_xyz
  1  'x, y, z'
loop_
 _atom_site_type_symbol
 _atom_site_label
 _atom_site_symmetry_multiplicity
 _atom_site_fract_x
 _atom_site_fract_y
 _atom_site_fract_z
 _atom_site_occupancy
 _atom_site_pbe_bader_spin_density
 _atom_site_pbe_cm5_charge
 _atom_site_pbe_ddec_charge
 _atom_site_pbe_ddec_spin_density
 _atom_site_pbe_ddec_sum_bond_order
 _atom_site_pbe_magmom
Ag  Ag0  1  0.80607141  0.46634577  0.11757414  1  0  0.447584  0.416328  0  1.966313  0
Ag  Ag1  1  0.69391798  0.96635218  0.88241105  1  0  0.447534  0.416305  0  1.966254  0
Ag  Ag2  1  0.19392593  0.53365533  0.88242475  1  0  0.44756  0.416284  0  1.966352  0
Ag  Ag3  1  0.30607632  0.03365082  0.11758464  1  0  0.447495  0.41625  0  1.966213  0
Ag  Ag4  1  0.05095333  0.69871465  0.14967898  1  0  0.413479  0.475056  0  1.839846  0
Ag  Ag5  1  0.44903545  0.19872067  0.85030694  1  0  0.413441  0.475025  0  1.839881  0
Ag  Ag6  1  0.94904864  0.30128550  0.85031976  1  0  0.413469  0.475063  0  1.839782  0
Ag  Ag7  1  0.55095578  0.80127947  0.14968824  1  0  0.41346  0.475045  0  1.839917  0
H  H8  1  0.20901025  0.29148934  0.55779333  1  0  0.109737  0.1299  0  1.014664  0
H  H9  1  0.29098600  0.79149377  0.44219970  1  0  0.109751  0.129948  0  1.014548  0
H  H10  1  0.79099337  0.70850321  0.44219669  1  0  0.109744  0.129997  0  1.014425  0
H  H11  1  0.70902051  0.20850543  0.55780519  1  0  0.109735  0.129948  0  1.014542  0
H  H12  1  0.05864618  0.45452289  0.39310634  1  0  0.116412  0.091524  0  1.008569  0
H  H13  1  0.44133793  0.95451742  0.60688238  1  0  0.116419  0.091505  0  1.008766  0
H  H14  1  0.94135576  0.54547062  0.60689421  1  0  0.116371  0.09148  0  1.008519  0
H  H15  1  0.55866713  0.04548178  0.39311598  1  0  0.116416  0.091511  0  1.008714  0
H  H16  1  0.16633896  0.06287757  0.49976136  1  0  0.108168  0.113048  0  1.02013  0
H  H17  1  0.33365683  0.56287804  0.50022945  1  0  0.108183  0.11313  0  1.020099  0
H  H18  1  0.83366305  0.93711404  0.50023379  1  0  0.108152  0.113049  0  1.020215  0
H  H19  1  0.66634353  0.43712590  0.49977443  1  0  0.108208  0.113146  0  1.020116  0
C  C20  1  0.90919226  0.19833005  0.22528076  1  0  0.112979  0.082137  0  3.904859  0
C  C21  1  0.59079727  0.69833482  0.77471187  1  0  0.112898  0.082202  0  3.90497  0
C  C22  1  0.09080516  0.80166630  0.77471184  1  0  0.112988  0.082204  0  3.905131  0
C  C23  1  0.40920616  0.30166912  0.22529342  1  0  0.112996  0.082152  0  3.905119  0
C  C24  1  0.98954795  0.10092038  0.31070099  1  0  -0.00164  -0.06648  0  3.913353  0
C  C25  1  0.51045261  0.60092495  0.68928944  1  0  -0.001707  -0.066493  0  3.913533  0
C  C26  1  0.01045559  0.89906839  0.68929532  1  0  -0.001613  -0.066521  0  3.913448  0
C  C27  1  0.48955393  0.39907899  0.31071276  1  0  -0.001698  -0.066511  0  3.913595  0
C  C28  1  0.79163240  0.16583138  0.09392064  1  0  0.201605  0.523568  0  4.228084  0
C  C29  1  0.70837322  0.66582977  0.90606520  1  0  0.201443  0.523255  0  4.228485  0
C  C30  1  0.20835882  0.83416876  0.90607544  1  0  0.201563  0.523485  0  4.227739  0
C  C31  1  0.29163333  0.33417607  0.09393700  1  0  0.201521  0.523328  0  4.228128  0
C  C32  1  0.12488194  0.26265822  0.46398914  1  0  -0.078086  -0.100885  0  3.938661  0
C  C33  1  0.37508087  0.76266554  0.53600869  1  0  -0.078056  -0.100896  0  3.938247  0
C  C34  1  0.87512615  0.73733623  0.53601241  1  0  -0.078123  -0.10108  0  3.938411  0
C  C35  1  0.62491950  0.23733650  0.46399429  1  0  -0.078098  -0.101042  0  3.938314  0
C  C36  1  0.04105073  0.35333063  0.37390415  1  0  0.0417  0.075309  0  3.949917  0
C  C37  1  0.45893367  0.85334090  0.62608515  1  0  0.041784  0.075546  0  3.950193  0
C  C38  1  0.95894963  0.64665909  0.62609973  1  0  0.041827  0.07548  0  3.949812  0
C  C39  1  0.54105901  0.14666114  0.37391747  1  0  0.041832  0.075581  0  3.949975  0
C  C40  1  0.10031117  0.13527186  0.43104202  1  0  -0.06908  -0.059642  0  3.929032  0
C  C41  1  0.39967857  0.63526337  0.56895846  1  0  -0.069192  -0.059943  0  3.929117  0
C  C42  1  0.89968930  0.86472924  0.56895378  1  0  -0.069123  -0.059666  0  3.929095  0
C  C43  1  0.60031867  0.36473962  0.43104850  1  0  -0.069198  -0.059819  0  3.929083  0
C  C44  1  0.95312310  0.96208050  0.27774262  1  0  0.206168  0.599325  0  4.221218  0
C  C45  1  0.54687085  0.46208270  0.72225327  1  0  0.206201  0.599427  0  4.221309  0
C  C46  1  0.04686500  0.03791680  0.72225564  1  0  0.206356  0.599666  0  4.220735  0
C  C47  1  0.45312952  0.53792219  0.27774971  1  0  0.206288  0.599571  0  4.221288  0
N  N48  1  0.93631937  0.32202289  0.25711375  1  0  -0.335192  -0.204118  0  3.58831  0
N  N49  1  0.56365567  0.82203208  0.74287293  1  0  -0.335086  -0.204094  0  3.588236  0
N  N50  1  0.06367798  0.67797725  0.74288514  1  0  -0.33525  -0.20415  0  3.58857  0
N  N51  1  0.43634938  0.17797566  0.25712542  1  0  -0.335124  -0.204076  0  3.588149  0
O  O52  1  0.10358138  0.89886859  0.26151918  1  0  -0.322264  -0.548152  0  2.33449  0
O  O53  1  0.39641599  0.39886903  0.73847521  1  0  -0.322251  -0.548197  0  2.334614  0
O  O54  1  0.89640977  0.10112681  0.73848229  1  0  -0.322309  -0.548292  0  2.334555  0
O  O55  1  0.60358443  0.60113681  0.26152418  1  0  -0.322305  -0.548257  0  2.334512  0
O  O56  1  0.66739269  0.24780576  0.03173592  1  0  -0.316469  -0.509848  0  2.520584  0
O  O57  1  0.83262065  0.74780832  0.96825272  1  0  -0.316443  -0.509754  0  2.520351  0
O  O58  1  0.33260469  0.75218964  0.96826027  1  0  -0.316477  -0.509827  0  2.520427  0
O  O59  1  0.16738899  0.25219278  0.03174819  1  0  -0.316463  -0.509736  0  2.520024  0
O  O60  1  0.77650200  0.92083084  0.27952452  1  0  -0.332769  -0.55036  0  2.415761  0
O  O61  1  0.72347872  0.42083610  0.72048058  1  0  -0.332798  -0.550395  0  2.415959  0
O  O62  1  0.22348614  0.07916551  0.72047106  1  0  -0.332859  -0.550525  0  2.415465  0
O  O63  1  0.27652315  0.57916689  0.27952624  1  0  -0.33281  -0.550428  0  2.415921  0
O  O64  1  0.82712392  0.05656822  0.05747510  1  0  -0.302298  -0.466721  0  2.498318  0
O  O65  1  0.67285735  0.55658325  0.94252089  1  0  -0.302181  -0.466562  0  2.498616  0
O  O66  1  0.17286569  0.94343383  0.94252701  1  0  -0.302245  -0.46669  0  2.498087  0
O  O67  1  0.32714610  0.44342354  0.05748260  1  0  -0.302257  -0.466618  0  2.498475  0
