# generated using pymatgen
data_LiH4C7O2
_symmetry_space_group_name_H-M   'P 1'
_cell_length_a   4.98838139
_cell_length_b   8.45025426
_cell_length_c   12.82488176
_cell_angle_alpha   97.47668612
_cell_angle_beta   90.00222691
_cell_angle_gamma   90.00056205
_symmetry_Int_Tables_number   1
_chemical_formula_structural   LiH4C7O2
_chemical_formula_sum   'Li4 H16 C28 O8'
_cell_volume   536.01209684
_cell_formula_units_Z   4
loop_
 _symmetry_equiv_pos_site_id
 _symmetry_equiv_pos_as_xyz
  1  'x, y, z'
loop_
 _atom_site_type_symbol
 _atom_site_label
 _atom_site_symmetry_multiplicity
 _atom_site_fract_x
 _atom_site_fract_y
 _atom_site_fract_z
 _atom_site_occupancy
 _atom_site_hle17_bader_spin_density
 _atom_site_hle17_ddec_charge
 _atom_site_hle17_ddec_spin_density
 _atom_site_hle17_ddec_sum_bond_order
 _atom_site_hle17_magmom
 _atom_site_hse06_10hf_bader_spin_density
 _atom_site_hse06_10hf_ddec_charge
 _atom_site_hse06_10hf_ddec_spin_density
 _atom_site_hse06_10hf_ddec_sum_bond_order
 _atom_site_hse06_10hf_magmom
 _atom_site_hse06_bader_spin_density
 _atom_site_hse06_ddec_charge
 _atom_site_hse06_ddec_spin_density
 _atom_site_hse06_ddec_sum_bond_order
 _atom_site_hse06_magmom
 _atom_site_pbe_bader_spin_density
 _atom_site_pbe_cm5_charge
 _atom_site_pbe_ddec_charge
 _atom_site_pbe_ddec_spin_density
 _atom_site_pbe_ddec_sum_bond_order
 _atom_site_pbe_magmom
Li  Li0  1  0.59717536  0.35258105  0.49520654  1  0  0.866594  0  0.387262  0  0  0.830438  0  0.487083  0  0  0.839195  0  0.471012  0  0  0.530868  0.824068  0  0.498537  0
Li  Li1  1  0.09717038  0.14742017  0.50479264  1  0  0.866563  0  0.387334  0  0  0.830401  0  0.487173  0  0  0.839157  0  0.471098  0  0  0.53083  0.82403  0  0.498627  0
Li  Li2  1  0.40280848  0.64741403  0.50479331  1  0  0.866572  0  0.387285  0  0  0.830442  0  0.487078  0  0  0.839182  0  0.471011  0  0  0.530862  0.824076  0  0.49853  0
Li  Li3  1  0.90282149  0.85258446  0.49520802  1  0  0.866571  0  0.387312  0  0  0.830418  0  0.487134  0  0  0.83917  0  0.47106  0  0  0.530835  0.82405  0  0.498587  0
H  H4  1  0.39764835  0.57841344  0.27451817  1  0  0.100278  0  0.974581  0  0  0.107319  0  1.041325  0  0  0.110371  0  1.039791  0  0  0.11351  0.105232  0  1.042125  0
H  H5  1  0.89762956  0.92158023  0.72548501  1  0  0.100236  0  0.974485  0  0  0.107223  0  1.041313  0  0  0.110264  0  1.039816  0  0  0.113485  0.105127  0  1.042128  0
H  H6  1  0.60235554  0.42157686  0.72547816  1  0  0.100251  0  0.974546  0  0  0.107294  0  1.041297  0  0  0.110343  0  1.039771  0  0  0.113498  0.105204  0  1.042102  0
H  H7  1  0.10237433  0.07841844  0.27451826  1  0  0.10026  0  0.974479  0  0  0.107269  0  1.041274  0  0  0.110313  0  1.039774  0  0  0.113489  0.105173  0  1.042089  0
H  H8  1  0.36048126  0.63344307  0.09274700  1  0  0.084658  0  0.995887  0  0  0.095155  0  1.059446  0  0  0.097269  0  1.060339  0  0  0.095557  0.093567  0  1.059302  0
H  H9  1  0.86046192  0.86656578  0.90725846  1  0  0.084685  0  0.996026  0  0  0.095177  0  1.059586  0  0  0.097291  0  1.060478  0  0  0.095562  0.093584  0  1.059448  0
H  H10  1  0.63952063  0.36655916  0.90725033  1  0  0.084695  0  0.99591  0  0  0.095189  0  1.05946  0  0  0.097303  0  1.060353  0  0  0.095585  0.093601  0  1.059316  0
H  H11  1  0.13954397  0.13343409  0.09274647  1  0  0.084685  0  0.996028  0  0  0.095212  0  1.05954  0  0  0.097327  0  1.06043  0  0  0.095577  0.093622  0  1.059399  0
H  H12  1  0.65646871  0.33288646  0.05294901  1  0  0.08769  0  0.982435  0  0  0.098149  0  1.045987  0  0  0.100608  0  1.046002  0  0  0.097009  0.096388  0  1.046173  0
H  H13  1  0.15646259  0.16712245  0.94704548  1  0  0.087543  0  0.982282  0  0  0.098056  0  1.045825  0  0  0.100515  0  1.04584  0  0  0.096955  0.096294  0  1.046011  0
H  H14  1  0.34352316  0.66712651  0.94704768  1  0  0.08766  0  0.982504  0  0  0.098159  0  1.046005  0  0  0.10062  0  1.046019  0  0  0.096996  0.096398  0  1.04619  0
H  H15  1  0.84354732  0.83287981  0.05295966  1  0  0.087564  0  0.982348  0  0  0.098111  0  1.045839  0  0  0.10057  0  1.045854  0  0  0.096965  0.09635  0  1.046027  0
H  H16  1  0.69396269  0.28355262  0.23639538  1  0  0.101575  0  0.948748  0  0  0.109907  0  1.012637  0  0  0.112567  0  1.012196  0  0  0.110979  0.107642  0  1.013848  0
H  H17  1  0.19395485  0.21643874  0.76359819  1  0  0.101613  0  0.948996  0  0  0.109913  0  1.012895  0  0  0.112594  0  1.012429  0  0  0.110938  0.107648  0  1.014105  0
H  H18  1  0.30604120  0.71644482  0.76359688  1  0  0.10157  0  0.948744  0  0  0.109895  0  1.012646  0  0  0.112555  0  1.012205  0  0  0.110914  0.107632  0  1.013853  0
H  H19  1  0.80606107  0.78356710  0.23640725  1  0  0.101663  0  0.948888  0  0  0.109857  0  1.0129  0  0  0.11254  0  1.012432  0  0  0.110916  0.107597  0  1.014103  0
C  C20  1  0.09233456  0.38706802  0.37700437  1  0  0.723464  0  3.880449  0  0  0.677771  0  4.173137  0  0  0.71174  0  4.160993  0  0  0.249304  0.654923  0  4.180366  0
C  C21  1  0.59228457  0.11294150  0.62299388  1  0  0.723403  0  3.880344  0  0  0.677799  0  4.172927  0  0  0.71177  0  4.160784  0  0  0.249453  0.654947  0  4.180154  0
C  C22  1  0.90765930  0.61292943  0.62299100  1  0  0.723579  0  3.880403  0  0  0.677934  0  4.173015  0  0  0.711902  0  4.160871  0  0  0.249383  0.655085  0  4.180246  0
C  C23  1  0.40771331  0.88706075  0.37700970  1  0  0.723746  0  3.880031  0  0  0.677986  0  4.172823  0  0  0.711957  0  4.160677  0  0  0.249506  0.655133  0  4.180056  0
C  C24  1  0.04823694  0.42827089  0.26844539  1  0  -0.087071  0  3.739703  0  0  -0.064056  0  3.968942  0  0  -0.072897  0  3.991874  0  0  -0.008733  -0.058195  0  3.953136  0
C  C25  1  0.54823737  0.07169884  0.73154963  1  0  -0.086794  0  3.739247  0  0  -0.063726  0  3.968364  0  0  -0.072567  0  3.991302  0  0  -0.008589  -0.057866  0  3.952553  0
C  C26  1  0.95176093  0.57172417  0.73154901  1  0  -0.087069  0  3.739551  0  0  -0.064088  0  3.968807  0  0  -0.072929  0  3.991736  0  0  -0.008727  -0.058228  0  3.953001  0
C  C27  1  0.45177655  0.92829983  0.26845521  1  0  -0.087059  0  3.739452  0  0  -0.063925  0  3.968604  0  0  -0.072768  0  3.991543  0  0  -0.008729  -0.058066  0  3.952796  0
C  C28  1  0.23239951  0.52747984  0.22586360  1  0  -0.058455  0  3.73823  0  0  -0.081957  0  3.984721  0  0  -0.081332  0  4.005889  0  0  -0.073656  -0.081301  0  3.969726  0
C  C29  1  0.73235435  0.97252184  0.77413545  1  0  -0.058393  0  3.738539  0  0  -0.081897  0  3.985076  0  0  -0.081278  0  4.006242  0  0  -0.073718  -0.081242  0  3.970075  0
C  C30  1  0.76760839  0.47251523  0.77413392  1  0  -0.058362  0  3.738257  0  0  -0.081857  0  3.984728  0  0  -0.081232  0  4.005895  0  0  -0.073666  -0.081203  0  3.969735  0
C  C31  1  0.26765555  0.02747444  0.22586763  1  0  -0.058398  0  3.738636  0  0  -0.081924  0  3.98518  0  0  -0.081305  0  4.006347  0  0  -0.073698  -0.081269  0  3.970179  0
C  C32  1  0.21124736  0.55653215  0.12217816  1  0  -0.114791  0  3.735518  0  0  -0.131186  0  3.981327  0  0  -0.135791  0  4.003609  0  0  -0.089645  -0.128605  0  3.966603  0
C  C33  1  0.71125432  0.94346099  0.87782297  1  0  -0.114675  0  3.734712  0  0  -0.131072  0  3.980537  0  0  -0.135669  0  4.002807  0  0  -0.089511  -0.128491  0  3.965816  0
C  C34  1  0.78875252  0.44346530  0.87781722  1  0  -0.114813  0  3.735489  0  0  -0.131193  0  3.981273  0  0  -0.135797  0  4.003556  0  0  -0.089613  -0.128611  0  3.966547  0
C  C35  1  0.28875358  0.05653887  0.12218040  1  0  -0.114692  0  3.734762  0  0  -0.131123  0  3.980607  0  0  -0.135722  0  4.00288  0  0  -0.089581  -0.128543  0  3.965886  0
C  C36  1  0.00728753  0.48639839  0.05586391  1  0  0.052803  0  3.761378  0  0  0.066168  0  3.993989  0  0  0.06788  0  4.016075  0  0  -0.005213  0.065134  0  3.978804  0
C  C37  1  0.50725640  0.01360917  0.94413836  1  0  0.052591  0  3.76141  0  0  0.065949  0  3.994067  0  0  0.06766  0  4.016152  0  0  -0.005426  0.064916  0  3.978877  0
C  C38  1  0.99271435  0.51360503  0.94413197  1  0  0.052786  0  3.761345  0  0  0.066133  0  3.993965  0  0  0.067845  0  4.016051  0  0  -0.005272  0.0651  0  3.978778  0
C  C39  1  0.49275351  0.98639070  0.05586735  1  0  0.0527  0  3.761505  0  0  0.066076  0  3.994144  0  0  0.067786  0  4.016232  0  0  -0.005312  0.065043  0  3.978954  0
C  C40  1  0.82005165  0.38902171  0.10022339  1  0  -0.123921  0  3.72558  0  0  -0.141204  0  3.974836  0  0  -0.145316  0  3.995175  0  0  -0.090895  -0.138057  0  3.961087  0
C  C41  1  0.32005592  0.11096365  0.89977234  1  0  -0.123697  0  3.726024  0  0  -0.141022  0  3.97526  0  0  -0.145135  0  3.995611  0  0  -0.090808  -0.137872  0  3.961507  0
C  C42  1  0.17994422  0.61098290  0.89977181  1  0  -0.123922  0  3.725624  0  0  -0.141236  0  3.974875  0  0  -0.145349  0  3.995213  0  0  -0.090921  -0.138087  0  3.961123  0
C  C43  1  0.67995198  0.88903740  0.10023036  1  0  -0.123979  0  3.726145  0  0  -0.141317  0  3.975331  0  0  -0.145431  0  3.995681  0  0  -0.090973  -0.138169  0  3.961582  0
C  C44  1  0.83904883  0.36090786  0.20447300  1  0  -0.046224  0  3.721684  0  0  -0.06768  0  3.967995  0  0  -0.066394  0  3.987759  0  0  -0.069941  -0.068992  0  3.955412  0
C  C45  1  0.33900692  0.13908841  0.79552159  1  0  -0.046445  0  3.721258  0  0  -0.067891  0  3.967589  0  0  -0.066621  0  3.987344  0  0  -0.069914  -0.069206  0  3.955012  0
C  C46  1  0.16095106  0.63909078  0.79552169  1  0  -0.046257  0  3.721505  0  0  -0.067696  0  3.96781  0  0  -0.06641  0  3.987573  0  0  -0.069821  -0.069007  0  3.955225  0
C  C47  1  0.66100700  0.86091145  0.20448257  1  0  -0.046275  0  3.721107  0  0  -0.067648  0  3.967419  0  0  -0.066378  0  3.987172  0  0  -0.069742  -0.068964  0  3.954843  0
O  O48  1  0.30282254  0.44167738  0.42541664  1  0  -0.799364  0  1.989932  0  0  -0.753904  0  2.235883  0  0  -0.774039  0  2.220056  0  0  -0.436413  -0.740018  0  2.246181  0
O  O49  1  0.80284499  0.05831619  0.57458264  1  0  -0.799709  0  1.988829  0  0  -0.754266  0  2.234721  0  0  -0.774415  0  2.218903  0  0  -0.436702  -0.74037  0  2.245014  0
O  O50  1  0.69715729  0.55831412  0.57458292  1  0  -0.799511  0  1.989814  0  0  -0.754062  0  2.235726  0  0  -0.774196  0  2.2199  0  0  -0.436506  -0.740172  0  2.246027  0
O  O51  1  0.19715088  0.94168725  0.42541792  1  0  -0.799762  0  1.988781  0  0  -0.754272  0  2.234747  0  0  -0.774421  0  2.218925  0  0  -0.436672  -0.740375  0  2.245043  0
O  O52  1  0.92724185  0.29396235  0.41507094  1  0  -0.787236  0  1.937967  0  0  -0.744928  0  2.180527  0  0  -0.763861  0  2.163229  0  0  -0.422708  -0.731786  0  2.191878  0
O  O53  1  0.42725991  0.20602401  0.58492647  1  0  -0.786915  0  1.938949  0  0  -0.744659  0  2.18153  0  0  -0.763584  0  2.164224  0  0  -0.422583  -0.731525  0  2.192886  0
O  O54  1  0.07273598  0.70603510  0.58492209  1  0  -0.787163  0  1.937977  0  0  -0.744882  0  2.180529  0  0  -0.763805  0  2.16322  0  0  -0.42268  -0.731742  0  2.191885  0
O  O55  1  0.57272594  0.79397467  0.41507993  1  0  -0.787043  0  1.938849  0  0  -0.744733  0  2.181477  0  0  -0.763651  0  2.164167  0  0  -0.42261  -0.7316  0  2.192837  0
