# generated using pymatgen
data_Zn2H7C11NO7
_symmetry_space_group_name_H-M   'P 1'
_cell_length_a   10.36309555
_cell_length_b   13.18342814
_cell_length_c   19.75997531
_cell_angle_alpha   90.00604287
_cell_angle_beta   89.72041570
_cell_angle_gamma   90.00180598
_symmetry_Int_Tables_number   1
_chemical_formula_structural   Zn2H7C11NO7
_chemical_formula_sum   'Zn8 H28 C44 N4 O28'
_cell_volume   2699.59791176
_cell_formula_units_Z   4
loop_
 _symmetry_equiv_pos_site_id
 _symmetry_equiv_pos_as_xyz
  1  'x, y, z'
loop_
 _atom_site_type_symbol
 _atom_site_label
 _atom_site_symmetry_multiplicity
 _atom_site_fract_x
 _atom_site_fract_y
 _atom_site_fract_z
 _atom_site_occupancy
 _atom_site_pbe_bader_charge
 _atom_site_pbe_bader_spin_density
 _atom_site_pbe_cm5_charge
 _atom_site_pbe_ddec_charge
 _atom_site_pbe_ddec_spin_density
 _atom_site_pbe_ddec_sum_bond_order
 _atom_site_pbe_magmom
Zn  Zn0  1  0.16530026  0.40819606  0.72783611  1  1.307334  0  0.679883  0.90711  0  2.338286  0
Zn  Zn1  1  0.83474171  0.90827303  0.27213991  1  1.307274  0  0.680043  0.907454  0  2.338221  0
Zn  Zn2  1  0.47408997  0.49633053  0.73057952  1  1.300782  0  0.689405  0.908642  0  2.357635  0
Zn  Zn3  1  0.52590032  0.99634083  0.26941237  1  1.30071  0  0.68935  0.908506  0  2.357755  0
Zn  Zn4  1  0.66471177  0.29208514  0.77260532  1  1.3061  0  0.680295  0.907213  0  2.336278  0
Zn  Zn5  1  0.33530983  0.79200813  0.22743185  1  1.306688  0  0.68047  0.907543  0  2.336333  0
Zn  Zn6  1  0.97376520  0.20419202  0.76836605  1  1.296795  0  0.69086  0.910172  0  2.352786  0
Zn  Zn7  1  0.02622220  0.70415106  0.23165786  1  1.296386  0  0.690954  0.910311  0  2.352507  0
H  H8  1  0.25906624  0.14346422  0.79629167  1  0.090301  0  0.113158  0.090462  0  0.979267  0
H  H9  1  0.74098349  0.64348024  0.20372588  1  0.090542  0  0.113161  0.090456  0  0.97957  0
H  H10  1  0.12942753  0.93476432  0.67086198  1  0.078688  0  0.115059  0.07216  0  0.94111  0
H  H11  1  0.87034766  0.43461513  0.32904375  1  0.080713  0  0.114822  0.072025  0  0.940954  0
H  H12  1  0.13703586  0.07736051  0.65850740  1  0.066525  0  0.108226  0.066271  0  0.96667  0
H  H13  1  0.86287719  0.57722611  0.34150509  1  0.068431  0  0.108293  0.0662  0  0.966523  0
H  H14  1  0.76039495  0.55599554  0.70299003  1  0.080878  0  0.112447  0.088839  0  0.980859  0
H  H15  1  0.23966024  0.05598532  0.29699807  1  0.080935  0  0.112474  0.088717  0  0.980857  0
H  H16  1  0.62596252  0.77584739  0.81239879  1  0.114384  0  0.117082  0.074954  0  0.939211  0
H  H17  1  0.37405596  0.27568074  0.18742670  1  0.112917  0  0.116894  0.074623  0  0.939457  0
H  H18  1  0.62869933  0.63598728  0.83535748  1  0.066566  0  0.109716  0.067791  0  0.967374  0
H  H19  1  0.37127699  0.13577296  0.16462468  1  0.065513  0  0.109708  0.067867  0  0.96734  0
H  H20  1  0.47188348  0.62272902  0.53381660  1  0.103935  0  0.107481  0.112815  0  0.993266  0
H  H21  1  0.52813749  0.12276340  0.46619496  1  0.103734  0  0.107548  0.112887  0  0.993332  0
H  H22  1  0.43391889  0.68506716  0.41519116  1  0.100298  0  0.106424  0.113143  0  0.996123  0
H  H23  1  0.56609771  0.18508327  0.58482784  1  0.099719  0  0.106372  0.113038  0  0.996247  0
H  H24  1  0.04846755  0.56618632  0.42235664  1  0.057225  0  0.098475  0.094127  0  1.029764  0
H  H25  1  0.95149910  0.06612157  0.57765704  1  0.057388  0  0.098488  0.094201  0  1.029581  0
H  H26  1  0.08744142  0.50180009  0.54009306  1  0.082356  0  0.107696  0.115956  0  0.996053  0
H  H27  1  0.91250925  0.00175980  0.45991508  1  0.082675  0  0.107748  0.115984  0  0.996151  0
H  H28  1  0.58642487  0.19422977  0.95931294  1  0.106442  0  0.107792  0.116081  0  0.996153  0
H  H29  1  0.41354090  0.69424973  0.04071232  1  0.106295  0  0.107838  0.116187  0  0.996038  0
H  H30  1  0.97226511  0.07595403  0.96484889  1  0.10139  0  0.107699  0.113127  0  0.993596  0
H  H31  1  0.02774057  0.57589961  0.03515736  1  0.100875  0  0.107619  0.113079  0  0.993535  0
H  H32  1  0.93473241  0.01565175  0.08411881  1  0.09834  0  0.106582  0.112907  0  0.995477  0
H  H33  1  0.06531043  0.51552312  0.91589479  1  0.097906  0  0.106626  0.112817  0  0.995558  0
H  H34  1  0.54808920  0.13212744  0.07785264  1  0.056273  0  0.098566  0.094839  0  1.026646  0
H  H35  1  0.45192521  0.63208318  0.92218692  1  0.056048  0  0.098578  0.094984  0  1.026572  0
C  C36  1  0.38001228  0.27477430  0.76427577  1  1.585203  0  0.216872  0.590117  0  4.158308  0
C  C37  1  0.62004580  0.77481732  0.23568677  1  1.586315  0  0.21695  0.590248  0  4.158626  0
C  C38  1  0.25236010  0.21982492  0.77410358  1  0.708834  0  0.06768  0.072102  0  3.951603  0
C  C39  1  0.74767550  0.71987419  0.22587130  1  0.708904  0  0.067615  0.071874  0  3.952081  0
C  C40  1  0.11661456  0.01200891  0.69256426  1  0.940858  0  0.069009  0.205215  0  3.794929  0
C  C41  1  0.88327303  0.51188560  0.30740974  1  0.936506  0  0.06901  0.205277  0  3.795744  0
C  C42  1  0.88032816  0.42548583  0.73632140  1  1.575858  0  0.217333  0.591103  0  4.157692  0
C  C43  1  0.11969191  0.92548871  0.26371152  1  1.575476  0  0.217055  0.591022  0  4.157799  0
C  C44  1  0.75287022  0.48007238  0.72586129  1  0.719705  0  0.066713  0.071032  0  3.954618  0
C  C45  1  0.24716754  0.98004145  0.27415219  1  0.719571  0  0.066773  0.071271  0  3.954435  0
C  C46  1  0.60986333  0.69575299  0.79691194  1  0.909975  0  0.073001  0.2074  0  3.781339  0
C  C47  1  0.39011374  0.19562636  0.20301573  1  0.912544  0  0.072502  0.207194  0  3.782068  0
C  C48  1  0.30193763  0.51990409  0.61405773  1  1.582845  0  0.227883  0.605191  0  4.158821  0
C  C49  1  0.69806404  0.01994076  0.38593242  1  1.583172  0  0.22765  0.604771  0  4.159805  0
C  C50  1  0.28200773  0.55806892  0.54343696  1  -0.058985  0  -0.013661  -0.029413  0  3.962846  0
C  C51  1  0.71799245  0.05809750  0.45656500  1  -0.058904  0  -0.01362  -0.029156  0  3.962293  0
C  C52  1  0.37991618  0.61004025  0.50865582  1  0.043602  0  -0.081161  -0.09339  0  3.97585  0
C  C53  1  0.62008501  0.11007182  0.49135436  1  0.043943  0  -0.081265  -0.093648  0  3.97533  0
C  C54  1  0.35884205  0.64470030  0.44306065  1  -0.070279  0  -0.083083  -0.09567  0  3.97291  0
C  C55  1  0.64116623  0.14471696  0.55695703  1  -0.069537  0  -0.083045  -0.095362  0  3.973108  0
C  C56  1  0.23934577  0.62854801  0.41170454  1  -0.005057  0  -0.016446  -0.032166  0  3.965151  0
C  C57  1  0.76066098  0.12856050  0.58830188  1  -0.00568  0  -0.016447  -0.032508  0  3.965394  0
C  C58  1  0.14133548  0.57725711  0.44686585  1  -0.099773  0  -0.08709  -0.095614  0  3.994642  0
C  C59  1  0.85866834  0.07726503  0.55313695  1  -0.099673  0  -0.087165  -0.0957  0  3.994595  0
C  C60  1  0.16255777  0.54180057  0.51208082  1  0.026125  0  -0.083348  -0.095241  0  3.974446  0
C  C61  1  0.83743503  0.04180527  0.48792000  1  0.025503  0  -0.083357  -0.095234  0  3.974615  0
C  C62  1  0.78337433  0.16689020  0.65862814  1  1.559617  0  0.224192  0.606104  0  4.162137  0
C  C63  1  0.21664543  0.66686226  0.34138755  1  1.558385  0  0.22393  0.605496  0  4.162968  0
C  C64  1  0.28279449  0.53409178  0.84102868  1  1.563893  0  0.223687  0.606783  0  4.161232  0
C  C65  1  0.71723947  0.03414553  0.15897763  1  1.565318  0  0.223306  0.606538  0  4.161736  0
C  C66  1  0.66190278  0.15520818  0.98731370  1  -0.004735  0  -0.083108  -0.094706  0  3.973561  0
C  C67  1  0.33806730  0.65519830  0.01270475  1  -0.003791  0  -0.083408  -0.095121  0  3.974037  0
C  C68  1  0.78164858  0.13921667  0.95557340  1  -0.056303  0  -0.013616  -0.029044  0  3.960734  0
C  C69  1  0.21832958  0.63920041  0.04444239  1  -0.056805  0  -0.013332  -0.028483  0  3.960643  0
C  C70  1  0.88007397  0.08846527  0.99029783  1  0.037606  0  -0.082062  -0.095468  0  3.975003  0
C  C71  1  0.11992542  0.58841980  0.00971133  1  0.038012  0  -0.082128  -0.0958  0  3.974831  0
C  C72  1  0.85923222  0.05496387  0.05628204  1  -0.061889  0  -0.082462  -0.092502  0  3.970442  0
C  C73  1  0.14079482  0.55487870  0.94372524  1  -0.061787  0  -0.08242  -0.092298  0  3.970149  0
C  C74  1  0.80153417  0.17722119  0.88478497  1  1.573244  0  0.227151  0.604013  0  4.157839  0
C  C75  1  0.19844160  0.67719358  0.11523300  1  1.571366  0  0.227378  0.604497  0  4.15702  0
C  C76  1  0.64104189  0.12103394  0.05297401  1  -0.097083  0  -0.087101  -0.095866  0  3.99413  0
C  C77  1  0.35896636  0.62097835  0.94705414  1  -0.098214  0  -0.08692  -0.096065  0  3.994268  0
C  C78  1  0.26038475  0.57110263  0.91186373  1  0.006163  0  -0.016194  -0.033827  0  3.964553  0
C  C79  1  0.73964867  0.07118219  0.08815077  1  0.00337  0  -0.016264  -0.034269  0  3.964853  0
N  N80  1  0.14677817  0.26182651  0.75730054  1  -1.275547  0  -0.461807  -0.562319  0  3.354531  0
N  N81  1  0.85326371  0.76186518  0.24270210  1  -1.27574  0  -0.461971  -0.562456  0  3.354274  0
N  N82  1  0.64680557  0.43834649  0.74268393  1  -1.278292  0  -0.460996  -0.561365  0  3.350831  0
N  N83  1  0.35321115  0.93827768  0.25734635  1  -1.277606  0  -0.461161  -0.561619  0  3.350322  0
O  O84  1  0.37281034  0.35903203  0.73254071  1  -1.196848  0  -0.312991  -0.572817  0  2.477905  0
O  O85  1  0.62725421  0.85912499  0.26737615  1  -1.196766  0  -0.312705  -0.572677  0  2.478508  0
O  O86  1  0.48017542  0.23380475  0.78757250  1  -1.148908  0  -0.29667  -0.500412  0  2.270321  0
O  O87  1  0.51987197  0.73377558  0.21245447  1  -1.15029  0  -0.296919  -0.500562  0  2.270498  0
O  O88  1  0.87262158  0.34144107  0.76832922  1  -1.189476  0  -0.313392  -0.573759  0  2.474861  0
O  O89  1  0.12737479  0.84140800  0.23173018  1  -1.189081  0  -0.31333  -0.57373  0  2.474531  0
O  O90  1  0.98088844  0.46659826  0.71311836  1  -1.145117  0  -0.2964  -0.500034  0  2.26997  0
O  O91  1  0.01915456  0.96665609  0.28689872  1  -1.145541  0  -0.296255  -0.500105  0  2.270062  0
O  O92  1  0.40782317  0.54375812  0.64318735  1  -1.167738  0  -0.318649  -0.544578  0  2.334454  0
O  O93  1  0.59216584  0.04378297  0.35681412  1  -1.167828  0  -0.318521  -0.544515  0  2.334762  0
O  O94  1  0.21063556  0.46741170  0.63881087  1  -1.181673  0  -0.313276  -0.538797  0  2.388281  0
O  O95  1  0.78937880  0.96748410  0.36116378  1  -1.181844  0  -0.313242  -0.538643  0  2.388531  0
O  O96  1  0.68852028  0.20833960  0.68857716  1  -1.180239  0  -0.313934  -0.544684  0  2.35346  0
O  O97  1  0.31151260  0.70832150  0.31145156  1  -1.179778  0  -0.313932  -0.544509  0  2.353975  0
O  O98  1  0.89687379  0.15431638  0.68267509  1  -1.175804  0  -0.321468  -0.567885  0  2.374031  0
O  O99  1  0.10315610  0.65430908  0.31734071  1  -1.175025  0  -0.321174  -0.567504  0  2.374055  0
O  O100  1  0.39593925  0.54743680  0.81619288  1  -1.177953  0  -0.322001  -0.569047  0  2.372955  0
O  O101  1  0.60410287  0.04748628  0.18382550  1  -1.176887  0  -0.321797  -0.568734  0  2.373047  0
O  O102  1  0.18788228  0.49281218  0.81143444  1  -1.18011  0  -0.313977  -0.545288  0  2.352044  0
O  O103  1  0.81214360  0.99284507  0.18855313  1  -1.181603  0  -0.313747  -0.54513  0  2.352614  0
O  O104  1  0.71018366  0.22950269  0.86038917  1  -1.178634  0  -0.312058  -0.537345  0  2.389027  0
O  O105  1  0.28978830  0.72948503  0.13963756  1  -1.178678  0  -0.312337  -0.537712  0  2.389072  0
O  O106  1  0.90763392  0.15350786  0.85518662  1  -1.170773  0  -0.319099  -0.545108  0  2.329274  0
O  O107  1  0.09234770  0.65344884  0.14482866  1  -1.16906  0  -0.319172  -0.545466  0  2.328695  0
O  O108  1  0.08200967  0.02405092  0.75109103  1  -1.07307  0  -0.233985  -0.291554  0  2.238747  0
O  O109  1  0.91789276  0.52396402  0.24890000  1  -1.072644  0  -0.233727  -0.291367  0  2.239683  0
O  O110  1  0.57328655  0.67469889  0.74002279  1  -1.072066  0  -0.230346  -0.287412  0  2.25388  0
O  O111  1  0.42663555  0.17470883  0.25992217  1  -1.072166  0  -0.229779  -0.287051  0  2.254087  0
