# generated using pymatgen
data_CdH14C16(ClO2)4
_symmetry_space_group_name_H-M   'P 1'
_cell_length_a   7.39539178
_cell_length_b   8.22740216
_cell_length_c   16.88341124
_cell_angle_alpha   88.96264571
_cell_angle_beta   89.99983397
_cell_angle_gamma   90.00064099
_symmetry_Int_Tables_number   1
_chemical_formula_structural   CdH14C16(ClO2)4
_chemical_formula_sum   'Cd2 H28 C32 Cl8 O16'
_cell_volume   1027.10046723
_cell_formula_units_Z   2
loop_
 _symmetry_equiv_pos_site_id
 _symmetry_equiv_pos_as_xyz
  1  'x, y, z'
loop_
 _atom_site_type_symbol
 _atom_site_label
 _atom_site_symmetry_multiplicity
 _atom_site_fract_x
 _atom_site_fract_y
 _atom_site_fract_z
 _atom_site_occupancy
 _atom_site_hle17_bader_spin_density
 _atom_site_hle17_ddec_charge
 _atom_site_hle17_ddec_spin_density
 _atom_site_hle17_ddec_sum_bond_order
 _atom_site_hle17_magmom
 _atom_site_hse06_10hf_bader_spin_density
 _atom_site_hse06_10hf_ddec_charge
 _atom_site_hse06_10hf_ddec_spin_density
 _atom_site_hse06_10hf_ddec_sum_bond_order
 _atom_site_hse06_10hf_magmom
 _atom_site_hse06_bader_spin_density
 _atom_site_hse06_ddec_charge
 _atom_site_hse06_ddec_spin_density
 _atom_site_hse06_ddec_sum_bond_order
 _atom_site_hse06_magmom
 _atom_site_pbe_bader_spin_density
 _atom_site_pbe_cm5_charge
 _atom_site_pbe_ddec_charge
 _atom_site_pbe_ddec_spin_density
 _atom_site_pbe_ddec_sum_bond_order
 _atom_site_pbe_magmom
Cd  Cd0  1  0.49997773  0.50000368  0.50000492  1  0  1.280358  0  1.585314  0  0  1.114064  0  2.031096  0  0  1.170096  0  1.970006  0  0  0.776272  1.073635  0  2.07344  0
Cd  Cd1  1  0.99997755  0.99999486  0.50000824  1  0  1.280313  0  1.585525  0  0  1.114044  0  2.03123  0  0  1.170059  0  1.970175  0  0  0.776205  1.073612  0  2.073573  0
H  H2  1  0.31144683  0.26229746  0.43186882  1  0  0.423499  0  0.881013  0  0  0.389993  0  0.949642  0  0  0.401892  0  0.932223  0  0  0.286755  0.381546  0  0.961986  0
H  H3  1  0.81142780  0.23767231  0.56814356  1  0  0.423593  0  0.880899  0  0  0.390042  0  0.949611  0  0  0.401941  0  0.93219  0  0  0.286779  0.381587  0  0.96197  0
H  H4  1  0.68852485  0.73767659  0.56814518  1  0  0.423438  0  0.881141  0  0  0.389989  0  0.949651  0  0  0.401889  0  0.93223  0  0  0.286731  0.381537  0  0.962002  0
H  H5  1  0.18851413  0.76233238  0.43185733  1  0  0.423401  0  0.881177  0  0  0.389933  0  0.949729  0  0  0.401828  0  0.932313  0  0  0.286763  0.381486  0  0.962073  0
H  H6  1  0.28681501  0.38653363  0.35938823  1  0  0.437442  0  0.827863  0  0  0.404718  0  0.90377  0  0  0.415006  0  0.888669  0  0  0.305208  0.397322  0  0.914627  0
H  H7  1  0.78681273  0.11344338  0.64062253  1  0  0.437385  0  0.827923  0  0  0.404686  0  0.903789  0  0  0.414975  0  0.888688  0  0  0.305238  0.397292  0  0.914641  0
H  H8  1  0.71314720  0.61343449  0.64062448  1  0  0.437497  0  0.827571  0  0  0.404754  0  0.903667  0  0  0.415047  0  0.888559  0  0  0.305167  0.39735  0  0.914535  0
H  H9  1  0.21316300  0.88655567  0.35938538  1  0  0.437318  0  0.82783  0  0  0.404592  0  0.903882  0  0  0.414886  0  0.888774  0  0  0.305125  0.397193  0  0.914742  0
H  H10  1  0.55367774  0.08977555  0.39673915  1  0  0.115969  0  0.922348  0  0  0.12702  0  0.983062  0  0  0.129018  0  0.981645  0  0  0.117249  0.125518  0  0.984255  0
H  H11  1  0.05363394  0.41021733  0.60325145  1  0  0.11582  0  0.922437  0  0  0.126944  0  0.983146  0  0  0.128942  0  0.981732  0  0  0.117167  0.12544  0  0.984335  0
H  H12  1  0.44634938  0.91023116  0.60324338  1  0  0.11592  0  0.922491  0  0  0.126962  0  0.983214  0  0  0.12896  0  0.98179  0  0  0.117221  0.125458  0  0.984405  0
H  H13  1  0.94632692  0.58977591  0.39675399  1  0  0.115842  0  0.922498  0  0  0.126907  0  0.983253  0  0  0.1289  0  0.98184  0  0  0.117222  0.12541  0  0.984448  0
H  H14  1  0.74898287  0.02205069  0.34699987  1  0  0.095332  0  0.950033  0  0  0.103047  0  1.019254  0  0  0.104527  0  1.018747  0  0  0.110416  0.101963  0  1.019756  0
H  H15  1  0.24897207  0.47793767  0.65300402  1  0  0.095331  0  0.950172  0  0  0.103069  0  1.0194  0  0  0.104552  0  1.018895  0  0  0.110438  0.101981  0  1.019898  0
H  H16  1  0.25103343  0.97793195  0.65300241  1  0  0.095355  0  0.950037  0  0  0.103053  0  1.019268  0  0  0.104532  0  1.018757  0  0  0.11042  0.101966  0  1.019767  0
H  H17  1  0.75104559  0.52208477  0.34700133  1  0  0.095287  0  0.949927  0  0  0.10304  0  1.019108  0  0  0.104517  0  1.018599  0  0  0.110421  0.101959  0  1.019614  0
H  H18  1  0.39081530  0.69658773  0.07329536  1  0  0.118102  0  0.973604  0  0  0.122571  0  1.045594  0  0  0.12621  0  1.0426  0  0  0.093627  0.119994  0  1.047763  0
H  H19  1  0.89080807  0.80342879  0.92669988  1  0  0.118079  0  0.973589  0  0  0.122548  0  1.045589  0  0  0.126185  0  1.042593  0  0  0.093564  0.119969  0  1.047757  0
H  H20  1  0.60919695  0.30341091  0.92669415  1  0  0.118177  0  0.973698  0  0  0.122662  0  1.045628  0  0  0.126296  0  1.042626  0  0  0.093598  0.120082  0  1.047796  0
H  H21  1  0.10920959  0.19660901  0.07332057  1  0  0.118201  0  0.973895  0  0  0.122815  0  1.045655  0  0  0.126456  0  1.042661  0  0  0.09367  0.120235  0  1.047824  0
H  H22  1  0.93363528  0.67412047  0.16603994  1  0  0.106376  0  0.965077  0  0  0.110836  0  1.035197  0  0  0.114447  0  1.032373  0  0  0.094642  0.108283  0  1.037178  0
H  H23  1  0.43359680  0.82590331  0.83394825  1  0  0.106047  0  0.965056  0  0  0.110596  0  1.035144  0  0  0.114207  0  1.032319  0  0  0.094546  0.108042  0  1.037124  0
H  H24  1  0.06640536  0.32588709  0.83393490  1  0  0.106199  0  0.965134  0  0  0.110688  0  1.035245  0  0  0.114297  0  1.032424  0  0  0.094598  0.108136  0  1.037224  0
H  H25  1  0.56643708  0.17413045  0.16605374  1  0  0.106201  0  0.965138  0  0  0.110832  0  1.035088  0  0  0.114444  0  1.032261  0  0  0.094646  0.108278  0  1.03707  0
H  H26  1  0.84027778  0.83257075  0.28115734  1  0  0.11116  0  0.958762  0  0  0.122597  0  1.018225  0  0  0.125712  0  1.01677  0  0  0.102724  0.120461  0  1.01921  0
H  H27  1  0.34026913  0.66744207  0.71882308  1  0  0.111236  0  0.958798  0  0  0.122611  0  1.018306  0  0  0.125722  0  1.01686  0  0  0.102731  0.120472  0  1.019289  0
H  H28  1  0.15976692  0.16744140  0.71881995  1  0  0.111012  0  0.958758  0  0  0.122433  0  1.018272  0  0  0.125546  0  1.01682  0  0  0.102643  0.120295  0  1.019253  0
H  H29  1  0.65976610  0.33256236  0.28118018  1  0  0.110973  0  0.958706  0  0  0.12236  0  1.018257  0  0  0.125473  0  1.016808  0  0  0.102598  0.120223  0  1.019242  0
C  C30  1  0.62605473  0.84443785  0.42702134  1  0  0.688057  0  3.851127  0  0  0.63346  0  4.157169  0  0  0.667428  0  4.150759  0  0  0.212352  0.61027  0  4.160746  0
C  C31  1  0.12603752  0.65552969  0.57296570  1  0  0.688164  0  3.850431  0  0  0.633391  0  4.15679  0  0  0.667361  0  4.150381  0  0  0.212377  0.610195  0  4.160361  0
C  C32  1  0.37392911  0.15554601  0.57298096  1  0  0.688066  0  3.850822  0  0  0.63343  0  4.156827  0  0  0.667394  0  4.150417  0  0  0.21234  0.610239  0  4.160401  0
C  C33  1  0.87393281  0.34446217  0.42703022  1  0  0.688394  0  3.850421  0  0  0.633625  0  4.156716  0  0  0.6676  0  4.150297  0  0  0.212539  0.610434  0  4.160297  0
C  C34  1  0.61335067  0.98485438  0.36710634  1  0  -0.090372  0  3.640881  0  0  -0.146086  0  3.903054  0  0  -0.144115  0  3.904328  0  0  -0.07136  -0.147468  0  3.902189  0
C  C35  1  0.11334604  0.51511587  0.63289916  1  0  -0.090129  0  3.640603  0  0  -0.146108  0  3.902924  0  0  -0.144151  0  3.904228  0  0  -0.071281  -0.147474  0  3.902035  0
C  C36  1  0.38665887  0.01511684  0.63288922  1  0  -0.090242  0  3.641382  0  0  -0.14597  0  3.903426  0  0  -0.14399  0  3.904685  0  0  -0.071198  -0.147343  0  3.902543  0
C  C37  1  0.88666621  0.48486541  0.36711556  1  0  -0.090002  0  3.640971  0  0  -0.145905  0  3.903315  0  0  -0.143929  0  3.904566  0  0  -0.07129  -0.14731  0  3.902489  0
C  C38  1  0.56090139  0.85639319  0.24334297  1  0  0.207568  0  3.80777  0  0  0.189044  0  4.074042  0  0  0.199046  0  4.090147  0  0  0.072043  0.182164  0  4.063246  0
C  C39  1  0.06089351  0.64355005  0.75666036  1  0  0.207356  0  3.808211  0  0  0.188619  0  4.074594  0  0  0.198631  0  4.090698  0  0  0.071915  0.181735  0  4.063787  0
C  C40  1  0.43910409  0.14357205  0.75664063  1  0  0.207378  0  3.807925  0  0  0.188662  0  4.074319  0  0  0.198664  0  4.090434  0  0  0.071828  0.181785  0  4.063515  0
C  C41  1  0.93911603  0.35643248  0.24336506  1  0  0.206909  0  3.80829  0  0  0.188397  0  4.07429  0  0  0.198398  0  4.090394  0  0  0.071657  0.181514  0  4.06349  0
C  C42  1  0.43687275  0.81547758  0.18388539  1  0  0.040935  0  3.792285  0  0  0.04826  0  4.06621  0  0  0.048432  0  4.085486  0  0  -0.002886  0.047811  0  4.053502  0
C  C43  1  0.93685797  0.68451293  0.81610696  1  0  0.041089  0  3.792112  0  0  0.048413  0  4.066132  0  0  0.048558  0  4.085442  0  0  -0.002923  0.04799  0  4.053377  0
C  C44  1  0.56313815  0.18454415  0.81609325  1  0  0.040994  0  3.792041  0  0  0.048496  0  4.065765  0  0  0.048644  0  4.085076  0  0  -0.002833  0.048048  0  4.05304  0
C  C45  1  0.06313534  0.31548534  0.18390806  1  0  0.041314  0  3.792074  0  0  0.048704  0  4.065829  0  0  0.048851  0  4.085143  0  0  -0.002727  0.048271  0  4.053093  0
C  C46  1  0.48901837  0.72471416  0.11893594  1  0  -0.186416  0  3.802137  0  0  -0.222282  0  4.060348  0  0  -0.223294  0  4.079872  0  0  -0.110862  -0.221381  0  4.047105  0
C  C47  1  0.98898540  0.77533654  0.88104433  1  0  -0.18674  0  3.802185  0  0  -0.222445  0  4.060229  0  0  -0.223435  0  4.079737  0  0  -0.11089  -0.221579  0  4.047051  0
C  C48  1  0.51101957  0.27532073  0.88104471  1  0  -0.186905  0  3.801975  0  0  -0.222786  0  4.060279  0  0  -0.223766  0  4.079767  0  0  -0.110922  -0.221915  0  4.047115  0
C  C49  1  0.01102144  0.22473333  0.11894998  1  0  -0.186885  0  3.802298  0  0  -0.222813  0  4.060327  0  0  -0.223817  0  4.079847  0  0  -0.110968  -0.221926  0  4.047104  0
C  C50  1  0.66848116  0.67431133  0.11316099  1  0  0.130158  0  3.82181  0  0  0.142407  0  4.09185  0  0  0.143822  0  4.113518  0  0  -0.000927  0.141152  0  4.077386  0
C  C51  1  0.16843824  0.82573717  0.88682325  1  0  0.130196  0  3.821942  0  0  0.142321  0  4.092239  0  0  0.143731  0  4.11391  0  0  -0.001022  0.141063  0  4.077769  0
C  C52  1  0.33152432  0.32569936  0.88684059  1  0  0.130497  0  3.821576  0  0  0.142587  0  4.09186  0  0  0.144002  0  4.113528  0  0  -0.000916  0.141329  0  4.07739  0
C  C53  1  0.83153208  0.17431534  0.11316305  1  0  0.13028  0  3.821465  0  0  0.142454  0  4.091726  0  0  0.143868  0  4.113398  0  0  -0.000973  0.141198  0  4.077256  0
C  C54  1  0.79367268  0.71271352  0.17149897  1  0  -0.108102  0  3.772426  0  0  -0.137665  0  4.034324  0  0  -0.137521  0  4.053694  0  0  -0.104585  -0.137609  0  4.021215  0
C  C55  1  0.29362562  0.78726549  0.82848626  1  0  -0.107799  0  3.772189  0  0  -0.13732  0  4.033961  0  0  -0.137178  0  4.053338  0  0  -0.104423  -0.137261  0  4.020842  0
C  C56  1  0.20636390  0.28723457  0.82849679  1  0  -0.108197  0  3.772463  0  0  -0.137705  0  4.034341  0  0  -0.137567  0  4.053724  0  0  -0.10457  -0.137645  0  4.021219  0
C  C57  1  0.70638392  0.21275363  0.17151606  1  0  -0.108067  0  3.772535  0  0  -0.137753  0  4.034394  0  0  -0.137613  0  4.053773  0  0  -0.104561  -0.137693  0  4.021278  0
C  C58  1  0.73977462  0.80317288  0.23650364  1  0  -0.167983  0  3.745362  0  0  -0.18673  0  4.003784  0  0  -0.192226  0  4.024551  0  0  -0.110029  -0.183104  0  3.989766  0
C  C59  1  0.23976874  0.69679130  0.76349031  1  0  -0.167734  0  3.74548  0  0  -0.186443  0  4.003971  0  0  -0.191938  0  4.024738  0  0  -0.109894  -0.182816  0  3.989945  0
C  C60  1  0.26024980  0.19678217  0.76349520  1  0  -0.167531  0  3.745654  0  0  -0.186244  0  4.004083  0  0  -0.19174  0  4.024858  0  0  -0.109803  -0.182613  0  3.990049  0
C  C61  1  0.76027460  0.30318692  0.23651902  1  0  -0.167232  0  3.7458  0  0  -0.185976  0  4.00416  0  0  -0.191478  0  4.024941  0  0  -0.109647  -0.182352  0  3.990137  0
Cl  Cl62  1  0.21665631  0.88363547  0.19107654  1  0  -0.057212  0  1.422211  0  0  -0.037287  0  1.661457  0  0  -0.040726  0  1.655495  0  0  0.023264  -0.034712  0  1.665568  0
Cl  Cl63  1  0.71665691  0.61635582  0.80892325  1  0  -0.057175  0  1.422451  0  0  -0.037288  0  1.661753  0  0  -0.040723  0  1.655803  0  0  0.023285  -0.034715  0  1.665853  0
Cl  Cl64  1  0.78334512  0.11633178  0.80892192  1  0  -0.057237  0  1.422219  0  0  -0.037364  0  1.661385  0  0  -0.0408  0  1.655434  0  0  0.023215  -0.034785  0  1.665495  0
Cl  Cl65  1  0.28333911  0.38368595  0.19109430  1  0  -0.057295  0  1.422158  0  0  -0.037433  0  1.661377  0  0  -0.040863  0  1.655421  0  0  0.02319  -0.034861  0  1.665478  0
Cl  Cl66  1  0.73776578  0.56662081  0.03134153  1  0  -0.085507  0  1.37983  0  0  -0.069722  0  1.61189  0  0  -0.073686  0  1.608231  0  0  0.002175  -0.066825  0  1.614491  0
Cl  Cl67  1  0.23773317  0.93341571  0.96863588  1  0  -0.085485  0  1.380059  0  0  -0.069704  0  1.612241  0  0  -0.073667  0  1.608584  0  0  0.002184  -0.066807  0  1.614846  0
Cl  Cl68  1  0.26225187  0.43340066  0.96863948  1  0  -0.085412  0  1.380175  0  0  -0.069608  0  1.61236  0  0  -0.073571  0  1.608703  0  0  0.002256  -0.066712  0  1.614967  0
Cl  Cl69  1  0.76228043  0.06661278  0.03134762  1  0  -0.085405  0  1.379927  0  0  -0.069613  0  1.612045  0  0  -0.073575  0  1.608385  0  0  0.002245  -0.066721  0  1.614648  0
O  O70  1  0.37567398  0.34371425  0.39735644  1  0  -0.837412  0  1.839402  0  0  -0.776461  0  2.036142  0  0  -0.798451  0  2.000701  0  0  -0.580995  -0.760807  0  2.060925  0
O  O71  1  0.87565632  0.15626413  0.60264947  1  0  -0.837351  0  1.839417  0  0  -0.776416  0  2.036208  0  0  -0.7984  0  2.000763  0  0  -0.580983  -0.760767  0  2.061  0
O  O72  1  0.62428012  0.65625045  0.60264316  1  0  -0.837401  0  1.839404  0  0  -0.776396  0  2.03621  0  0  -0.798388  0  2.000767  0  0  -0.58086  -0.76074  0  2.061  0
O  O73  1  0.12428426  0.84373843  0.39735968  1  0  -0.837137  0  1.839617  0  0  -0.776169  0  2.036476  0  0  -0.798154  0  2.001041  0  0  -0.580826  -0.760518  0  2.061263  0
O  O74  1  0.53651304  0.71704586  0.41413661  1  0  -0.632154  0  2.024904  0  0  -0.565415  0  2.274409  0  0  -0.594575  0  2.263598  0  0  -0.316504  -0.544967  0  2.281139  0
O  O75  1  0.03652447  0.78294889  0.58587180  1  0  -0.632444  0  2.024259  0  0  -0.565583  0  2.273825  0  0  -0.594749  0  2.263013  0  0  -0.316664  -0.545131  0  2.280552  0
O  O76  1  0.46345053  0.28294580  0.58586109  1  0  -0.632106  0  2.024851  0  0  -0.565355  0  2.274344  0  0  -0.594511  0  2.263528  0  0  -0.316509  -0.544915  0  2.281086  0
O  O77  1  0.96346073  0.21701766  0.41415512  1  0  -0.632608  0  2.024177  0  0  -0.565788  0  2.273809  0  0  -0.594957  0  2.262993  0  0  -0.316768  -0.545325  0  2.280524  0
O  O78  1  0.72325980  0.86867062  0.48842023  1  0  -0.686873  0  2.05879  0  0  -0.614208  0  2.311116  0  0  -0.64511  0  2.298657  0  0  -0.328011  -0.592386  0  2.318904  0
O  O79  1  0.22324947  0.63130086  0.51158336  1  0  -0.686679  0  2.05913  0  0  -0.613944  0  2.311568  0  0  -0.64484  0  2.299108  0  0  -0.327904  -0.592132  0  2.31936  0
O  O80  1  0.27671188  0.13129650  0.51157941  1  0  -0.687088  0  2.0585  0  0  -0.614321  0  2.310774  0  0  -0.645225  0  2.298313  0  0  -0.328065  -0.592511  0  2.318578  0
O  O81  1  0.77669381  0.36871771  0.48841303  1  0  -0.686981  0  2.058873  0  0  -0.61417  0  2.311297  0  0  -0.645074  0  2.298833  0  0  -0.328008  -0.592357  0  2.319111  0
O  O82  1  0.49588835  0.95157340  0.30283201  1  0  -0.262667  0  2.403441  0  0  -0.195164  0  2.641035  0  0  -0.210921  0  2.641926  0  0  -0.182428  -0.184047  0  2.640138  0
O  O83  1  0.99589291  0.54841810  0.69716739  1  0  -0.262885  0  2.404318  0  0  -0.195001  0  2.641812  0  0  -0.210751  0  2.642707  0  0  -0.182397  -0.183889  0  2.640903  0
O  O84  1  0.50412119  0.04842078  0.69715387  1  0  -0.262615  0  2.404076  0  0  -0.194995  0  2.64164  0  0  -0.210742  0  2.642521  0  0  -0.182453  -0.183883  0  2.640736  0
O  O85  1  0.00414773  0.45160195  0.30284859  1  0  -0.26276  0  2.403691  0  0  -0.19504  0  2.64108  0  0  -0.210769  0  2.641941  0  0  -0.182382  -0.183918  0  2.640191  0
