# generated using pymatgen
data_CoH11C15N2O5
_symmetry_space_group_name_H-M   'P 1'
_cell_length_a   8.02180715
_cell_length_b   9.26478812
_cell_length_c   10.05046835
_cell_angle_alpha   113.61938167
_cell_angle_beta   102.55526132
_cell_angle_gamma   102.73071012
_symmetry_Int_Tables_number   1
_chemical_formula_structural   CoH11C15N2O5
_chemical_formula_sum   'Co2 H22 C30 N4 O10'
_cell_volume   627.29434730
_cell_formula_units_Z   2
loop_
 _symmetry_equiv_pos_site_id
 _symmetry_equiv_pos_as_xyz
  1  'x, y, z'
loop_
 _atom_site_type_symbol
 _atom_site_label
 _atom_site_symmetry_multiplicity
 _atom_site_fract_x
 _atom_site_fract_y
 _atom_site_fract_z
 _atom_site_occupancy
 _atom_site_hle17_ddec_charge
 _atom_site_hle17_ddec_spin_density
 _atom_site_hle17_ddec_sum_bond_order
 _atom_site_hle17_magmom
 _atom_site_hse06_10hf_ddec_charge
 _atom_site_hse06_10hf_ddec_spin_density
 _atom_site_hse06_10hf_ddec_sum_bond_order
 _atom_site_hse06_10hf_magmom
 _atom_site_hse06_ddec_charge
 _atom_site_hse06_ddec_spin_density
 _atom_site_hse06_ddec_sum_bond_order
 _atom_site_hse06_magmom
 _atom_site_pbe_cm5_charge
 _atom_site_pbe_ddec_charge
 _atom_site_pbe_ddec_spin_density
 _atom_site_pbe_ddec_sum_bond_order
 _atom_site_pbe_magmom
Co  Co0  1  0.12828361  0.15079034  0.46087037  1  1.000452  -2.860072  1.997327  -2.569  0.944711  -2.848611  2.444918  -2.628  1.026769  -2.886486  2.363944  -2.705  0.670255  0.877817  -2.818044  2.514191  -2.561
Co  Co1  1  0.87170609  0.84919559  0.53913959  1  1.000409  -2.859934  1.997035  -2.569  0.944738  -2.848582  2.444793  -2.628  1.026749  -2.886452  2.363878  -2.705  0.670265  0.877802  -2.817994  2.514106  -2.561
H  H2  1  0.33067901  0.34379426  0.37814451  1  0.429541  -0.000351  0.880303  -0.001  0.397793  -0.000987  0.945486  -0.002  0.410806  -0.000794  0.927122  -0.002  0.285196  0.388226  -0.001115  0.958831  -0.003
H  H3  1  0.66931945  0.65618716  0.62183943  1  0.429472  -0.000351  0.880396  -0.001  0.397738  -0.000987  0.945562  -0.002  0.410754  -0.000794  0.927194  -0.002  0.285164  0.388169  -0.001115  0.95891  -0.003
H  H4  1  0.47171089  0.32495283  0.51730628  1  0.427271  -1e-05  0.881029  0.0  0.395625  -0.000252  0.945875  0.0  0.408473  5.7e-05  0.927875  0.0  0.286969  0.386316  -0.000563  0.95877  -0.001
H  H5  1  0.52829487  0.67502453  0.48269732  1  0.42731  -1.1e-05  0.880972  0.0  0.395642  -0.000252  0.945843  0.0  0.4085  5.7e-05  0.927836  0.0  0.286992  0.386334  -0.000563  0.958738  -0.001
H  H6  1  0.15321999  0.29343739  0.97727975  1  0.096444  5.4e-05  0.990806  0.0  0.102782  -1.1e-05  1.061062  0.0  0.10597  -9e-06  1.059383  0.0  0.102123  0.100742  -4e-06  1.061888  0.0
H  H7  1  0.84678975  0.70655764  0.02272429  1  0.096408  5.6e-05  0.99086  0.0  0.102818  -1.2e-05  1.061041  0.0  0.106006  -8e-06  1.059362  0.0  0.102144  0.100772  -4e-06  1.061865  0.0
H  H8  1  0.96834576  0.95541362  0.12060018  1  0.073226  -0.000159  0.99562  -0.001  0.08133  -0.000115  1.062335  -0.001  0.083619  -4.7e-05  1.060503  -0.001  0.113369  0.07947  -0.000195  1.064078  -0.001
H  H9  1  0.03164775  0.04458911  0.87938796  1  0.073231  -0.000159  0.995549  -0.001  0.081303  -0.000115  1.062306  -0.001  0.083596  -4.7e-05  1.060468  -0.001  0.113358  0.07944  -0.000195  1.064048  -0.001
H  H10  1  0.75197697  0.94063794  0.89846891  1  0.117819  -9.1e-05  0.959029  0.0  0.127875  -0.000127  1.018752  0.0  0.131783  -6.5e-05  1.016425  0.0  0.1129  0.124723  -0.000196  1.020899  0.0
H  H11  1  0.24803634  0.05938380  0.10152299  1  0.117794  -9.1e-05  0.959029  0.0  0.127819  -0.000128  1.01879  0.0  0.131726  -6.5e-05  1.016466  0.0  0.112897  0.124671  -0.000196  1.020937  0.0
H  H12  1  0.67032776  0.37561217  0.22165802  1  0.11419  -0.00016  0.948122  0.0  0.125545  -0.000175  1.006073  0.0  0.129731  -9.2e-05  1.003451  0.0  0.111394  0.122275  -0.000279  1.008448  0.0
H  H13  1  0.32966249  0.62438534  0.77833851  1  0.114224  -0.00016  0.94811  0.0  0.125598  -0.000175  1.006034  0.0  0.129784  -9.2e-05  1.003412  0.0  0.111404  0.122325  -0.000279  1.008414  0.0
H  H14  1  0.88148921  0.36226008  0.43042516  1  0.094126  -0.00026  0.936935  -0.001  0.10125  -0.000139  1.000177  -0.001  0.104344  -4.5e-05  0.997319  -0.001  0.121286  0.09842  -0.000244  1.003452  -0.001
H  H15  1  0.11848946  0.63772346  0.56957198  1  0.094102  -0.00026  0.936982  -0.001  0.101252  -0.000139  1.000199  -0.001  0.104347  -4.6e-05  0.99734  -0.001  0.121292  0.098421  -0.000244  1.003474  -0.001
H  H16  1  0.30748058  0.37092461  0.80561204  1  0.066985  -1.2e-05  0.9828  -0.001  0.075559  5.3e-05  1.049785  -0.001  0.077854  0.000119  1.047598  -0.001  0.11237  0.07396  -4.5e-05  1.051484  -0.001
H  H17  1  0.69250981  0.62907670  0.19438298  1  0.066945  -1.2e-05  0.982799  -0.001  0.07551  5.3e-05  1.049823  -0.001  0.077811  0.000119  1.047612  -0.001  0.112337  0.073906  -4.5e-05  1.051525  -0.001
H  H18  1  0.51604911  0.38647994  0.03456896  1  0.099965  -0.000208  0.981148  0.0  0.109673  -0.000304  1.045465  0.0  0.112588  -0.000233  1.044689  0.0  0.105032  0.107585  -0.000372  1.046139  0.0
H  H19  1  0.48395539  0.61353535  0.96542689  1  0.099999  -0.000209  0.980986  0.0  0.109694  -0.000304  1.045333  0.0  0.112611  -0.000233  1.044555  0.0  0.105024  0.107607  -0.000372  1.046008  0.0
H  H20  1  0.57042991  0.92813439  0.72509759  1  0.112044  4e-06  0.964309  0.0  0.122408  -8.1e-05  1.023383  0.0  0.126237  3.8e-05  1.021471  0.0  0.110962  0.119269  -0.000212  1.025309  0.0
H  H21  1  0.42957081  0.07187073  0.27490169  1  0.112077  5e-06  0.964303  0.0  0.12248  -8.1e-05  1.023328  0.0  0.126307  3.8e-05  1.021418  0.0  0.110983  0.119318  -0.000212  1.02529  0.0
H  H22  1  0.35004137  0.92398917  0.51474942  1  0.090362  -7.8e-05  0.980742  -0.001  0.096117  1.2e-05  1.046901  -0.001  0.099109  7.4e-05  1.044194  -0.001  0.116713  0.093843  -3.3e-05  1.049155  -0.001
H  H23  1  0.64994915  0.07600574  0.48525214  1  0.090365  -7.8e-05  0.98074  -0.001  0.096134  1.2e-05  1.046891  -0.001  0.099119  7.4e-05  1.0442  -0.001  0.116715  0.093859  -3.3e-05  1.049146  -0.001
C  C24  1  0.88146240  0.48944604  0.86684033  1  -0.054236  0.000292  3.714397  0.0  -0.044596  -0.000107  3.954951  0.0  -0.049094  5.5e-05  3.975997  0.0  -0.011756  -0.041996  -0.000839  3.94106  -0.001
C  C25  1  0.11855047  0.51055403  0.13316518  1  -0.054102  0.00028  3.714376  0.0  -0.044377  -0.000109  3.954821  0.0  -0.048872  5.3e-05  3.975865  0.0  -0.01171  -0.041789  -0.000839  3.940948  -0.001
C  C26  1  0.96697878  0.36949253  0.85173347  1  -0.050412  -0.007794  3.705051  -0.012  -0.037388  -0.0045  3.940279  -0.007  -0.041896  -0.00267  3.958317  -0.004  -0.006146  -0.03436  -0.005815  3.928515  -0.009
C  C27  1  0.03303753  0.63051002  0.14827657  1  -0.050504  -0.007784  3.705103  -0.012  -0.037492  -0.004498  3.940287  -0.007  -0.042002  -0.002669  3.958326  -0.004  -0.006149  -0.034459  -0.005813  3.928526  -0.009
C  C28  1  0.08266602  0.38257889  0.98520092  1  -0.098435  -0.00068  3.725761  -0.001  -0.133822  -0.000895  3.982127  -0.001  -0.135106  -0.00043  4.002742  -0.001  -0.087146  -0.132434  -0.001164  3.967604  -0.001
C  C29  1  0.91735206  0.61742495  0.01480793  1  -0.098312  -0.00069  3.725577  -0.001  -0.133741  -0.000895  3.981964  -0.001  -0.135023  -0.000429  4.002576  -0.001  -0.087182  -0.132346  -0.001164  3.967434  -0.001
C  C30  1  0.74450342  0.48375716  0.73382224  1  0.645655  0.000257  3.912207  0.0  0.594861  -7.2e-05  4.212726  0.0  0.627628  -2.5e-05  4.205924  0.0  0.206997  0.572816  -0.000128  4.216261  0.0
C  C31  1  0.25550256  0.51624159  0.26618353  1  0.645731  0.000258  3.912008  0.0  0.594836  -7.2e-05  4.212643  0.0  0.627601  -2.4e-05  4.205844  0.0  0.206988  0.572795  -0.000128  4.21618  0.0
C  C32  1  0.95511141  0.23140739  0.70165315  1  0.67972  0.016202  3.848097  0.01  0.632231  0.001386  4.153083  -0.002  0.674756  4e-05  4.140242  -0.003  0.230157  0.600288  0.003926  4.160717  0.0
C  C33  1  0.04488653  0.76859018  0.29834378  1  0.679565  0.016199  3.848367  0.01  0.632137  0.001386  4.153252  -0.002  0.674659  4.1e-05  4.140415  -0.003  0.230133  0.600195  0.003927  4.160895  0.0
C  C34  1  0.89932266  0.04647755  0.13759802  1  0.127481  0.014988  3.712383  0.01  0.099581  0.003201  3.965479  0.002  0.107533  0.002285  3.982624  0.001  0.043591  0.093736  0.004337  3.954435  0.002
C  C35  1  0.10068415  0.95353017  0.86239936  1  0.127597  0.014992  3.712421  0.01  0.099705  0.003201  3.96554  0.002  0.107657  0.002277  3.982687  0.001  0.043624  0.093862  0.004337  3.954483  0.002
C  C36  1  0.77830992  0.04097502  0.01282876  1  -0.149956  -0.004557  3.689261  -0.007  -0.167793  -0.000704  3.93636  -0.001  -0.174991  -0.00071  3.955458  -0.001  -0.07947  -0.162936  -0.000279  3.924408  -0.001
C  C37  1  0.22169832  0.95903654  0.98716634  1  -0.150057  -0.00456  3.689424  -0.007  -0.167852  -0.000702  3.936567  -0.001  -0.17505  -0.000709  3.955664  -0.001  -0.079547  -0.162997  -0.00028  3.924618  -0.001
C  C38  1  0.69287420  0.16139737  0.03622656  1  0.094257  0.012899  3.743827  0.008  0.105355  0.003243  3.974441  0.002  0.110087  0.001522  3.995157  0.001  0.013464  0.101458  0.006294  3.961205  0.003
C  C39  1  0.30712233  0.83861025  0.96377193  1  0.094304  0.012905  3.743545  0.008  0.105289  0.003233  3.974276  0.002  0.110024  0.001524  3.994988  0.001  0.013507  0.101392  0.006293  3.961042  0.003
C  C40  1  0.73380877  0.28017834  0.19067144  1  -0.14216  -0.005224  3.660474  -0.008  -0.160423  -0.001079  3.90717  -0.002  -0.167211  -0.000909  3.925312  -0.002  -0.076764  -0.156626  -0.00086  3.896954  -0.002
C  C41  1  0.26617971  0.71981787  0.80932627  1  -0.142105  -0.00523  3.660305  -0.008  -0.160339  -0.001077  3.907006  -0.002  -0.167128  -0.00091  3.92515  -0.002  -0.076742  -0.156541  -0.000862  3.896788  -0.002
C  C42  1  0.85429706  0.27516188  0.31008491  1  0.142467  0.013759  3.664041  0.009  0.115291  0.002239  3.91801  0.001  0.124443  0.001652  3.932643  0.001  0.05269  0.108079  0.003504  3.91001  0.002
C  C43  1  0.14569224  0.72483309  0.68991248  1  0.142424  0.013761  3.664239  0.009  0.115221  0.002239  3.91821  0.001  0.124374  0.00165  3.932844  0.001  0.052653  0.108009  0.003503  3.910202  0.002
C  C44  1  0.36802826  0.27423679  0.79346587  1  0.116584  0.016396  3.730253  0.011  0.090971  0.006423  3.981869  0.004  0.098377  0.006564  4.000087  0.004  0.035589  0.084374  0.007411  3.971298  0.004
C  C45  1  0.63197286  0.72576951  0.20653792  1  0.11669  0.016372  3.73018  0.011  0.091089  0.00642  3.981792  0.004  0.098497  0.006556  4.000012  0.004  0.035645  0.084523  0.007407  3.971168  0.004
C  C46  1  0.48774161  0.28343716  0.92133094  1  -0.154785  -0.006031  3.708437  -0.009  -0.172705  -0.0022  3.955027  -0.003  -0.180123  -0.002419  3.975988  -0.003  -0.083492  -0.16753  -0.002026  3.941542  -0.003
C  C47  1  0.51226052  0.71657177  0.07866705  1  -0.154771  -0.006022  3.708129  -0.009  -0.172703  -0.002197  3.954725  -0.003  -0.18012  -0.00242  3.975687  -0.003  -0.0835  -0.16753  -0.002025  3.941241  -0.003
C  C48  1  0.56603089  0.15851808  0.90361516  1  0.092034  0.015459  3.747258  0.01  0.104105  0.007408  3.975231  0.004  0.108469  0.006252  3.995894  0.004  0.011794  0.100659  0.010503  3.962091  0.006
C  C49  1  0.43397295  0.84149208  0.09638559  1  0.09199  0.015434  3.747235  0.01  0.104148  0.007392  3.975154  0.004  0.108509  0.006251  3.995819  0.004  0.011814  0.100703  0.010494  3.962015  0.006
C  C50  1  0.51612132  0.02991945  0.75218645  1  -0.126564  -0.005611  3.651355  -0.008  -0.145305  -0.001798  3.897619  -0.003  -0.151296  -0.002194  3.915574  -0.003  -0.074818  -0.142264  -0.001369  3.887435  -0.003
C  C51  1  0.48386905  0.97008185  0.24780955  1  -0.126506  -0.005603  3.651314  -0.008  -0.145292  -0.001795  3.897519  -0.003  -0.151282  -0.002192  3.915472  -0.003  -0.07482  -0.142234  -0.001369  3.887356  -0.003
C  C52  1  0.39157285  0.02755025  0.63059797  1  0.139232  0.016376  3.67127  0.011  0.10875  0.006149  3.93216  0.004  0.117519  0.006346  3.947182  0.004  0.048396  0.102211  0.006788  3.92251  0.004
C  C53  1  0.60842338  0.97244973  0.36940454  1  0.139081  0.016356  3.671188  0.011  0.108591  0.006146  3.932082  0.004  0.117356  0.006339  3.94711  0.004  0.048351  0.102045  0.006785  3.922452  0.004
N  N54  1  0.93892173  0.16081625  0.28529774  1  -0.322369  -0.034626  3.291295  -0.065  -0.269609  -0.024518  3.568592  -0.039  -0.292257  -0.021114  3.58025  -0.033  -0.326443  -0.253597  -0.027392  3.561834  -0.044
N  N55  1  0.06107749  0.83918133  0.71469941  1  -0.322396  -0.034637  3.291335  -0.065  -0.269611  -0.024521  3.568664  -0.039  -0.292255  -0.021113  3.58033  -0.033  -0.326439  -0.25359  -0.027396  3.561888  -0.044
N  N56  1  0.31568233  0.14699445  0.64909997  1  -0.329956  -0.033607  3.298381  -0.068  -0.283256  -0.023308  3.588481  -0.047  -0.306386  -0.019199  3.60377  -0.041  -0.323242  -0.265558  -0.026901  3.577572  -0.051
N  N57  1  0.68431398  0.85300927  0.35090496  1  -0.329947  -0.033595  3.2982  -0.068  -0.283266  -0.023305  3.588355  -0.047  -0.306385  -0.019194  3.60364  -0.041  -0.323241  -0.265574  -0.026897  3.577453  -0.051
O  O58  1  0.70988556  0.61815591  0.75818797  1  -0.634396  -0.001596  1.954743  -0.003  -0.582584  -0.000996  2.178137  -0.002  -0.607431  -0.000439  2.168929  -0.001  -0.330229  -0.564499  -0.002057  2.183809  -0.004
O  O59  1  0.29011701  0.38184403  0.24181964  1  -0.634425  -0.001596  1.95478  -0.003  -0.582545  -0.000996  2.178186  -0.002  -0.60739  -0.00044  2.168981  -0.001  -0.330198  -0.564455  -0.002057  2.183842  -0.004
O  O60  1  0.66968429  0.34541278  0.60968977  1  -0.616265  -0.001048  1.982329  -0.002  -0.558393  -0.000304  2.200005  -0.001  -0.583987  6e-06  2.192092  0.0  -0.311887  -0.540195  -0.001204  2.205232  -0.003
O  O61  1  0.33030579  0.65458453  0.39031860  1  -0.61639  -0.001049  1.98225  -0.002  -0.558473  -0.000304  2.199961  -0.001  -0.584069  6e-06  2.192047  0.0  -0.311917  -0.540275  -0.001204  2.205189  -0.003
O  O62  1  0.02108818  0.27247843  0.61237600  1  -0.614992  -0.045535  2.145722  -0.076  -0.586041  -0.036308  2.445267  -0.055  -0.62652  -0.026244  2.431753  -0.038  -0.302137  -0.55266  -0.046615  2.453145  -0.071
O  O63  1  0.97891431  0.72751416  0.38761985  1  -0.614917  -0.045529  2.145729  -0.076  -0.585978  -0.036302  2.445239  -0.055  -0.626447  -0.026239  2.431733  -0.038  -0.302144  -0.552596  -0.046607  2.453118  -0.071
O  O64  1  0.89615985  0.08224868  0.68173516  1  -0.619623  -0.044018  2.161207  -0.075  -0.585635  -0.037417  2.466125  -0.058  -0.625185  -0.028056  2.451269  -0.043  -0.299823  -0.553018  -0.046912  2.475087  -0.073
O  O65  1  0.10383648  0.91775142  0.31826045  1  -0.619546  -0.04402  2.16119  -0.075  -0.585616  -0.03742  2.466096  -0.058  -0.625176  -0.028058  2.451234  -0.043  -0.299823  -0.553005  -0.046915  2.475067  -0.073
O  O66  1  0.33973945  0.30115491  0.45830042  1  -0.845753  -0.054998  1.969845  -0.094  -0.804398  -0.045111  2.200573  -0.072  -0.844734  -0.032838  2.161053  -0.053  -0.577891  -0.768709  -0.057916  2.227165  -0.091
O  O67  1  0.66026619  0.69884635  0.54170524  1  -0.845691  -0.054999  1.970032  -0.094  -0.804326  -0.045114  2.200827  -0.072  -0.844669  -0.032844  2.161296  -0.053  -0.57788  -0.76864  -0.057918  2.227427  -0.091
