# generated using pymatgen
data_CuH8C6IN2O
_symmetry_space_group_name_H-M   'P 1'
_cell_length_a   7.61432465
_cell_length_b   8.03965854
_cell_length_c   15.36185721
_cell_angle_alpha   89.99986484
_cell_angle_beta   90.00014700
_cell_angle_gamma   112.19107512
_symmetry_Int_Tables_number   1
_chemical_formula_structural   CuH8C6IN2O
_chemical_formula_sum   'Cu4 H32 C24 I4 N8 O4'
_cell_volume   870.74422996
_cell_formula_units_Z   4
loop_
 _symmetry_equiv_pos_site_id
 _symmetry_equiv_pos_as_xyz
  1  'x, y, z'
loop_
 _atom_site_type_symbol
 _atom_site_label
 _atom_site_symmetry_multiplicity
 _atom_site_fract_x
 _atom_site_fract_y
 _atom_site_fract_z
 _atom_site_occupancy
 _atom_site_hle17_bader_spin_density
 _atom_site_hle17_ddec_charge
 _atom_site_hle17_ddec_spin_density
 _atom_site_hle17_ddec_sum_bond_order
 _atom_site_hle17_magmom
 _atom_site_hse06_10hf_bader_spin_density
 _atom_site_hse06_10hf_ddec_charge
 _atom_site_hse06_10hf_ddec_spin_density
 _atom_site_hse06_10hf_ddec_sum_bond_order
 _atom_site_hse06_10hf_magmom
 _atom_site_hse06_bader_spin_density
 _atom_site_hse06_ddec_charge
 _atom_site_hse06_ddec_spin_density
 _atom_site_hse06_ddec_sum_bond_order
 _atom_site_hse06_magmom
 _atom_site_pbe_bader_spin_density
 _atom_site_pbe_cm5_charge
 _atom_site_pbe_ddec_charge
 _atom_site_pbe_ddec_spin_density
 _atom_site_pbe_ddec_sum_bond_order
 _atom_site_pbe_magmom
Cu  Cu0  1  0.66253496  0.48641953  0.53775021  1  0  0.434053  0  2.223402  0  0  0.358639  0  2.731884  0  0  0.362126  0  2.677975  0  0  0.405613  0.358915  0  2.766139  0
Cu  Cu1  1  0.66254546  0.98641852  0.96224805  1  0  0.434006  0  2.223298  0  0  0.358572  0  2.731773  0  0  0.362079  0  2.677849  0  0  0.405561  0.358848  0  2.765962  0
Cu  Cu2  1  0.33745371  0.51357338  0.46224609  1  0  0.434039  0  2.223415  0  0  0.358622  0  2.731882  0  0  0.362133  0  2.677987  0  0  0.405608  0.358897  0  2.766083  0
Cu  Cu3  1  0.33746190  0.01357847  0.03775411  1  0  0.434055  0  2.223557  0  0  0.358618  0  2.73203  0  0  0.362127  0  2.678137  0  0  0.405654  0.358896  0  2.766305  0
H  H4  1  0.22892675  0.04603051  0.48397871  1  0  0.124981  0  0.941141  0  0  0.132562  0  1.011795  0  0  0.134752  0  1.011036  0  0  0.107456  0.13095  0  1.012481  0
H  H5  1  0.22893582  0.54603489  0.01602326  1  0  0.124953  0  0.941107  0  0  0.132566  0  1.011754  0  0  0.134752  0  1.010991  0  0  0.107453  0.130955  0  1.01244  0
H  H6  1  0.77105823  0.95395970  0.51602280  1  0  0.124987  0  0.941129  0  0  0.132567  0  1.011788  0  0  0.134757  0  1.011029  0  0  0.107451  0.130952  0  1.012472  0
H  H7  1  0.77107448  0.45397285  0.98397955  1  0  0.124927  0  0.941196  0  0  0.132561  0  1.011811  0  0  0.134746  0  1.011048  0  0  0.107465  0.13095  0  1.0125  0
H  H8  1  0.34753552  0.92366541  0.53957633  1  0  0.118875  0  0.947931  0  0  0.132556  0  1.01045  0  0  0.134113  0  1.010611  0  0  0.102838  0.131372  0  1.010485  0
H  H9  1  0.34754349  0.42366786  0.96042094  1  0  0.118799  0  0.947945  0  0  0.132495  0  1.010467  0  0  0.134047  0  1.010627  0  0  0.102827  0.13131  0  1.010504  0
H  H10  1  0.65245368  0.07632885  0.46042127  1  0  0.118838  0  0.947926  0  0  0.132537  0  1.010428  0  0  0.134098  0  1.010585  0  0  0.102839  0.13134  0  1.010467  0
H  H11  1  0.65246206  0.57633449  0.03957601  1  0  0.118814  0  0.947927  0  0  0.132523  0  1.010434  0  0  0.134072  0  1.010593  0  0  0.102828  0.13134  0  1.010474  0
H  H12  1  0.27236523  0.00290047  0.68093737  1  0  0.040646  0  0.94691  0  0  0.049028  0  1.020236  0  0  0.050063  0  1.020038  0  0  0.084818  0.048189  0  1.020476  0
H  H13  1  0.27235943  0.50290656  0.81906294  1  0  0.040711  0  0.946839  0  0  0.049078  0  1.020181  0  0  0.050111  0  1.019975  0  0  0.084833  0.048231  0  1.02044  0
H  H14  1  0.72764056  0.99709920  0.31906283  1  0  0.04067  0  0.946874  0  0  0.049068  0  1.020208  0  0  0.050103  0  1.020014  0  0  0.084843  0.048228  0  1.020447  0
H  H15  1  0.72763218  0.49709710  0.18093727  1  0  0.040653  0  0.946914  0  0  0.049059  0  1.020214  0  0  0.050094  0  1.020018  0  0  0.084822  0.04822  0  1.020452  0
H  H16  1  0.32282139  0.20364907  0.61843637  1  0  0.051985  0  0.96362  0  0  0.056653  0  1.045523  0  0  0.059366  0  1.042095  0  0  0.089175  0.054568  0  1.048047  0
H  H17  1  0.32281895  0.70364961  0.88156440  1  0  0.05198  0  0.963722  0  0  0.056682  0  1.045572  0  0  0.059392  0  1.042142  0  0  0.089197  0.054599  0  1.048093  0
H  H18  1  0.67718309  0.79635060  0.38156123  1  0  0.051941  0  0.963659  0  0  0.056649  0  1.045518  0  0  0.059361  0  1.042095  0  0  0.089184  0.054567  0  1.048039  0
H  H19  1  0.67717817  0.29635138  0.11843581  1  0  0.051991  0  0.963657  0  0  0.056656  0  1.045558  0  0  0.059368  0  1.042133  0  0  0.089183  0.054572  0  1.04808  0
H  H20  1  0.11708773  0.30036614  0.70450129  1  0  0.047418  0  0.950786  0  0  0.058203  0  1.022163  0  0  0.059506  0  1.021134  0  0  0.089153  0.05712  0  1.023054  0
H  H21  1  0.11709208  0.80036830  0.79549193  1  0  0.047393  0  0.950766  0  0  0.058188  0  1.022143  0  0  0.059494  0  1.021117  0  0  0.08914  0.057103  0  1.023035  0
H  H22  1  0.88291887  0.69963890  0.29549435  1  0  0.047423  0  0.950693  0  0  0.058185  0  1.022074  0  0  0.059491  0  1.021049  0  0  0.089111  0.057101  0  1.022964  0
H  H23  1  0.88290845  0.19963135  0.20450112  1  0  0.047414  0  0.950852  0  0  0.058216  0  1.022197  0  0  0.059518  0  1.021168  0  0  0.08916  0.057131  0  1.023088  0
H  H24  1  0.07337010  0.11045191  0.77416028  1  0  0.052841  0  0.934398  0  0  0.064791  0  1.001559  0  0  0.065706  0  1.001682  0  0  0.090888  0.064  0  1.001641  0
H  H25  1  0.07337597  0.61044221  0.72583898  1  0  0.052874  0  0.934317  0  0  0.064801  0  1.001537  0  0  0.065714  0  1.001662  0  0  0.090885  0.064013  0  1.001621  0
H  H26  1  0.92663419  0.88956386  0.22583993  1  0  0.05296  0  0.934244  0  0  0.064853  0  1.001444  0  0  0.065766  0  1.001568  0  0  0.09089  0.064064  0  1.001528  0
H  H27  1  0.92662134  0.38954268  0.27416187  1  0  0.052887  0  0.934356  0  0  0.064813  0  1.001544  0  0  0.065727  0  1.001666  0  0  0.090896  0.06402  0  1.001627  0
H  H28  1  0.72664461  0.99005805  0.72394031  1  0  0.121561  0  0.932721  0  0  0.131985  0  0.998349  0  0  0.134024  0  0.997999  0  0  0.107966  0.130417  0  0.998753  0
H  H29  1  0.72664842  0.49005569  0.77605998  1  0  0.121555  0  0.932673  0  0  0.131966  0  0.998319  0  0  0.134006  0  0.997969  0  0  0.107951  0.1304  0  0.998721  0
H  H30  1  0.27336125  0.00995504  0.27606445  1  0  0.121537  0  0.932938  0  0  0.132021  0  0.99847  0  0  0.134059  0  0.998121  0  0  0.107953  0.130453  0  0.998872  0
H  H31  1  0.27335208  0.50993726  0.22394023  1  0  0.121593  0  0.932609  0  0  0.131966  0  0.998271  0  0  0.134007  0  0.997922  0  0  0.107933  0.130399  0  0.998674  0
H  H32  1  0.79815760  0.18242611  0.79137868  1  0  0.126278  0  0.950082  0  0  0.136279  0  1.01794  0  0  0.13913  0  1.015852  0  0  0.105998  0.134107  0  1.019588  0
H  H33  1  0.79815629  0.68241510  0.70861493  1  0  0.126355  0  0.949989  0  0  0.136382  0  1.017793  0  0  0.139232  0  1.015708  0  0  0.106048  0.134212  0  1.019438  0
H  H34  1  0.20185486  0.81759371  0.20862088  1  0  0.126347  0  0.950107  0  0  0.136316  0  1.017967  0  0  0.139165  0  1.015881  0  0  0.106023  0.134147  0  1.019608  0
H  H35  1  0.20183789  0.31757514  0.29138267  1  0  0.12632  0  0.94999  0  0  0.136341  0  1.017811  0  0  0.139193  0  1.015725  0  0  0.106038  0.134166  0  1.019463  0
C  C36  1  0.05386165  0.80001675  0.53437307  1  0  0.392452  0  3.635807  0  0  0.371244  0  3.920093  0  0  0.386  0  3.932396  0  0  0.210311  0.361029  0  3.912399  0
C  C37  1  0.05385802  0.30000976  0.96562918  1  0  0.392449  0  3.63571  0  0  0.371242  0  3.920041  0  0  0.385987  0  3.932334  0  0  0.210343  0.361035  0  3.912328  0
C  C38  1  0.94613124  0.19998020  0.46563039  1  0  0.392423  0  3.635641  0  0  0.371213  0  3.919945  0  0  0.385968  0  3.932252  0  0  0.210268  0.360993  0  3.91223  0
C  C39  1  0.94614198  0.69998855  0.03437428  1  0  0.392378  0  3.635689  0  0  0.371162  0  3.920027  0  0  0.385905  0  3.93232  0  0  0.210348  0.360953  0  3.912344  0
C  C40  1  0.22306272  0.96170046  0.54122967  1  0  -0.219213  0  3.750616  0  0  -0.25165  0  3.981859  0  0  -0.255402  0  3.989822  0  0  -0.141198  -0.249181  0  3.976995  0
C  C41  1  0.22307017  0.46170829  0.95876804  1  0  -0.219114  0  3.75031  0  0  -0.251625  0  3.981599  0  0  -0.255353  0  3.989519  0  0  -0.141212  -0.249167  0  3.976744  0
C  C42  1  0.77692699  0.03828843  0.45876923  1  0  -0.219244  0  3.750489  0  0  -0.251694  0  3.98176  0  0  -0.255444  0  3.989719  0  0  -0.141202  -0.249198  0  3.976871  0
C  C43  1  0.77693327  0.53829540  0.04123086  1  0  -0.219048  0  3.750319  0  0  -0.251558  0  3.981603  0  0  -0.255272  0  3.989518  0  0  -0.141205  -0.249101  0  3.976761  0
C  C44  1  0.22402193  0.06292780  0.62579228  1  0  0.105714  0  3.622611  0  0  0.054089  0  3.879696  0  0  0.06018  0  3.885599  0  0  -0.068593  0.050138  0  3.875653  0
C  C45  1  0.22401950  0.56293507  0.87420724  1  0  0.105619  0  3.622778  0  0  0.054001  0  3.879828  0  0  0.060116  0  3.885705  0  0  -0.068674  0.050052  0  3.875782  0
C  C46  1  0.77598095  0.93706783  0.37420597  1  0  0.105764  0  3.622735  0  0  0.05406  0  3.879875  0  0  0.060148  0  3.885796  0  0  -0.068673  0.0501  0  3.875825  0
C  C47  1  0.77597317  0.43707127  0.12579231  1  0  0.105672  0  3.622627  0  0  0.054025  0  3.879811  0  0  0.060114  0  3.885716  0  0  -0.068634  0.050077  0  3.875767  0
C  C48  1  0.02527252  0.15775452  0.71452941  1  0  0.108717  0  3.634331  0  0  0.055028  0  3.894989  0  0  0.061328  0  3.900764  0  0  -0.066752  0.050862  0  3.890954  0
C  C49  1  0.02527523  0.65775268  0.78546908  1  0  0.108766  0  3.634072  0  0  0.05499  0  3.894865  0  0  0.061297  0  3.900648  0  0  -0.066704  0.050829  0  3.890827  0
C  C50  1  0.97473280  0.84225723  0.28547210  1  0  0.108527  0  3.63423  0  0  0.054868  0  3.894848  0  0  0.061166  0  3.900634  0  0  -0.066742  0.0507  0  3.890818  0
C  C51  1  0.97472317  0.34224160  0.21453177  1  0  0.108648  0  3.63427  0  0  0.054989  0  3.894874  0  0  0.061302  0  3.900651  0  0  -0.066759  0.050825  0  3.890837  0
C  C52  1  0.81837207  0.13377446  0.72650896  1  0  -0.216082  0  3.768899  0  0  -0.248317  0  4.003513  0  0  -0.251602  0  4.009594  0  0  -0.138932  -0.245974  0  3.999706  0
C  C53  1  0.81837317  0.63377534  0.77348604  1  0  -0.21615  0  3.768478  0  0  -0.248384  0  4.003139  0  0  -0.251668  0  4.009222  0  0  -0.138957  -0.246049  0  3.999321  0
C  C54  1  0.18163982  0.86623730  0.27349189  1  0  -0.216312  0  3.76926  0  0  -0.248518  0  4.003736  0  0  -0.2518  0  4.009814  0  0  -0.13901  -0.246178  0  3.999921  0
C  C55  1  0.18162683  0.36622297  0.22651221  1  0  -0.216082  0  3.76885  0  0  -0.248286  0  4.003464  0  0  -0.251582  0  4.009558  0  0  -0.138921  -0.245943  0  3.999659  0
C  C56  1  0.74930331  0.22662443  0.66252701  1  0  0.386314  0  3.596093  0  0  0.371215  0  3.866043  0  0  0.385852  0  3.878976  0  0  0.213124  0.360977  0  3.8579  0
C  C57  1  0.74930444  0.72663450  0.83747104  1  0  0.386338  0  3.596484  0  0  0.371257  0  3.866418  0  0  0.385889  0  3.879353  0  0  0.213256  0.361026  0  3.858252  0
C  C58  1  0.25069856  0.77338194  0.33747254  1  0  0.386608  0  3.596377  0  0  0.371496  0  3.866311  0  0  0.386133  0  3.879245  0  0  0.213289  0.361259  0  3.858151  0
C  C59  1  0.25069008  0.27337318  0.16253698  1  0  0.386259  0  3.595603  0  0  0.371134  0  3.865589  0  0  0.385777  0  3.878529  0  0  0.213092  0.360894  0  3.857452  0
I  I60  1  0.55190412  0.36252753  0.38030701  1  0  -0.499024  0  1.379372  0  0  -0.450641  0  1.779847  0  0  -0.468543  0  1.744755  0  0  -0.212164  -0.437687  0  1.802537  0
I  I61  1  0.55190751  0.86252621  0.11969107  1  0  -0.499048  0  1.379402  0  0  -0.450661  0  1.779861  0  0  -0.468575  0  1.744787  0  0  -0.212175  -0.43771  0  1.80256  0
I  I62  1  0.44809563  0.63747346  0.61968929  1  0  -0.499039  0  1.379373  0  0  -0.450639  0  1.779807  0  0  -0.46856  0  1.744751  0  0  -0.212165  -0.437682  0  1.802498  0
I  I63  1  0.44809959  0.13747347  0.88031173  1  0  -0.49903  0  1.379396  0  0  -0.450633  0  1.779833  0  0  -0.468576  0  1.744815  0  0  -0.212168  -0.437676  0  1.802524  0
N  N64  1  0.91117291  0.67670263  0.53014180  1  0  -0.429116  0  3.062337  0  0  -0.390842  0  3.388497  0  0  -0.399735  0  3.384708  0  0  -0.378508  -0.385968  0  3.391385  0
N  N65  1  0.91118197  0.17670774  0.96985913  1  0  -0.429086  0  3.062572  0  0  -0.390775  0  3.388694  0  0  -0.399669  0  3.384909  0  0  -0.378509  -0.385894  0  3.391536  0
N  N66  1  0.08881839  0.32329029  0.46985906  1  0  -0.429078  0  3.06242  0  0  -0.390774  0  3.388543  0  0  -0.399674  0  3.384768  0  0  -0.378466  -0.385896  0  3.3914  0
N  N67  1  0.08882436  0.82329327  0.03014303  1  0  -0.429066  0  3.06253  0  0  -0.390748  0  3.388652  0  0  -0.399646  0  3.384877  0  0  -0.378538  -0.385878  0  3.391554  0
N  N68  1  0.69285096  0.30465494  0.61301338  1  0  -0.427995  0  3.061923  0  0  -0.386583  0  3.380099  0  0  -0.395196  0  3.377167  0  0  -0.371991  -0.381951  0  3.382397  0
N  N69  1  0.69286984  0.80465284  0.88697929  1  0  -0.427982  0  3.062465  0  0  -0.386586  0  3.380633  0  0  -0.3952  0  3.377701  0  0  -0.372108  -0.381945  0  3.382885  0
N  N70  1  0.30713774  0.69534468  0.38698487  1  0  -0.428113  0  3.062135  0  0  -0.386722  0  3.380335  0  0  -0.395343  0  3.377415  0  0  -0.372094  -0.382084  0  3.382598  0
N  N71  1  0.30714247  0.19533343  0.11301571  1  0  -0.428014  0  3.061289  0  0  -0.386593  0  3.379493  0  0  -0.39521  0  3.376573  0  0  -0.372024  -0.381964  0  3.381807  0
O  O72  1  0.03554816  0.05351752  0.64125969  1  0  -0.320405  0  2.261281  0  0  -0.244249  0  2.502238  0  0  -0.261664  0  2.507226  0  0  -0.229183  -0.231896  0  2.498307  0
O  O73  1  0.03555225  0.55352486  0.85874285  1  0  -0.320399  0  2.261151  0  0  -0.24419  0  2.502096  0  0  -0.261639  0  2.507096  0  0  -0.229174  -0.231842  0  2.498165  0
O  O74  1  0.96444789  0.94648078  0.35874377  1  0  -0.320291  0  2.261306  0  0  -0.244091  0  2.502201  0  0  -0.261521  0  2.507207  0  0  -0.229103  -0.231739  0  2.498269  0
O  O75  1  0.96444831  0.44648151  0.14125996  1  0  -0.320376  0  2.261186  0  0  -0.244248  0  2.50215  0  0  -0.261687  0  2.507152  0  0  -0.229176  -0.231897  0  2.498216  0
