# generated using pymatgen
data_SnH6C4S3N2
_symmetry_space_group_name_H-M   'P 1'
_cell_length_a   9.90272576
_cell_length_b   9.10724949
_cell_length_c   14.36129225
_cell_angle_alpha   79.14128838
_cell_angle_beta   69.78125745
_cell_angle_gamma   57.07983514
_symmetry_Int_Tables_number   1
_chemical_formula_structural   SnH6C4S3N2
_chemical_formula_sum   'Sn4 H24 C16 S12 N8'
_cell_volume   1020.22963174
_cell_formula_units_Z   4
loop_
 _symmetry_equiv_pos_site_id
 _symmetry_equiv_pos_as_xyz
  1  'x, y, z'
loop_
 _atom_site_type_symbol
 _atom_site_label
 _atom_site_symmetry_multiplicity
 _atom_site_fract_x
 _atom_site_fract_y
 _atom_site_fract_z
 _atom_site_occupancy
 _atom_site_hle17_bader_spin_density
 _atom_site_hle17_ddec_charge
 _atom_site_hle17_ddec_spin_density
 _atom_site_hle17_ddec_sum_bond_order
 _atom_site_hle17_magmom
 _atom_site_hse06_10hf_bader_spin_density
 _atom_site_hse06_10hf_ddec_charge
 _atom_site_hse06_10hf_ddec_spin_density
 _atom_site_hse06_10hf_ddec_sum_bond_order
 _atom_site_hse06_10hf_magmom
 _atom_site_hse06_bader_spin_density
 _atom_site_hse06_ddec_charge
 _atom_site_hse06_ddec_spin_density
 _atom_site_hse06_ddec_sum_bond_order
 _atom_site_hse06_magmom
 _atom_site_pbe_bader_spin_density
 _atom_site_pbe_cm5_charge
 _atom_site_pbe_ddec_charge
 _atom_site_pbe_ddec_spin_density
 _atom_site_pbe_ddec_sum_bond_order
 _atom_site_pbe_magmom
Sn  Sn0  1  0.45474103  0.03255348  0.57478748  1  0  1.188615  0  2.964342  0  0  1.044331  0  3.456076  0  0  1.08134  0  3.449172  0  0  0.533995  1.018981  0  3.460516  0
Sn  Sn1  1  0.06208471  0.96679541  0.42478900  1  0  1.188  0  2.965386  0  0  1.043188  0  3.457369  0  0  1.080302  0  3.450515  0  0  0.532916  1.017777  0  3.461771  0
Sn  Sn2  1  0.77857416  0.53316652  0.92508878  1  0  1.189014  0  2.964849  0  0  1.044375  0  3.457183  0  0  1.081302  0  3.450668  0  0  0.533451  1.01912  0  3.461331  0
Sn  Sn3  1  0.23692047  0.46744987  0.07482653  1  0  1.188385  0  2.961918  0  0  1.043132  0  3.454288  0  0  1.080078  0  3.447588  0  0  0.534231  1.017933  0  3.458415  0
H  H4  1  0.62698528  0.70061469  0.63301419  1  0  0.171019  0  0.96391  0  0  0.191883  0  1.013738  0  0  0.195147  0  1.013534  0  0  0.090673  0.189562  0  1.01394  0
H  H5  1  0.96035068  0.29898523  0.36660110  1  0  0.170809  0  0.964133  0  0  0.191386  0  1.014383  0  0  0.194659  0  1.014173  0  0  0.090451  0.189053  0  1.014594  0
H  H6  1  0.00931295  0.20104370  0.86752912  1  0  0.171333  0  0.964473  0  0  0.192218  0  1.014247  0  0  0.195523  0  1.013994  0  0  0.090775  0.189865  0  1.014486  0
H  H7  1  0.07816092  0.79931259  0.13257772  1  0  0.170455  0  0.964436  0  0  0.191301  0  1.014305  0  0  0.194544  0  1.014135  0  0  0.090712  0.188985  0  1.014501  0
H  H8  1  0.44584820  0.73776802  0.60641739  1  0  0.161667  0  0.984747  0  0  0.174884  0  1.046045  0  0  0.177812  0  1.046271  0  0  0.084676  0.172799  0  1.045976  0
H  H9  1  0.78968507  0.26187579  0.39340708  1  0  0.161138  0  0.986357  0  0  0.174312  0  1.047616  0  0  0.177293  0  1.047763  0  0  0.084097  0.172203  0  1.047577  0
H  H10  1  0.80158370  0.23773430  0.89459340  1  0  0.160973  0  0.983284  0  0  0.174296  0  1.044566  0  0  0.177254  0  1.044737  0  0  0.0844  0.1722  0  1.044514  0
H  H11  1  0.93383943  0.76307641  0.10568464  1  0  0.159934  0  0.984957  0  0  0.173907  0  1.045433  0  0  0.176863  0  1.045614  0  0  0.084098  0.171812  0  1.04538  0
H  H12  1  0.42314353  0.81031460  0.72287685  1  0  0.160131  0  0.995869  0  0  0.174104  0  1.057754  0  0  0.177156  0  1.058181  0  0  0.081992  0.171941  0  1.057511  0
H  H13  1  0.95598056  0.18925891  0.27702387  1  0  0.159538  0  0.996161  0  0  0.173556  0  1.057947  0  0  0.176598  0  1.058381  0  0  0.081933  0.171382  0  1.057719  0
H  H14  1  0.89521425  0.31003800  0.77784878  1  0  0.159917  0  0.99664  0  0  0.174082  0  1.058154  0  0  0.177124  0  1.058569  0  0  0.082273  0.171921  0  1.057921  0
H  H15  1  0.98307130  0.69027333  0.22229649  1  0  0.159206  0  0.996  0  0  0.173091  0  1.058269  0  0  0.17615  0  1.058671  0  0  0.081602  0.170915  0  1.058044  0
H  H16  1  0.32542160  0.35365128  0.50180125  1  0  0.159653  0  0.974414  0  0  0.176796  0  1.030509  0  0  0.179516  0  1.030945  0  0  0.08753  0.174873  0  1.030269  0
H  H17  1  0.17996316  0.64621087  0.49845896  1  0  0.160003  0  0.976287  0  0  0.177034  0  1.032264  0  0  0.179769  0  1.032668  0  0  0.087059  0.175103  0  1.032042  0
H  H18  1  0.57566183  0.85342587  0.99904939  1  0  0.15962  0  0.97466  0  0  0.176921  0  1.030506  0  0  0.179684  0  1.030849  0  0  0.08775  0.17497  0  1.030326  0
H  H19  1  0.42832465  0.14633140  0.00173274  1  0  0.158244  0  0.975262  0  0  0.175604  0  1.031153  0  0  0.178333  0  1.03158  0  0  0.086779  0.173676  0  1.030916  0
H  H20  1  0.18189697  0.35625574  0.62116706  1  0  0.157113  0  1.0196  0  0  0.167447  0  1.087495  0  0  0.17033  0  1.088778  0  0  0.076798  0.165367  0  1.086701  0
H  H21  1  0.15950910  0.64293311  0.37893894  1  0  0.156571  0  1.020813  0  0  0.166897  0  1.088739  0  0  0.16977  0  1.090042  0  0  0.075987  0.164831  0  1.087918  0
H  H22  1  0.55305662  0.85748030  0.87906032  1  0  0.156148  0  1.020845  0  0  0.166649  0  1.088599  0  0  0.169545  0  1.089863  0  0  0.076234  0.164575  0  1.0878  0
H  H23  1  0.28798833  0.14347593  0.12135541  1  0  0.15577  0  1.02131  0  0  0.166249  0  1.08926  0  0  0.169134  0  1.090547  0  0  0.076477  0.164183  0  1.08845  0
H  H24  1  0.18753441  0.27850243  0.51234139  1  0  0.166155  0  0.989484  0  0  0.179226  0  1.051545  0  0  0.182633  0  1.05121  0  0  0.083093  0.176795  0  1.051848  0
H  H25  1  0.97788450  0.72098900  0.48758411  1  0  0.166216  0  0.989716  0  0  0.179379  0  1.051564  0  0  0.182806  0  1.051211  0  0  0.082606  0.176937  0  1.051892  0
H  H26  1  0.44878542  0.77896582  0.98705825  1  0  0.165621  0  0.988752  0  0  0.178739  0  1.050961  0  0  0.182169  0  1.050592  0  0  0.083007  0.176293  0  1.051297  0
H  H27  1  0.21520505  0.22148540  0.01269720  1  0  0.165179  0  0.990033  0  0  0.178359  0  1.05207  0  0  0.181767  0  1.05175  0  0  0.082695  0.17592  0  1.052387  0
C  C28  1  0.54825139  0.13126677  0.71673891  1  0  0.156892  0  3.88671  0  0  0.13928  0  4.197008  0  0  0.158415  0  4.20913  0  0  0.111567  0.12669  0  4.188224  0
C  C29  1  0.39638354  0.86863589  0.28332772  1  0  0.15566  0  3.886249  0  0  0.137766  0  4.196822  0  0  0.156891  0  4.208974  0  0  0.110729  0.125192  0  4.188018  0
C  C30  1  0.01467309  0.63144914  0.78316359  1  0  0.155918  0  3.887303  0  0  0.138011  0  4.197824  0  0  0.157173  0  4.209968  0  0  0.111066  0.125424  0  4.189031  0
C  C31  1  0.42889277  0.36880240  0.21681671  1  0  0.156374  0  3.886346  0  0  0.138148  0  4.196493  0  0  0.157304  0  4.208621  0  0  0.110677  0.125551  0  4.187717  0
C  C32  1  0.83018524  0.08826213  0.63335299  1  0  0.137638  0  3.858576  0  0  0.126571  0  4.167458  0  0  0.140602  0  4.180009  0  0  0.111613  0.117113  0  4.158694  0
C  C33  1  0.55219029  0.91133026  0.36643878  1  0  0.135297  0  3.858461  0  0  0.123843  0  4.168027  0  0  0.137826  0  4.180616  0  0  0.110085  0.114421  0  4.159236  0
C  C34  1  0.21312810  0.58882374  0.86625279  1  0  0.135447  0  3.861337  0  0  0.123804  0  4.171103  0  0  0.137818  0  4.183677  0  0  0.110486  0.114357  0  4.162327  0
C  C35  1  0.66805533  0.41163547  0.13360917  1  0  0.137046  0  3.858987  0  0  0.125158  0  4.169234  0  0  0.139189  0  4.181735  0  0  0.110524  0.115704  0  4.160502  0
C  C36  1  0.49156706  0.78870838  0.64372530  1  0  -0.663943  0  3.511994  0  0  -0.705329  0  3.742982  0  0  -0.71905  0  3.750896  0  0  -0.321335  -0.695908  0  3.737509  0
C  C37  1  0.92372588  0.21075834  0.35614063  1  0  -0.662647  0  3.514514  0  0  -0.70359  0  3.745608  0  0  -0.717372  0  3.753522  0  0  -0.320577  -0.694122  0  3.740167  0
C  C38  1  0.88447536  0.28882131  0.85697502  1  0  -0.663074  0  3.513121  0  0  -0.704757  0  3.744055  0  0  -0.718518  0  3.751974  0  0  -0.321048  -0.69534  0  3.738632  0
C  C39  1  0.03032360  0.71167051  0.14317334  1  0  -0.66007  0  3.512459  0  0  -0.701918  0  3.742887  0  0  -0.71565  0  3.750822  0  0  -0.320014  -0.692525  0  3.737478  0
C  C40  1  0.26097539  0.28813888  0.55017480  1  0  -0.656001  0  3.521045  0  0  -0.697506  0  3.758806  0  0  -0.71127  0  3.767305  0  0  -0.323183  -0.688062  0  3.753025  0
C  C41  1  0.09891796  0.71139043  0.44985354  1  0  -0.656093  0  3.524569  0  0  -0.697302  0  3.761479  0  0  -0.711144  0  3.770058  0  0  -0.321668  -0.687827  0  3.755667  0
C  C42  1  0.56032957  0.78859340  0.94995077  1  0  -0.654667  0  3.522255  0  0  -0.69639  0  3.759428  0  0  -0.710273  0  3.768015  0  0  -0.322658  -0.686892  0  3.753583  0
C  C43  1  0.29858588  0.21180321  0.05032898  1  0  -0.651913  0  3.522526  0  0  -0.693713  0  3.759662  0  0  -0.70749  0  3.768274  0  0  -0.321808  -0.684298  0  3.753814  0
S  S44  1  0.68993935  0.15042393  0.75291424  1  0  0.097806  0  2.415358  0  0  0.105267  0  2.724709  0  0  0.105132  0  2.722535  0  0  0.104638  0.104891  0  2.726268  0
S  S45  1  0.59358022  0.84930334  0.24687752  1  0  0.099839  0  2.415233  0  0  0.107454  0  2.724756  0  0  0.107328  0  2.722596  0  0  0.106263  0.107067  0  2.726306  0
S  S46  1  0.19260139  0.65069144  0.74662946  1  0  0.099546  0  2.416325  0  0  0.107347  0  2.725965  0  0  0.107198  0  2.7238  0  0  0.105798  0.106978  0  2.727511  0
S  S47  1  0.58986358  0.34919502  0.25308751  1  0  0.09859  0  2.415851  0  0  0.106208  0  2.72584  0  0  0.10606  0  2.723679  0  0  0.1051  0.105835  0  2.727383  0
S  S48  1  0.35927532  0.16031043  0.78387136  1  0  -0.369613  0  1.943807  0  0  -0.351846  0  2.236976  0  0  -0.370281  0  2.238152  0  0  -0.16294  -0.338894  0  2.235749  0
S  S49  1  0.30318042  0.83950573  0.21654503  1  0  -0.368405  0  1.945419  0  0  -0.350548  0  2.239217  0  0  -0.368982  0  2.2404  0  0  -0.161572  -0.337601  0  2.23798  0
S  S50  1  0.89284906  0.66006021  0.71621669  1  0  -0.368901  0  1.943628  0  0  -0.351348  0  2.237792  0  0  -0.369749  0  2.238932  0  0  -0.161944  -0.338411  0  2.236563  0
S  S51  1  0.26893519  0.33980071  0.28397439  1  0  -0.368242  0  1.943909  0  0  -0.350599  0  2.23772  0  0  -0.369013  0  2.2389  0  0  -0.161789  -0.337672  0  2.236477  0
S  S52  1  0.02762661  0.06163553  0.59296232  1  0  -0.33444  0  2.060755  0  0  -0.311551  0  2.377558  0  0  -0.325791  0  2.375514  0  0  -0.11497  -0.301521  0  2.378633  0
S  S53  1  0.68303670  0.93751104  0.40663276  1  0  -0.332383  0  2.064167  0  0  -0.309243  0  2.381485  0  0  -0.323437  0  2.379443  0  0  -0.112997  -0.29925  0  2.382562  0
S  S54  1  0.37035202  0.56225555  0.90640885  1  0  -0.332574  0  2.061043  0  0  -0.309209  0  2.378434  0  0  -0.323361  0  2.37632  0  0  -0.113289  -0.299257  0  2.379552  0
S  S55  1  0.83908377  0.43804228  0.09320016  1  0  -0.333947  0  2.061285  0  0  -0.310873  0  2.378852  0  0  -0.325032  0  2.376752  0  0  -0.114071  -0.300892  0  2.379932  0
N  N56  1  0.61509367  0.08414708  0.62053354  1  0  -0.277613  0  3.342644  0  0  -0.201056  0  3.60214  0  0  -0.218511  0  3.62234  0  0  -0.230476  -0.189482  0  3.588288  0
N  N57  1  0.31989419  0.91576191  0.37952567  1  0  -0.274959  0  3.340717  0  0  -0.197696  0  3.599165  0  0  -0.215193  0  3.619468  0  0  -0.228048  -0.186116  0  3.585275  0
N  N58  1  0.98512284  0.58459519  0.87942946  1  0  -0.274954  0  3.339203  0  0  -0.19784  0  3.597651  0  0  -0.215403  0  3.617992  0  0  -0.22884  -0.186254  0  3.583783  0
N  N59  1  0.44865014  0.41626492  0.12063108  1  0  -0.277065  0  3.344614  0  0  -0.198308  0  3.601301  0  0  -0.215821  0  3.621579  0  0  -0.228853  -0.186729  0  3.58743  0
N  N60  1  0.77018701  0.06131411  0.57367091  1  0  -0.256729  0  3.151554  0  0  -0.214074  0  3.412602  0  0  -0.224781  0  3.430259  0  0  -0.215511  -0.206679  0  3.400486  0
N  N61  1  0.40550242  0.93836208  0.42625407  1  0  -0.257245  0  3.149535  0  0  -0.214987  0  3.410847  0  0  -0.225623  0  3.42848  0  0  -0.21609  -0.207639  0  3.398758  0
N  N62  1  0.09330900  0.56206921  0.92616722  1  0  -0.258636  0  3.151987  0  0  -0.216299  0  3.413368  0  0  -0.226909  0  3.430988  0  0  -0.216789  -0.208961  0  3.401298  0
N  N63  1  0.58119592  0.43870402  0.07385154  1  0  -0.258366  0  3.153509  0  0  -0.216222  0  3.414434  0  0  -0.226881  0  3.432067  0  0  -0.216367  -0.208861  0  3.402354  0
