# generated using pymatgen
data_ZnH25C23N4O7
_symmetry_space_group_name_H-M   'P 1'
_cell_length_a   9.66436302
_cell_length_b   9.85636450
_cell_length_c   14.53100000
_cell_angle_alpha   80.15726887
_cell_angle_beta   76.84078195
_cell_angle_gamma   61.82888703
_symmetry_Int_Tables_number   1
_chemical_formula_structural   ZnH25C23N4O7
_chemical_formula_sum   'Zn2 H50 C46 N8 O14'
_cell_volume   1184.89962479
_cell_formula_units_Z   2
loop_
 _symmetry_equiv_pos_site_id
 _symmetry_equiv_pos_as_xyz
  1  'x, y, z'
loop_
 _atom_site_type_symbol
 _atom_site_label
 _atom_site_symmetry_multiplicity
 _atom_site_fract_x
 _atom_site_fract_y
 _atom_site_fract_z
 _atom_site_occupancy
 _atom_site_hle17_bader_spin_density
 _atom_site_hle17_ddec_charge
 _atom_site_hle17_ddec_spin_density
 _atom_site_hle17_ddec_sum_bond_order
 _atom_site_hle17_magmom
 _atom_site_hse06_10hf_bader_spin_density
 _atom_site_hse06_10hf_ddec_charge
 _atom_site_hse06_10hf_ddec_spin_density
 _atom_site_hse06_10hf_ddec_sum_bond_order
 _atom_site_hse06_10hf_magmom
 _atom_site_hse06_bader_spin_density
 _atom_site_hse06_ddec_charge
 _atom_site_hse06_ddec_spin_density
 _atom_site_hse06_ddec_sum_bond_order
 _atom_site_hse06_magmom
 _atom_site_pbe_bader_charge
 _atom_site_pbe_bader_spin_density
 _atom_site_pbe_cm5_charge
 _atom_site_pbe_ddec_charge
 _atom_site_pbe_ddec_spin_density
 _atom_site_pbe_ddec_sum_bond_order
 _atom_site_pbe_magmom
Zn  Zn0  1  0.84350793  0.81364090  0.51512184  1  0  1.108322  0  1.717436  0  0  0.921211  0  2.188922  0  0  0.970892  0  2.12821  0  1.287854  0  0.704841  0.884709  0  2.232623  0
Zn  Zn1  1  0.15649256  0.18635976  0.48487746  1  0  1.108352  0  1.717414  0  0  0.921221  0  2.188889  0  0  0.970911  0  2.128184  0  1.287999  0  0.704856  0.884722  0  2.232594  0
H  H2  1  0.83487880  0.93437469  0.33610198  1  0  0.454274  0  0.782573  0  0  0.43567  0  0.835549  0  0  0.444778  0  0.824865  0  0.663202  0  0.338156  0.429034  0  0.843553  0
H  H3  1  0.16512116  0.06562713  0.66389658  1  0  0.454242  0  0.782725  0  0  0.435631  0  0.83569  0  0  0.444735  0  0.825014  0  0.663189  0  0.338141  0.42899  0  0.843704  0
H  H4  1  0.81813725  0.05777602  0.40345292  1  0  0.4431  0  0.857728  0  0  0.408486  0  0.926273  0  0  0.420626  0  0.908669  0  0.663246  0  0.296756  0.399861  0  0.938743  0
H  H5  1  0.18186538  0.94222234  0.59654701  1  0  0.443112  0  0.857714  0  0  0.408496  0  0.926264  0  0  0.420637  0  0.90866  0  0.663249  0  0.296756  0.399871  0  0.938735  0
H  H6  1  0.24975993  0.41069292  0.71404816  1  0  0.293608  0  0.950214  0  0  0.273729  0  1.019355  0  0  0.281912  0  1.013717  0  0.517373  0  0.295994  0.268015  0  1.023153  0
H  H7  1  0.75023735  0.58931236  0.28594765  1  0  0.293593  0  0.950254  0  0  0.273741  0  1.019378  0  0  0.281923  0  1.01374  0  0.517424  0  0.296025  0.268027  0  1.023177  0
H  H8  1  0.55001628  0.24362337  0.98333516  1  0  0.294458  0  0.948228  0  0  0.27623  0  1.014813  0  0  0.283931  0  1.009272  0  0.51293  0  0.302308  0.27087  0  1.018763  0
H  H9  1  0.44998370  0.75637383  0.01666806  1  0  0.294527  0  0.94811  0  0  0.276274  0  1.014732  0  0  0.283973  0  1.009192  0  0.512861  0  0.302334  0.270914  0  1.018685  0
H  H10  1  0.40906934  0.77851574  0.50864533  1  0  0.101751  0  0.965324  0  0  0.110973  0  1.029582  0  0  0.113677  0  1.029052  0  0.078279  0  0.105889  0.108542  0  1.030756  0
H  H11  1  0.59093276  0.22148146  0.49135481  1  0  0.101693  0  0.965342  0  0  0.110952  0  1.029568  0  0  0.113654  0  1.02904  0  0.078213  0  0.105879  0.108535  0  1.030727  0
H  H12  1  0.89986116  0.00739987  0.62852222  1  0  0.087833  0  0.990227  0  0  0.09598  0  1.053732  0  0  0.099282  0  1.050554  0  0.1586  0  0.116746  0.093411  0  1.056312  0
H  H13  1  0.10013826  0.99260310  0.37147904  1  0  0.087759  0  0.990275  0  0  0.0959  0  1.053791  0  0  0.099199  0  1.050618  0  0.15869  0  0.11673  0.093331  0  1.056372  0
H  H14  1  0.73212904  0.21345147  0.74284639  1  0  0.118274  0  0.977412  0  0  0.121974  0  1.046366  0  0  0.125619  0  1.045076  0  0.141987  0  0.111096  0.119483  0  1.046905  0
H  H15  1  0.26786718  0.78655381  0.25715440  1  0  0.118261  0  0.977352  0  0  0.121959  0  1.04631  0  0  0.125604  0  1.045019  0  0.142108  0  0.111108  0.119469  0  1.046848  0
H  H16  1  0.33588298  0.12968703  0.73203721  1  0  0.123624  0  0.937614  0  0  0.133557  0  0.995714  0  0  0.137544  0  0.993482  0  0.118303  0  0.117819  0.130767  0  0.997536  0
H  H17  1  0.66411590  0.87031709  0.26795918  1  0  0.123612  0  0.937613  0  0  0.133542  0  0.995724  0  0  0.137536  0  0.993484  0  0.11827  0  0.117838  0.130754  0  0.997546  0
H  H18  1  0.51949194  0.92626622  0.62147160  1  0  0.092032  0  0.949572  0  0  0.098338  0  1.016531  0  0  0.101414  0  1.013483  0  0.104006  0  0.120737  0.095883  0  1.019161  0
H  H19  1  0.48051015  0.07373329  0.37852759  1  0  0.092003  0  0.949568  0  0  0.098308  0  1.016538  0  0  0.101384  0  1.01349  0  0.10405  0  0.120713  0.095853  0  1.019169  0
H  H20  1  0.22101268  0.65508836  0.79685522  1  0  0.064591  0  0.910647  0  0  0.08436  0  0.967797  0  0  0.084018  0  0.968354  0  0.066934  0  0.102444  0.084242  0  0.967584  0
H  H21  1  0.77898568  0.34491461  0.20314345  1  0  0.064605  0  0.910604  0  0  0.084369  0  0.967757  0  0  0.084026  0  0.968316  0  0.066955  0  0.102464  0.084252  0  0.967544  0
H  H22  1  0.17582017  0.54397718  0.89691242  1  0  0.056204  0  0.940412  0  0  0.072554  0  1.005569  0  0  0.073055  0  1.005053  0  0.070573  0  0.104169  0.07205  0  1.006134  0
H  H23  1  0.82418031  0.45602579  0.10308730  1  0  0.056205  0  0.940435  0  0  0.072559  0  1.005574  0  0  0.07306  0  1.005058  0  0.07056  0  0.104161  0.072058  0  1.006136  0
H  H24  1  0.96134981  0.54873539  0.82217536  1  0  0.070997  0  0.953113  0  0  0.088424  0  1.013242  0  0  0.088307  0  1.01564  0  0.043443  0  0.088642  0.088508  0  1.011214  0
H  H25  1  0.03864907  0.45126873  0.17782378  1  0  0.070965  0  0.953134  0  0  0.088435  0  1.013243  0  0  0.088319  0  1.01564  0  0.043447  0  0.088629  0.088519  0  1.011213  0
H  H26  1  0.00817744  0.65862211  0.72262077  1  0  0.070652  0  0.936589  0  0  0.088177  0  0.99756  0  0  0.088567  0  0.998215  0  -0.004926  0  0.088285  0.08775  0  0.997283  0
H  H27  1  0.99182306  0.34137855  0.27737784  1  0  0.070664  0  0.936596  0  0  0.08819  0  0.997589  0  0  0.088571  0  0.998251  0  -0.004897  0  0.088292  0.087762  0  0.997311  0
H  H28  1  0.93480483  0.87094606  0.82468337  1  0  0.053825  0  0.941066  0  0  0.075348  0  0.997924  0  0  0.075621  0  0.998692  0  0.011894  0  0.084926  0.075346  0  0.996939  0
H  H29  1  0.06519617  0.12905807  0.17531339  1  0  0.053841  0  0.941126  0  0  0.07536  0  0.997977  0  0  0.075627  0  0.998746  0  0.011678  0  0.084917  0.075358  0  0.996992  0
H  H30  1  0.77484558  0.83062068  0.82609422  1  0  0.058391  0  0.942555  0  0  0.076439  0  1.005146  0  0  0.076043  0  1.007981  0  -0.007564  0  0.083421  0.077101  0  1.002076  0
H  H31  1  0.22515649  0.16938345  0.17390031  1  0  0.05845  0  0.942533  0  0  0.076466  0  1.005127  0  0  0.076069  0  1.007963  0  -0.007538  0  0.083465  0.07713  0  1.002059  0
H  H32  1  0.84089761  0.66011663  0.97898012  1  0  0.063459  0  0.939621  0  0  0.081782  0  1.002044  0  0  0.082154  0  1.003313  0  0.01573  0  0.087143  0.081382  0  1.001364  0
H  H33  1  0.15909543  0.33988634  0.02101454  1  0  0.063481  0  0.93962  0  0  0.081832  0  1.002011  0  0  0.082202  0  1.003286  0  0.015619  0  0.087169  0.08143  0  1.001333  0
H  H34  1  0.97609520  0.73049389  0.98340477  1  0  0.050507  0  0.958743  0  0  0.070942  0  1.018492  0  0  0.071214  0  1.019103  0  0.008437  0  0.084395  0.070835  0  1.017956  0
H  H35  1  0.02390317  0.26950677  0.01659278  1  0  0.050513  0  0.958741  0  0  0.070961  0  1.018481  0  0  0.071231  0  1.019092  0  0.008381  0  0.084409  0.070853  0  1.017945  0
H  H36  1  0.62178648  0.93407001  0.97536853  1  0  0.065719  0  0.951077  0  0  0.08282  0  1.014648  0  0  0.083813  0  1.01494  0  0.007725  0  0.087741  0.081712  0  1.015165  0
H  H37  1  0.37821026  0.06593642  0.02462998  1  0  0.06575  0  0.951086  0  0  0.082854  0  1.014647  0  0  0.083846  0  1.01494  0  0.007999  0  0.087754  0.081743  0  1.015166  0
H  H38  1  0.70053672  0.86914456  0.08180501  1  0  0.066904  0  0.945027  0  0  0.084591  0  1.006847  0  0  0.084827  0  1.007904  0  0.018218  0  0.087285  0.084421  0  1.006007  0
H  H39  1  0.29946060  0.13085379  0.91819366  1  0  0.06689  0  0.945019  0  0  0.08457  0  1.006853  0  0  0.084808  0  1.007908  0  0.018177  0  0.087261  0.084399  0  1.006012  0
H  H40  1  0.85695237  0.01317136  0.03675924  1  0  0.061312  0  0.926004  0  0  0.078433  0  0.987938  0  0  0.079266  0  0.986843  0  0.062434  0  0.103904  0.076857  0  0.990542  0
H  H41  1  0.14304441  0.98682815  0.96324419  1  0  0.061336  0  0.925994  0  0  0.078439  0  0.987933  0  0  0.079272  0  0.986844  0  0.062603  0  0.103914  0.076862  0  0.990535  0
H  H42  1  0.80192529  0.06798719  0.92193577  1  0  0.056778  0  0.93012  0  0  0.07513  0  0.992303  0  0  0.075208  0  0.992281  0  0.059315  0  0.103926  0.074862  0  0.99253  0
H  H43  1  0.19807625  0.93201578  0.07806585  1  0  0.056787  0  0.930146  0  0  0.075154  0  0.99229  0  0  0.075232  0  0.992268  0  0.059407  0  0.103935  0.074881  0  0.992523  0
H  H44  1  0.20120119  0.54817567  0.34359699  1  0  0.078098  0  0.953597  0  0  0.082799  0  1.021609  0  0  0.085533  0  1.019825  0  0.096407  0  0.104832  0.080723  0  1.022939  0
H  H45  1  0.79879931  0.45182268  0.65640670  1  0  0.078058  0  0.953401  0  0  0.082757  0  1.021437  0  0  0.085491  0  1.019652  0  0.096293  0  0.104825  0.080682  0  1.022766  0
H  H46  1  0.44626566  0.30622223  0.29770214  1  0  0.107416  0  0.970112  0  0  0.112818  0  1.039287  0  0  0.11669  0  1.036951  0  0.115082  0  0.102568  0.10996  0  1.041109  0
H  H47  1  0.55373486  0.69377381  0.70230182  1  0  0.107415  0  0.970132  0  0  0.112836  0  1.039278  0  0  0.116709  0  1.036939  0  0.115184  0  0.102574  0.109977  0  1.041101  0
H  H48  1  0.38576586  0.45694212  0.00550637  1  0  0.108285  0  0.994312  0  0  0.114007  0  1.064293  0  0  0.118135  0  1.061747  0  0.138379  0  0.10591  0.110875  0  1.066382  0
H  H49  1  0.61423359  0.54305392  0.99449775  1  0  0.108207  0  0.994403  0  0  0.113963  0  1.06433  0  0  0.118091  0  1.061784  0  0.138304  0  0.10588  0.110829  0  1.066424  0
H  H50  1  0.15638409  0.69605771  0.06280009  1  0  0.060516  0  0.949224  0  0  0.070625  0  1.011131  0  0  0.073079  0  1.009435  0  0.070945  0  0.105823  0.068519  0  1.01304  0
H  H51  1  0.84361482  0.30393949  0.93720192  1  0  0.060475  0  0.949391  0  0  0.070596  0  1.011278  0  0  0.07305  0  1.009583  0  0.07091  0  0.105801  0.068494  0  1.013177  0
C  C52  1  0.16361984  0.71388226  0.53134098  1  0  0.663033  0  3.902278  0  0  0.606162  0  4.205126  0  0  0.640925  0  4.196874  0  1.56602  0  0.219247  0.583114  0  4.209413  0
C  C53  1  0.83638226  0.28611494  0.46865916  1  0  0.6629  0  3.902312  0  0  0.606044  0  4.205175  0  0  0.640805  0  4.196925  0  1.566029  0  0.219225  0.582997  0  4.209458  0
C  C54  1  0.33626537  0.60049411  0.51824397  1  0  -0.062893  0  3.724415  0  0  -0.049702  0  3.962099  0  0  -0.054791  0  3.981731  0  -0.020493  0  -0.008327  -0.047604  0  3.949716  0
C  C55  1  0.66373780  0.39950309  0.48175463  1  0  -0.062833  0  3.724428  0  0  -0.049721  0  3.96224  0  0  -0.054809  0  3.981871  0  -0.02017  0  -0.008359  -0.047622  0  3.949858  0
C  C56  1  0.44907257  0.65580042  0.50535912  1  0  -0.085051  0  3.711384  0  0  -0.117769  0  3.960279  0  0  -0.118138  0  3.980282  0  0.056923  0  -0.079292  -0.117135  0  3.947666  0
C  C57  1  0.55093114  0.34419562  0.49464161  1  0  -0.084994  0  3.711313  0  0  -0.117735  0  3.960261  0  0  -0.118101  0  3.98026  0  0.056565  0  -0.079274  -0.117111  0  3.947641  0
C  C58  1  0.61209525  0.55802447  0.48633183  1  0  -0.042884  0  3.699229  0  0  -0.030072  0  3.937956  0  0  -0.03301  0  3.956165  0  -0.067181  0  -0.002886  -0.028589  0  3.926278  0
C  C59  1  0.38790898  0.44197273  0.51366662  1  0  -0.042934  0  3.699159  0  0  -0.030126  0  3.937869  0  0  -0.033065  0  3.956079  0  -0.06717  0  -0.002921  -0.028639  0  3.926187  0
C  C60  1  0.72283699  0.63143808  0.46515405  1  0  0.665799  0  3.913247  0  0  0.609418  0  4.218403  0  0  0.643781  0  4.209956  0  1.622047  0  0.211802  0.586296  0  4.222696  0
C  C61  1  0.27716564  0.36856027  0.53484451  1  0  0.665867  0  3.913318  0  0  0.609457  0  4.218498  0  0  0.643821  0  4.210048  0  1.62202  0  0.211839  0.586333  0  4.222793  0
C  C62  1  0.77429748  0.03986375  0.65391641  1  0  0.125021  0  3.705499  0  0  0.090727  0  3.959964  0  0  0.097241  0  3.97795  0  0.431164  0  0.044487  0.086354  0  3.94749  0
C  C63  1  0.22570300  0.96013922  0.34608331  1  0  0.125166  0  3.705478  0  0  0.090887  0  3.959925  0  0  0.097402  0  3.977912  0  0.431076  0  0.044554  0.086515  0  3.947453  0
C  C64  1  0.68038961  0.15358313  0.71651971  1  0  -0.126627  0  3.695193  0  0  -0.145546  0  3.942751  0  0  -0.151821  0  3.962963  0  -0.027834  0  -0.07369  -0.141174  0  3.927721  0
C  C65  1  0.31960767  0.84642215  0.28347954  1  0  -0.126641  0  3.69526  0  0  -0.145571  0  3.942846  0  0  -0.151846  0  3.963056  0  -0.027845  0  -0.073694  -0.141199  0  3.927814  0
C  C66  1  0.51849841  0.19251555  0.74311051  1  0  0.019013  0  3.726913  0  0  0.033689  0  3.96458  0  0  0.034435  0  3.98299  0  0.01557  0  0.017814  0.033518  0  3.951485  0
C  C67  1  0.48149782  0.80748742  0.25689054  1  0  0.018948  0  3.726912  0  0  0.033646  0  3.964613  0  0  0.034393  0  3.983025  0  0.015486  0  0.017783  0.033475  0  3.951519  0
C  C68  1  0.45945557  0.10787749  0.71048509  1  0  -0.121062  0  3.69404  0  0  -0.145296  0  3.946578  0  0  -0.150943  0  3.966571  0  -0.014718  0  -0.072418  -0.142345  0  3.933743  0
C  C69  1  0.54054385  0.89212548  0.28951273  1  0  -0.121018  0  3.694066  0  0  -0.14526  0  3.946638  0  0  -0.150912  0  3.966628  0  -0.014696  0  -0.072412  -0.142311  0  3.9338  0
C  C70  1  0.56142603  0.99357251  0.64912931  1  0  0.137238  0  3.669902  0  0  0.105541  0  3.921706  0  0  0.112362  0  3.939893  0  0.487332  0  0.05219  0.101302  0  3.90914  0
C  C71  1  0.43857393  0.00642930  0.35086925  1  0  0.137318  0  3.669848  0  0  0.105619  0  3.921661  0  0  0.11244  0  3.939851  0  0.486969  0  0.052249  0.10138  0  3.909095  0
C  C72  1  0.41552803  0.32580327  0.80351221  1  0  0.526093  0  3.875805  0  0  0.476441  0  4.166451  0  0  0.504961  0  4.165321  0  1.427794  0  0.24064  0.457662  0  4.165922  0
C  C73  1  0.58446927  0.67419970  0.19648731  1  0  0.526212  0  3.875683  0  0  0.476526  0  4.166442  0  0  0.505048  0  4.165308  0  1.427827  0  0.240685  0.457752  0  4.165905  0
C  C74  1  0.17361845  0.57015832  0.82054271  1  0  0.069491  0  3.64777  0  0  0.0095  0  3.911859  0  0  0.015335  0  3.923228  0  0.286711  0  -0.059972  0.00578  0  3.903952  0
C  C75  1  0.82637937  0.42984580  0.17945728  1  0  0.069475  0  3.647746  0  0  0.00953  0  3.911853  0  0  0.015367  0  3.923217  0  0.28675  0  -0.059963  0.005808  0  3.903946  0
C  C76  1  0.00528499  0.63586393  0.79969454  1  0  -0.136287  0  3.684777  0  0  -0.172408  0  3.943544  0  0  -0.173873  0  3.957772  0  0.011283  0  -0.167512  -0.171341  0  3.933482  0
C  C77  1  0.99471389  0.36414020  0.20030460  1  0  -0.136247  0  3.68476  0  0  -0.172434  0  3.943544  0  0  -0.173891  0  3.957764  0  0.011232  0  -0.167504  -0.171365  0  3.933482  0
C  C78  1  0.89108071  0.78366749  0.84901860  1  0  -0.103265  0  3.700608  0  0  -0.142666  0  3.962754  0  0  -0.1442  0  3.979478  0  -0.009453  0  -0.167813  -0.141644  0  3.950246  0
C  C79  1  0.10891871  0.21633548  0.15097853  1  0  -0.10335  0  3.700651  0  0  -0.142705  0  3.962796  0  0  -0.14423  0  3.979506  0  -0.009331  0  -0.167832  -0.14169  0  3.950298  0
C  C80  1  0.86589641  0.76022956  0.95741306  1  0  -0.102248  0  3.688863  0  0  -0.138785  0  3.94616  0  0  -0.139922  0  3.961768  0  0.014801  0  -0.166775  -0.137784  0  3.935114  0
C  C81  1  0.13410089  0.23977110  0.04258534  1  0  -0.102302  0  3.688921  0  0  -0.138882  0  3.946226  0  0  -0.140019  0  3.961832  0  0.014986  0  -0.16686  -0.137881  0  3.935181  0
C  C82  1  0.72885809  0.90000544  0.00594037  1  0  -0.130477  0  3.673208  0  0  -0.169095  0  3.934473  0  0  -0.170769  0  3.94824  0  -0.005782  0  -0.167834  -0.167521  0  3.924831  0
C  C83  1  0.27114188  0.09999407  0.99405776  1  0  -0.130484  0  3.673183  0  0  -0.169106  0  3.934435  0  0  -0.170781  0  3.948205  0  -0.005733  0  -0.167825  -0.167523  0  3.92478  0
C  C84  1  0.76249791  0.03940328  0.99656708  1  0  0.062289  0  3.660914  0  0  0.000929  0  3.928459  0  0  0.006989  0  3.939365  0  0.30328  0  -0.062233  -0.003034  0  3.921493  0
C  C85  1  0.23750260  0.96059507  0.00343317  1  0  0.062215  0  3.661036  0  0  0.000889  0  3.928546  0  0  0.006943  0  3.939455  0  0.303043  0  -0.062253  -0.00307  0  3.921575  0
C  C86  1  0.58767675  0.21299330  0.12250307  1  0  0.52321  0  3.862675  0  0  0.478108  0  4.148944  0  0  0.506956  0  4.148538  0  1.408485  0  0.231594  0.458922  0  4.147968  0
C  C87  1  0.41232217  0.78700390  0.87749893  1  0  0.523214  0  3.862793  0  0  0.478154  0  4.149057  0  0  0.507  0  4.148645  0  1.408493  0  0.231607  0.458968  0  4.148082  0
C  C88  1  0.24749645  0.52522245  0.26903477  1  0  0.114029  0  3.726614  0  0  0.093822  0  3.985804  0  0  0.097894  0  4.002967  0  0.520524  0  0.03789  0.091186  0  3.973534  0
C  C89  1  0.75250193  0.47477591  0.73096994  1  0  0.114307  0  3.726459  0  0  0.094102  0  3.98564  0  0  0.098176  0  4.002801  0  0.520811  0  0.037984  0.091465  0  3.973369  0
C  C90  1  0.38304098  0.38883952  0.24366139  1  0  -0.124956  0  3.702171  0  0  -0.146783  0  3.944656  0  0  -0.151488  0  3.966142  0  -0.069442  0  -0.083857  -0.143523  0  3.929517  0
C  C91  1  0.61695795  0.61115537  0.75634294  1  0  -0.125168  0  3.7022  0  0  -0.146974  0  3.944688  0  0  -0.151684  0  3.96617  0  -0.070021  0  -0.083948  -0.143712  0  3.929549  0
C  C92  1  0.43793311  0.35945007  0.14791891  1  0  -0.003805  0  3.732225  0  0  0.017475  0  3.960261  0  0  0.015246  0  3.981393  0  -0.045782  0  0.001281  0.018763  0  3.945715  0
C  C93  1  0.56206636  0.64054367  0.85208685  1  0  -0.003811  0  3.731913  0  0  0.017375  0  3.960068  0  0  0.015156  0  3.981187  0  -0.045565  0  0.001212  0.018664  0  3.945521  0
C  C94  1  0.35206103  0.47065589  0.08152799  1  0  -0.143102  0  3.706134  0  0  -0.16693  0  3.958162  0  0  -0.17106  0  3.977789  0  -0.137949  0  -0.087065  -0.164045  0  3.945068  0
C  C95  1  0.64794003  0.52933900  0.91847602  1  0  -0.142838  0  3.705916  0  0  -0.166665  0  3.957989  0  0  -0.170797  0  3.977613  0  -0.137653  0  -0.086922  -0.163781  0  3.944896  0
C  C96  1  0.22113382  0.60576357  0.11391256  1  0  0.112776  0  3.761616  0  0  0.08701  0  4.03313  0  0  0.092128  0  4.048277  0  0.564472  0  0.035237  0.083474  0  4.023081  0
C  C97  1  0.77886830  0.39423132  0.88609060  1  0  0.112885  0  3.761546  0  0  0.087118  0  4.033052  0  0  0.092234  0  4.048201  0  0.564314  0  0.035347  0.083582  0  4.023005  0
N  N98  1  0.71587131  0.96210459  0.61954390  1  0  -0.356734  0  3.302532  0  0  -0.269677  0  3.585431  0  0  -0.289621  0  3.599665  0  -1.27312  0  -0.332914  -0.255713  0  3.574973  0
N  N99  1  0.28412811  0.03789838  0.38045598  1  0  -0.35687  0  3.302498  0  0  -0.269794  0  3.58537  0  0  -0.289742  0  3.599608  0  -1.272847  0  -0.333019  -0.255829  0  3.574912  0
N  N100  1  0.27871852  0.42775925  0.77427811  1  0  -0.416873  0  3.311365  0  0  -0.354345  0  3.555337  0  0  -0.377487  0  3.566331  0  -1.27622  0  -0.408866  -0.338974  0  3.547111  0
N  N101  1  0.72128037  0.57224487  0.22571897  1  0  -0.416854  0  3.311442  0  0  -0.354417  0  3.555532  0  0  -0.37756  0  3.566523  0  -1.276276  0  -0.408932  -0.339048  0  3.547304  0
N  N102  1  0.62260632  0.17661598  0.03170897  1  0  -0.441655  0  3.337755  0  0  -0.381711  0  3.588596  0  0  -0.40501  0  3.599296  0  -1.258657  0  -0.424121  -0.365791  0  3.580664  0
N  N103  1  0.37739579  0.82338122  0.96829324  1  0  -0.44168  0  3.337854  0  0  -0.381737  0  3.588703  0  0  -0.405029  0  3.599401  0  -1.258646  0  -0.424114  -0.365817  0  3.580771  0
N  N104  1  0.16774961  0.63523958  0.20556836  1  0  -0.331593  0  3.061389  0  0  -0.302127  0  3.335901  0  0  -0.309285  0  3.345525  0  -1.216688  0  -0.337756  -0.296756  0  3.328821  0
N  N105  1  0.83224983  0.36475878  0.79443480  1  0  -0.331867  0  3.061363  0  0  -0.302401  0  3.335898  0  0  -0.309559  0  3.345521  0  -1.21666  0  -0.337905  -0.297031  0  3.328821  0
O  O106  1  0.07216009  0.67813391  0.49936650  1  0  -0.626546  0  2.06515  0  0  -0.548835  0  2.34117  0  0  -0.57767  0  2.323449  0  -1.146708  0  -0.306277  -0.528375  0  2.353575  0
O  O107  1  0.92784199  0.32186791  0.50063173  1  0  -0.626517  0  2.064983  0  0  -0.548777  0  2.340959  0  0  -0.577625  0  2.323268  0  -1.146881  0  -0.306258  -0.528318  0  2.353363  0
O  O108  1  0.11567341  0.83765355  0.56937478  1  0  -0.634428  0  2.03087  0  0  -0.577671  0  2.26422  0  0  -0.602845  0  2.25305  0  -1.200878  0  -0.305984  -0.560152  0  2.269946  0
O  O109  1  0.88433029  0.16234249  0.43062801  1  0  -0.634371  0  2.030928  0  0  -0.5776  0  2.264237  0  0  -0.602773  0  2.253068  0  -1.200923  0  -0.306008  -0.560086  0  2.269966  0
O  O110  1  0.80664806  0.62615361  0.38516887  1  0  -0.595509  0  1.938969  0  0  -0.551129  0  2.162786  0  0  -0.574331  0  2.154597  0  -1.176327  0  -0.305494  -0.533688  0  2.167597  0
O  O111  1  0.19335137  0.37384705  0.61482990  1  0  -0.595511  0  1.938984  0  0  -0.551131  0  2.162835  0  0  -0.574336  0  2.154647  0  -1.176305  0  -0.305499  -0.53369  0  2.167646  0
O  O112  1  0.71232031  0.70634621  0.53336522  1  0  -0.658252  0  2.067911  0  0  -0.577804  0  2.344132  0  0  -0.608704  0  2.329312  0  -1.167907  0  -0.321518  -0.555258  0  2.353777  0
O  O113  1  0.28767966  0.29365330  0.46663498  1  0  -0.658265  0  2.067988  0  0  -0.577794  0  2.344202  0  0  -0.608697  0  2.329389  0  -1.16795  0  -0.321514  -0.55525  0  2.353849  0
O  O114  1  0.46158113  0.33972477  0.87361469  1  0  -0.56892  0  1.974576  0  0  -0.522433  0  2.203047  0  0  -0.543926  0  2.198335  0  -1.170742  0  -0.2993  -0.507421  0  2.205414  0
O  O115  1  0.53841406  0.66027358  0.12638705  1  0  -0.56899  0  1.974558  0  0  -0.522455  0  2.203035  0  0  -0.543949  0  2.198324  0  -1.170789  0  -0.299297  -0.507445  0  2.2054  0
O  O116  1  0.67319375  0.13269222  0.18317451  1  0  -0.584236  0  1.878379  0  0  -0.54786  0  2.095468  0  0  -0.567593  0  2.088109  0  -1.17311  0  -0.328099  -0.533425  0  2.10005  0
O  O117  1  0.32680731  0.86730267  0.81682606  1  0  -0.584252  0  1.878438  0  0  -0.547885  0  2.095499  0  0  -0.567623  0  2.088139  0  -1.173035  0  -0.328113  -0.533451  0  2.100079  0
O  O118  1  0.79220201  0.97067353  0.39958739  1  0  -0.83151  0  1.875572  0  0  -0.76556  0  2.094896  0  0  -0.78695  0  2.058978  0  -1.27623  0  -0.55791  -0.750788  0  2.121376  0
O  O119  1  0.20779848  0.02932713  0.60041191  1  0  -0.831512  0  1.875683  0  0  -0.765553  0  2.095013  0  0  -0.78694  0  2.0591  0  -1.276226  0  -0.557918  -0.750774  0  2.12151  0
