# generated using pymatgen
data_ZnH5C8N3O2
_symmetry_space_group_name_H-M   'P 1'
_cell_length_a   13.25819972
_cell_length_b   13.37295711
_cell_length_c   27.56828753
_cell_angle_alpha   89.99994338
_cell_angle_beta   90.00011698
_cell_angle_gamma   92.54271704
_symmetry_Int_Tables_number   1
_chemical_formula_structural   ZnH5C8N3O2
_chemical_formula_sum   'Zn16 H80 C128 N48 O32'
_cell_volume   4883.08170932
_cell_formula_units_Z   16
loop_
 _symmetry_equiv_pos_site_id
 _symmetry_equiv_pos_as_xyz
  1  'x, y, z'
loop_
 _atom_site_type_symbol
 _atom_site_label
 _atom_site_symmetry_multiplicity
 _atom_site_fract_x
 _atom_site_fract_y
 _atom_site_fract_z
 _atom_site_occupancy
 _atom_site_pbe_bader_charge
 _atom_site_pbe_bader_spin_density
 _atom_site_pbe_cm5_charge
 _atom_site_pbe_ddec_charge
 _atom_site_pbe_ddec_spin_density
 _atom_site_pbe_ddec_sum_bond_order
 _atom_site_pbe_magmom
Zn  Zn0  1  0.81586505  0.82208587  0.81100705  1  1.248317  0  0.704236  0.681185  0  2.445739  0
Zn  Zn1  1  0.68413435  0.67791650  0.31100643  1  1.248325  0  0.704281  0.681221  0  2.445702  0
Zn  Zn2  1  0.18413327  0.17791423  0.18899329  1  1.248321  0  0.704263  0.681252  0  2.445683  0
Zn  Zn3  1  0.31586630  0.32208509  0.68899282  1  1.248327  0  0.704246  0.681268  0  2.445691  0
Zn  Zn4  1  0.24694632  0.71334462  0.79989584  1  1.237022  0  0.709057  0.673772  0  2.510956  0
Zn  Zn5  1  0.25305480  0.78665557  0.29989705  1  1.236966  0  0.709041  0.67375  0  2.510978  0
Zn  Zn6  1  0.75305420  0.28665398  0.20010413  1  1.237041  0  0.709038  0.673711  0  2.51094  0
Zn  Zn7  1  0.74694424  0.21334378  0.70010364  1  1.236939  0  0.709034  0.673752  0  2.510923  0
Zn  Zn8  1  0.21447856  0.87847055  0.69073594  1  1.23863  0  0.706015  0.676917  0  2.485892  0
Zn  Zn9  1  0.28551905  0.62152909  0.19073618  1  1.238309  0  0.706047  0.676948  0  2.485882  0
Zn  Zn10  1  0.78551979  0.12153029  0.30926439  1  1.23834  0  0.706029  0.676922  0  2.485895  0
Zn  Zn11  1  0.71447996  0.37846951  0.80926379  1  1.238333  0  0.706025  0.676885  0  2.485911  0
Zn  Zn12  1  0.15383294  0.27254364  0.79835936  1  1.233204  0  0.711928  0.676775  0  2.513179  0
Zn  Zn13  1  0.34616798  0.22745847  0.29835959  1  1.233196  0  0.711961  0.676837  0  2.513206  0
Zn  Zn14  1  0.84616767  0.72745721  0.20164025  1  1.233205  0  0.711928  0.676799  0  2.513197  0
Zn  Zn15  1  0.65383257  0.77254088  0.70164038  1  1.233205  0  0.711926  0.676816  0  2.513205  0
H  H16  1  0.02634450  0.74212952  0.84056347  1  0.244683  0  0.146404  0.136283  0  1.000356  0
H  H17  1  0.47365624  0.75787509  0.34056310  1  0.244664  0  0.146447  0.136256  0  1.00035  0
H  H18  1  0.97365540  0.25787208  0.15943650  1  0.244681  0  0.146411  0.136279  0  1.000294  0
H  H19  1  0.52634286  0.24212576  0.65943688  1  0.244666  0  0.146416  0.136201  0  1.000383  0
H  H20  1  0.96718883  0.88623762  0.70846827  1  0.113226  0  0.14515  0.11215  0  0.961741  0
H  H21  1  0.53281069  0.61376046  0.20846863  1  0.113255  0  0.145141  0.112147  0  0.961753  0
H  H22  1  0.03281018  0.11376098  0.29153134  1  0.113234  0  0.145151  0.112164  0  0.961749  0
H  H23  1  0.46718914  0.38623964  0.79153134  1  0.113227  0  0.145151  0.112146  0  0.961736  0
H  H24  1  0.49143841  0.71603297  0.78960334  1  0.166823  0  0.148147  0.117133  0  0.960362  0
H  H25  1  0.00856110  0.78396573  0.28960359  1  0.166818  0  0.148141  0.11713  0  0.960296  0
H  H26  1  0.50856129  0.28396413  0.21039555  1  0.166875  0  0.148159  0.117135  0  0.960318  0
H  H27  1  0.99143801  0.21603511  0.71039638  1  0.166836  0  0.148151  0.117149  0  0.960275  0
H  H28  1  0.44727515  0.86070404  0.65592904  1  0.218408  0  0.147753  0.135729  0  0.990255  0
H  H29  1  0.05272526  0.63929417  0.15592867  1  0.218398  0  0.147748  0.135695  0  0.990293  0
H  H30  1  0.55272776  0.13929755  0.34407202  1  0.218126  0  0.147721  0.135656  0  0.990345  0
H  H31  1  0.94727447  0.36070368  0.84407202  1  0.218262  0  0.147733  0.135689  0  0.99028  0
H  H32  1  0.31245984  0.57013881  0.70316919  1  0.167204  0  0.146819  0.113748  0  0.961661  0
H  H33  1  0.18754163  0.92986156  0.20316955  1  0.167221  0  0.14679  0.11365  0  0.961755  0
H  H34  1  0.68754002  0.42986204  0.29683078  1  0.167201  0  0.146816  0.113712  0  0.961709  0
H  H35  1  0.81246040  0.07013704  0.79683115  1  0.167237  0  0.14681  0.11367  0  0.961756  0
H  H36  1  0.17170003  0.49551649  0.83612263  1  0.247235  0  0.145312  0.135524  0  1.011974  0
H  H37  1  0.32829948  0.00448405  0.33612332  1  0.247223  0  0.145284  0.135456  0  1.01203  0
H  H38  1  0.82830131  0.50448361  0.16387770  1  0.247239  0  0.145291  0.135493  0  1.011985  0
H  H39  1  0.67170035  0.99551605  0.66387774  1  0.247242  0  0.14528  0.135461  0  1.012021  0
H  H40  1  0.29959501  0.09393408  0.65159627  1  0.217873  0  0.149245  0.13561  0  0.984155  0
H  H41  1  0.20040594  0.40606606  0.15159556  1  0.217851  0  0.149238  0.135575  0  0.984196  0
H  H42  1  0.70040475  0.90606453  0.34840406  1  0.217862  0  0.149228  0.135591  0  0.984168  0
H  H43  1  0.79959615  0.59393404  0.84840368  1  0.217861  0  0.149228  0.135593  0  0.984154  0
H  H44  1  0.13871040  0.02821804  0.78014681  1  0.132126  0  0.144993  0.112371  0  0.967501  0
H  H45  1  0.36128743  0.47178410  0.28014695  1  0.132112  0  0.144968  0.112314  0  0.967572  0
H  H46  1  0.86128789  0.97178131  0.21985243  1  0.132123  0  0.14497  0.112323  0  0.967547  0
H  H47  1  0.63871168  0.52821675  0.71985266  1  0.132106  0  0.144964  0.112302  0  0.967575  0
H  H48  1  0.18598184  0.51995468  0.94216766  1  0.093282  0  0.103495  0.111306  0  1.013585  0
H  H49  1  0.31401842  0.98004599  0.44216812  1  0.093281  0  0.103486  0.111287  0  1.013611  0
H  H50  1  0.81401720  0.48004467  0.05783231  1  0.093289  0  0.10348  0.111271  0  1.013611  0
H  H51  1  0.68598210  0.01995261  0.55783149  1  0.093266  0  0.103454  0.111229  0  1.013646  0
H  H52  1  0.20014340  0.49484767  0.03147056  1  0.076128  0  0.104664  0.110502  0  1.002719  0
H  H53  1  0.29985547  0.00515120  0.53147022  1  0.07613  0  0.104635  0.110471  0  1.002742  0
H  H54  1  0.79985571  0.50515318  0.96853050  1  0.076134  0  0.104655  0.110471  0  1.002739  0
H  H55  1  0.70014584  0.99484815  0.46852938  1  0.076118  0  0.104631  0.110452  0  1.002763  0
H  H56  1  0.26471312  0.86986444  0.91730572  1  0.111274  0  0.097315  0.105844  0  1.021319  0
H  H57  1  0.23528703  0.63013627  0.41730590  1  0.111288  0  0.097332  0.105878  0  1.021268  0
H  H58  1  0.73528681  0.13013790  0.08269425  1  0.111286  0  0.097335  0.105866  0  1.02134  0
H  H59  1  0.76471125  0.36986307  0.58269371  1  0.111298  0  0.097334  0.105877  0  1.021309  0
H  H60  1  0.29270444  0.01575223  0.97120083  1  0.05822  0  0.096251  0.094624  0  1.038299  0
H  H61  1  0.20729650  0.48425030  0.47120082  1  0.058235  0  0.096262  0.094639  0  1.038321  0
H  H62  1  0.70729611  0.98424712  0.02879987  1  0.058191  0  0.09625  0.094627  0  1.038276  0
H  H63  1  0.79270340  0.51575130  0.52879952  1  0.058219  0  0.096254  0.094634  0  1.038271  0
H  H64  1  0.29970636  0.99212743  0.06112594  1  0.115665  0  0.096087  0.100974  0  1.032597  0
H  H65  1  0.20029441  0.50787096  0.56112623  1  0.115658  0  0.096086  0.100982  0  1.032538  0
H  H66  1  0.70029416  0.00787117  0.93887403  1  0.115645  0  0.096079  0.10098  0  1.032571  0
H  H67  1  0.79970542  0.49212913  0.43887374  1  0.115652  0  0.096101  0.100996  0  1.032522  0
H  H68  1  0.28243675  0.82214487  0.09607446  1  0.063819  0  0.093405  0.098937  0  1.040478  0
H  H69  1  0.21756583  0.67785721  0.59607469  1  0.063816  0  0.093381  0.098915  0  1.040428  0
H  H70  1  0.71756465  0.17785673  0.90392551  1  0.063835  0  0.093382  0.098897  0  1.040405  0
H  H71  1  0.78243557  0.32214439  0.40392564  1  0.063832  0  0.093404  0.098931  0  1.040437  0
H  H72  1  0.03228363  0.31041049  0.96454045  1  0.083668  0  0.108545  0.115704  0  0.990723  0
H  H73  1  0.46771495  0.18959056  0.46454118  1  0.083688  0  0.108566  0.115682  0  0.990756  0
H  H74  1  0.96771689  0.68958812  0.03546025  1  0.083649  0  0.108536  0.115703  0  0.990701  0
H  H75  1  0.53228494  0.81041104  0.53546024  1  0.083687  0  0.108538  0.115677  0  0.99073  0
H  H76  1  0.04977570  0.26881417  0.05203910  1  0.129619  0  0.108113  0.117877  0  0.99916  0
H  H77  1  0.45022559  0.23118616  0.55203808  1  0.129717  0  0.108098  0.117878  0  0.999161  0
H  H78  1  0.95022397  0.73118219  0.94796159  1  0.12973  0  0.108131  0.117895  0  0.999189  0
H  H79  1  0.54977372  0.76881918  0.44796189  1  0.12974  0  0.108121  0.117893  0  0.999146  0
H  H80  1  0.34791204  0.23011577  0.89302656  1  0.098708  0  0.093834  0.101635  0  1.037571  0
H  H81  1  0.15209148  0.26988466  0.39302587  1  0.098698  0  0.093826  0.101613  0  1.03759  0
H  H82  1  0.65209087  0.76988582  0.10697304  1  0.098725  0  0.093838  0.101632  0  1.037529  0
H  H83  1  0.84790831  0.73011469  0.60697301  1  0.098723  0  0.093833  0.101628  0  1.037529  0
H  H84  1  0.51285821  0.18115951  0.92469094  1  0.097313  0  0.097714  0.09948  0  1.016179  0
H  H85  1  0.98714052  0.31884007  0.42468982  1  0.097287  0  0.097697  0.099457  0  1.016158  0
H  H86  1  0.48714237  0.81884058  0.07530903  1  0.097322  0  0.097727  0.09952  0  1.016155  0
H  H87  1  0.01285858  0.68116078  0.57530907  1  0.097309  0  0.097723  0.099501  0  1.016204  0
H  H88  1  0.53444432  0.14882696  0.01303694  1  0.079809  0  0.096618  0.096116  0  1.038503  0
H  H89  1  0.96555567  0.35117340  0.51303805  1  0.079819  0  0.09661  0.096104  0  1.038474  0
H  H90  1  0.46555633  0.85117463  0.98696231  1  0.079802  0  0.096627  0.096142  0  1.038437  0
H  H91  1  0.03444488  0.64882595  0.48696265  1  0.079804  0  0.096634  0.096142  0  1.03842  0
H  H92  1  0.39129091  0.16598507  0.06944915  1  0.10395  0  0.099347  0.113594  0  1.032735  0
H  H93  1  0.10871045  0.33401522  0.56944993  1  0.103925  0  0.099379  0.113601  0  1.032686  0
H  H94  1  0.60870889  0.83401428  0.93055155  1  0.10396  0  0.09935  0.113601  0  1.032759  0
H  H95  1  0.89128872  0.66598712  0.43055041  1  0.10392  0  0.099344  0.113622  0  1.032664  0
C  C96  1  0.03465016  0.77626388  0.80499289  1  0.958288  0  0.155307  0.166149  0  3.901566  0
C  C97  1  0.46535020  0.72373555  0.30499361  1  0.95828  0  0.155368  0.166313  0  3.901358  0
C  C98  1  0.96535042  0.22373622  0.19500708  1  0.958289  0  0.155344  0.166247  0  3.901458  0
C  C99  1  0.53464884  0.27626380  0.69500636  1  0.958263  0  0.155403  0.166426  0  3.901308  0
C  C100  1  0.00467489  0.84926893  0.73805653  1  0.996305  0  0.147397  0.142027  0  3.975003  0
C  C101  1  0.49532453  0.65073287  0.23805586  1  0.996295  0  0.147386  0.142001  0  3.975034  0
C  C102  1  0.99532491  0.15073042  0.26194308  1  0.996313  0  0.14741  0.142026  0  3.975064  0
C  C103  1  0.50467536  0.34926873  0.76194375  1  0.996354  0  0.147428  0.142091  0  3.97496  0
C  C104  1  0.45703534  0.75236587  0.75893909  1  0.986348  0  0.151052  0.142718  0  3.969234  0
C  C105  1  0.04296404  0.74763290  0.25893940  1  0.986395  0  0.151062  0.142731  0  3.969123  0
C  C106  1  0.54296295  0.24763348  0.24106124  1  0.986343  0  0.151095  0.142778  0  3.969065  0
C  C107  1  0.95703504  0.25236720  0.74106094  1  0.986375  0  0.151083  0.142748  0  3.969141  0
C  C108  1  0.43438142  0.82583151  0.69111947  1  0.971283  0  0.159705  0.16597  0  3.89305  0
C  C109  1  0.06561846  0.67416814  0.19111947  1  0.971299  0  0.159704  0.165967  0  3.89303  0
C  C110  1  0.56561835  0.17416710  0.30888050  1  0.971535  0  0.159661  0.165927  0  3.893147  0
C  C111  1  0.93438144  0.32583346  0.80888086  1  0.971377  0  0.159687  0.165941  0  3.893023  0
C  C112  1  0.27801432  0.52861854  0.73317830  1  0.956158  0  0.152136  0.145867  0  3.964964  0
C  C113  1  0.22198429  0.97138252  0.23317867  1  0.956167  0  0.152153  0.14599  0  3.965063  0
C  C114  1  0.72198479  0.47138230  0.26682203  1  0.956151  0  0.152074  0.14582  0  3.965094  0
C  C115  1  0.77801626  0.02861683  0.76682203  1  0.95617  0  0.152121  0.145896  0  3.965109  0
C  C116  1  0.20693732  0.49065897  0.80068555  1  0.96647  0  0.156231  0.161301  0  3.903148  0
C  C117  1  0.29306427  0.00934089  0.30068548  1  0.966408  0  0.156231  0.161357  0  3.903259  0
C  C118  1  0.79306474  0.50934038  0.19931514  1  0.966378  0  0.156221  0.161364  0  3.903115  0
C  C119  1  0.70693553  0.99065846  0.69931485  1  0.96625  0  0.156228  0.161357  0  3.903131  0
C  C120  1  0.26030506  0.10191831  0.68584829  1  0.990351  0  0.161475  0.170828  0  3.889208  0
C  C121  1  0.23969604  0.39808177  0.18584762  1  0.990337  0  0.161462  0.170836  0  3.88929  0
C  C122  1  0.73969474  0.89808104  0.31415205  1  0.990127  0  0.161482  0.170834  0  3.889311  0
C  C123  1  0.76030530  0.60191833  0.81415199  1  0.990311  0  0.1615  0.170876  0  3.889268  0
C  C124  1  0.17842535  0.06785288  0.75102278  1  0.996531  0  0.149945  0.142694  0  3.967898  0
C  C125  1  0.32157531  0.43214782  0.25102326  1  0.996506  0  0.149917  0.142684  0  3.96794  0
C  C126  1  0.82157448  0.93214722  0.24897683  1  0.996518  0  0.149937  0.142763  0  3.967908  0
C  C127  1  0.67842524  0.56785153  0.74897671  1  0.996512  0  0.149929  0.142717  0  3.967918  0
C  C128  1  0.22346293  0.68465747  0.89140570  1  1.513842  0  0.200486  0.570524  0  4.1857  0
C  C129  1  0.27653790  0.81534405  0.39140583  1  1.513919  0  0.20047  0.570552  0  4.185576  0
C  C130  1  0.77653618  0.31534338  0.10859464  1  1.513874  0  0.200474  0.570505  0  4.185688  0
C  C131  1  0.72346420  0.18465605  0.60859414  1  1.513833  0  0.200487  0.570578  0  4.185662  0
C  C132  1  0.23077812  0.67622597  0.94527194  1  -0.035508  0  -0.008302  -0.060695  0  3.942591  0
C  C133  1  0.26922137  0.82377394  0.44527206  1  -0.035403  0  -0.008231  -0.060555  0  3.942479  0
C  C134  1  0.76922014  0.32377263  0.05472839  1  -0.03543  0  -0.008298  -0.060656  0  3.942558  0
C  C135  1  0.73077922  0.17622616  0.55472827  1  -0.035431  0  -0.00826  -0.06066  0  3.942546  0
C  C136  1  0.20900985  0.58279328  0.96554597  1  0.049976  0  -0.08444  -0.098972  0  3.985735  0
C  C137  1  0.29098825  0.91720735  0.46554607  1  0.049952  0  -0.084425  -0.098993  0  3.985753  0
C  C138  1  0.79098772  0.41720682  0.03445436  1  0.050001  0  -0.084405  -0.09893  0  3.985675  0
C  C139  1  0.70901155  0.08279200  0.53445426  1  0.049983  0  -0.084379  -0.098835  0  3.985717  0
C  C140  1  0.21632031  0.56876928  0.01586857  1  -0.007427  0  -0.082048  -0.089833  0  3.98877  0
C  C141  1  0.28367662  0.93123219  0.51586874  1  -0.007152  0  -0.082026  -0.089808  0  3.988894  0
C  C142  1  0.78367578  0.43123156  0.98413141  1  -0.007436  0  -0.082016  -0.089752  0  3.988806  0
C  C143  1  0.71632242  0.06876716  0.48413160  1  -0.007179  0  -0.081985  -0.089753  0  3.988796  0
C  C144  1  0.24406966  0.64782711  0.04637862  1  -0.070348  0  -0.01238  -0.071787  0  3.942526  0
C  C145  1  0.25593114  0.85217356  0.54637880  1  -0.070644  0  -0.012367  -0.071743  0  3.94275  0
C  C146  1  0.75592945  0.35217373  0.95362063  1  -0.070349  0  -0.012382  -0.071821  0  3.942618  0
C  C147  1  0.74406869  0.14782654  0.45362117  1  -0.070576  0  -0.012455  -0.071911  0  3.942496  0
C  C148  1  0.26088512  0.74664767  0.02714926  1  0.010812  0  -0.000336  0.059238  0  3.949398  0
C  C149  1  0.23911557  0.75335228  0.52714984  1  0.010832  0  -0.000309  0.059199  0  3.949446  0
C  C150  1  0.73911471  0.25335242  0.97284999  1  0.010826  0  -0.000316  0.059235  0  3.94941  0
C  C151  1  0.76088505  0.24664857  0.47285050  1  0.010845  0  -0.000297  0.059297  0  3.949327  0
C  C152  1  0.25492721  0.76083075  0.97544900  1  -0.018245  0  -0.001887  0.052278  0  3.960764  0
C  C153  1  0.24507401  0.73917135  0.47544913  1  -0.018347  0  -0.001988  0.052189  0  3.960787  0
C  C154  1  0.74507341  0.23917009  0.02455061  1  -0.018319  0  -0.001939  0.052232  0  3.960779  0
C  C155  1  0.75492658  0.26082875  0.52455120  1  -0.018355  0  -0.002001  0.052147  0  3.960772  0
C  C156  1  0.26755900  0.85944865  0.95643982  1  -0.103243  0  -0.095238  -0.137447  0  3.986443  0
C  C157  1  0.23244207  0.64055199  0.45644035  1  -0.103221  0  -0.095179  -0.137397  0  3.986333  0
C  C158  1  0.73244001  0.14054995  0.04355979  1  -0.103245  0  -0.095212  -0.137425  0  3.986513  0
C  C159  1  0.76755851  0.35944810  0.54355962  1  -0.103236  0  -0.095196  -0.1374  0  3.986376  0
C  C160  1  0.28346708  0.94083764  0.98659475  1  -0.027444  0  -0.09244  -0.078098  0  4.021434  0
C  C161  1  0.21653254  0.55916145  0.48659494  1  -0.027468  0  -0.092489  -0.078182  0  4.021491  0
C  C162  1  0.71653193  0.05916096  0.01340559  1  -0.027479  0  -0.092446  -0.07808  0  4.021391  0
C  C163  1  0.78346729  0.44083865  0.51340503  1  -0.02748  0  -0.092499  -0.078183  0  4.021443  0
C  C164  1  0.28808147  0.92733753  0.03739542  1  -0.013774  0  -0.092838  -0.079771  0  4.013895  0
C  C165  1  0.21191933  0.57266390  0.53739533  1  -0.013759  0  -0.092847  -0.079782  0  4.013874  0
C  C166  1  0.71191833  0.07266182  0.96260491  1  -0.013773  0  -0.092888  -0.079892  0  4.013919  0
C  C167  1  0.78808129  0.42733695  0.46260536  1  -0.013773  0  -0.09287  -0.079832  0  4.01387  0
C  C168  1  0.27767592  0.83256277  0.05700565  1  -0.103341  0  -0.098384  -0.141792  0  3.996514  0
C  C169  1  0.22232411  0.66743638  0.55700589  1  -0.103375  0  -0.098358  -0.141746  0  3.996515  0
C  C170  1  0.72232535  0.16743584  0.94299468  1  -0.103344  0  -0.098363  -0.141712  0  3.996534  0
C  C171  1  0.77767576  0.33256446  0.44299444  1  -0.103362  0  -0.098341  -0.141708  0  3.996456  0
C  C172  1  0.25102413  0.62507377  0.09921941  1  1.520222  0  0.199489  0.569877  0  4.181998  0
C  C173  1  0.24897689  0.87492680  0.59921849  1  1.520217  0  0.199463  0.569851  0  4.182031  0
C  C174  1  0.74897494  0.37492633  0.90078056  1  1.520086  0  0.199434  0.569808  0  4.182115  0
C  C175  1  0.75102520  0.12507330  0.40078039  1  1.520114  0  0.199462  0.569797  0  4.182065  0
C  C176  1  0.16019690  0.28313482  0.89316793  1  1.527195  0  0.201673  0.571623  0  4.192949  0
C  C177  1  0.33980216  0.21686710  0.39316926  1  1.527121  0  0.201624  0.571579  0  4.193133  0
C  C178  1  0.83980447  0.71686603  0.10683204  1  1.527188  0  0.201637  0.571552  0  4.192974  0
C  C179  1  0.66019619  0.78313374  0.60683144  1  1.527179  0  0.201708  0.571683  0  4.19294  0
C  C180  1  0.17957802  0.26272736  0.94565942  1  -0.015265  0  -0.005896  -0.054819  0  3.930252  0
C  C181  1  0.32042189  0.23727147  0.44565890  1  -0.015292  0  -0.005843  -0.054686  0  3.930119  0
C  C182  1  0.82042093  0.73726974  0.05434092  1  -0.015027  0  -0.005824  -0.05468  0  3.930304  0
C  C183  1  0.67957954  0.76273087  0.55434107  1  -0.015295  0  -0.005837  -0.05468  0  3.929997  0
C  C184  1  0.10215318  0.28030309  0.97792652  1  -0.0122  0  -0.083405  -0.10216  0  3.994341  0
C  C185  1  0.39784625  0.21969867  0.47792718  1  -0.01218  0  -0.083431  -0.102186  0  3.994512  0
C  C186  1  0.89784659  0.71969551  0.02207345  1  -0.012182  0  -0.083411  -0.102193  0  3.994349  0
C  C187  1  0.60215358  0.78030142  0.52207352  1  -0.012171  0  -0.083423  -0.102174  0  3.99437  0
C  C188  1  0.11228526  0.25758110  0.02727989  1  -0.066488  0  -0.080073  -0.082943  0  3.981041  0
C  C189  1  0.38771533  0.24242301  0.52727916  1  -0.066633  0  -0.080031  -0.082936  0  3.981122  0
C  C190  1  0.88771687  0.74241975  0.97271972  1  -0.066667  0  -0.080054  -0.08293  0  3.98104  0
C  C191  1  0.61228450  0.75757708  0.47272081  1  -0.066626  0  -0.080065  -0.08299  0  3.98109  0
C  C192  1  0.20072521  0.22013417  0.04571924  1  -0.01023  0  -0.014087  -0.081272  0  3.933358  0
C  C193  1  0.29927686  0.27986766  0.54571878  1  -0.010269  0  -0.014089  -0.081242  0  3.933489  0
C  C194  1  0.79927694  0.77986743  0.95428109  1  -0.010234  0  -0.014116  -0.081254  0  3.933405  0
C  C195  1  0.70072293  0.72013168  0.45428047  1  -0.010251  0  -0.014111  -0.081274  0  3.933504  0
C  C196  1  0.28554250  0.20814546  0.01414787  1  -0.007649  0  0.000844  0.058998  0  3.941582  0
C  C197  1  0.21446095  0.29185644  0.51414876  1  -0.007675  0  0.000857  0.059065  0  3.941565  0
C  C198  1  0.71445893  0.79185688  0.98585102  1  -0.007658  0  0.00092  0.059077  0  3.941526  0
C  C199  1  0.78554042  0.70814441  0.48585084  1  -0.007654  0  0.000854  0.059018  0  3.941567  0
C  C200  1  0.27354455  0.22788015  0.96295579  1  -0.068516  0  -0.00333  0.048884  0  3.950219  0
C  C201  1  0.22645392  0.27211865  0.46295662  1  -0.068498  0  -0.003303  0.048836  0  3.950082  0
C  C202  1  0.72645672  0.77211845  0.03704345  1  -0.068675  0  -0.003366  0.048744  0  3.950269  0
C  C203  1  0.77354748  0.72788294  0.53704335  1  -0.06849  0  -0.003315  0.048823  0  3.95007  0
C  C204  1  0.35739164  0.21635018  0.93160605  1  -0.053397  0  -0.09874  -0.140212  0  3.99884  0
C  C205  1  0.14260975  0.28364943  0.43160606  1  -0.053403  0  -0.098777  -0.140244  0  3.998904  0
C  C206  1  0.64260888  0.78364842  0.06839284  1  -0.053592  0  -0.098773  -0.140172  0  3.99874  0
C  C207  1  0.85739159  0.71635067  0.56839318  1  -0.053398  0  -0.098758  -0.140176  0  3.998866  0
C  C208  1  0.44914824  0.18829285  0.94923795  1  -0.106144  0  -0.092941  -0.078879  0  4.028386  0
C  C209  1  0.05085247  0.31170673  0.44923750  1  -0.10608  0  -0.092919  -0.078857  0  4.02826  0
C  C210  1  0.55085149  0.81170501  0.05076202  1  -0.10596  0  -0.09296  -0.078992  0  4.028448  0
C  C211  1  0.94914808  0.68829262  0.55076211  1  -0.10615  0  -0.092932  -0.078951  0  4.028513  0
C  C212  1  0.46145672  0.17042870  0.99929402  1  -0.046176  0  -0.08778  -0.065404  0  4.001943  0
C  C213  1  0.03854201  0.32957228  0.49929465  1  -0.046166  0  -0.087789  -0.065363  0  4.001828  0
C  C214  1  0.53854232  0.82957065  0.00070631  1  -0.046205  0  -0.087797  -0.065377  0  4.001895  0
C  C215  1  0.96145851  0.67042632  0.50070605  1  -0.046225  0  -0.087835  -0.065372  0  4.001822  0
C  C216  1  0.38175493  0.18011588  0.03090195  1  -0.010461  0  -0.094466  -0.140262  0  3.972871  0
C  C217  1  0.11824555  0.31988523  0.53090238  1  -0.010412  0  -0.094497  -0.140312  0  3.972752  0
C  C218  1  0.61824490  0.81988422  0.96909802  1  -0.010423  0  -0.094484  -0.140301  0  3.972887  0
C  C219  1  0.88175586  0.68011636  0.46909795  1  -0.010362  0  -0.094452  -0.140323  0  3.972769  0
C  C220  1  0.19984975  0.19493857  0.09849111  1  1.5035  0  0.195895  0.55965  0  4.171536  0
C  C221  1  0.30014951  0.30506241  0.59849136  1  1.50338  0  0.195924  0.559704  0  4.171481  0
C  C222  1  0.80014936  0.80506227  0.90150886  1  1.503397  0  0.195784  0.559563  0  4.171691  0
C  C223  1  0.69985108  0.69493769  0.40150824  1  1.503339  0  0.195861  0.559633  0  4.171641  0
N  N224  1  0.96006119  0.81920077  0.78006613  1  -1.242651  0  -0.352832  -0.327558  0  3.529844  0
N  N225  1  0.53993870  0.68079867  0.28006574  1  -1.24265  0  -0.352818  -0.327566  0  3.529814  0
N  N226  1  0.03993861  0.18079858  0.21993420  1  -1.242692  0  -0.352839  -0.327608  0  3.529919  0
N  N227  1  0.46006107  0.31919993  0.71993460  1  -1.242655  0  -0.352862  -0.327691  0  3.52993  0
N  N228  1  0.10180337  0.82716218  0.73683416  1  -0.793059  0  -0.25238  -0.193809  0  3.498779  0
N  N229  1  0.39819686  0.67284112  0.23683339  1  -0.793056  0  -0.252415  -0.193868  0  3.498777  0
N  N230  1  0.89819646  0.17283792  0.26316581  1  -0.793063  0  -0.252416  -0.193855  0  3.498832  0
N  N231  1  0.60180297  0.32715898  0.76316658  1  -0.793102  0  -0.252395  -0.193818  0  3.498685  0
N  N232  1  0.12068784  0.78026013  0.78001133  1  -0.805563  0  -0.260179  -0.196546  0  3.539368  0
N  N233  1  0.37931232  0.71973710  0.28001160  1  -0.805556  0  -0.260266  -0.196626  0  3.539378  0
N  N234  1  0.87931189  0.21973772  0.21998828  1  -0.805543  0  -0.260207  -0.196583  0  3.539421  0
N  N235  1  0.62068751  0.28026299  0.71998801  1  -0.805546  0  -0.260277  -0.196692  0  3.539342  0
N  N236  1  0.50625468  0.78371859  0.71834500  1  -1.27488  0  -0.357021  -0.317806  0  3.577825  0
N  N237  1  0.99374494  0.71628097  0.21834539  1  -1.274886  0  -0.356994  -0.317725  0  3.577782  0
N  N238  1  0.49374515  0.21628151  0.28165533  1  -1.274911  0  -0.35701  -0.317784  0  3.577804  0
N  N239  1  0.00625416  0.28371988  0.78165531  1  -1.274855  0  -0.35701  -0.317776  0  3.577732  0
N  N240  1  0.34524397  0.81976005  0.71358220  1  -0.781271  0  -0.251647  -0.189504  0  3.507852  0
N  N241  1  0.15475610  0.68024180  0.21358228  1  -0.780971  0  -0.251644  -0.189476  0  3.507791  0
N  N242  1  0.65475504  0.18023855  0.28641777  1  -0.780984  0  -0.251652  -0.189515  0  3.507845  0
N  N243  1  0.84524386  0.31976130  0.78641769  1  -0.781004  0  -0.251644  -0.18945  0  3.507877  0
N  N244  1  0.35983616  0.77275853  0.75713371  1  -0.799311  0  -0.255134  -0.192302  0  3.520224  0
N  N245  1  0.14016403  0.72724174  0.25713411  1  -0.799372  0  -0.255162  -0.192382  0  3.520199  0
N  N246  1  0.64016292  0.22724156  0.24286626  1  -0.799315  0  -0.255117  -0.192242  0  3.520028  0
N  N247  1  0.85983504  0.27275836  0.74286658  1  -0.799296  0  -0.255128  -0.192344  0  3.520268  0
N  N248  1  0.24407716  0.56978998  0.77463207  1  -1.265461  0  -0.354513  -0.315057  0  3.55408  0
N  N249  1  0.25592458  0.93020951  0.27463212  1  -1.265388  0  -0.354533  -0.315109  0  3.5541  0
N  N250  1  0.75592339  0.43020937  0.22536827  1  -1.265347  0  -0.354449  -0.315037  0  3.553992  0
N  N251  1  0.74407748  0.06978985  0.72536821  1  -1.265362  0  -0.354481  -0.315007  0  3.553952  0
N  N252  1  0.21802232  0.40524669  0.77687634  1  -0.803699  0  -0.256953  -0.195521  0  3.519297  0
N  N253  1  0.28197773  0.09475471  0.27687622  1  -0.803691  0  -0.256948  -0.195564  0  3.519265  0
N  N254  1  0.78197751  0.59475341  0.22312400  1  -0.803684  0  -0.256964  -0.19561  0  3.519309  0
N  N255  1  0.71802210  0.90524539  0.72312412  1  -0.80357  0  -0.256945  -0.195561  0  3.519239  0
N  N256  1  0.26315711  0.42949429  0.73328351  1  -0.777311  0  -0.251004  -0.18629  0  3.521524  0
N  N257  1  0.23684269  0.07050570  0.23328336  1  -0.777332  0  -0.250952  -0.1862  0  3.521529  0
N  N258  1  0.73684272  0.57050581  0.26671682  1  -0.777338  0  -0.250966  -0.186157  0  3.521554  0
N  N259  1  0.76315711  0.92949365  0.76671698  1  -0.777349  0  -0.250986  -0.186216  0  3.521603  0
N  N260  1  0.21607792  0.02463525  0.71092928  1  -1.26361  0  -0.355432  -0.318136  0  3.567487  0
N  N261  1  0.28392254  0.47536478  0.21092934  1  -1.263553  0  -0.355389  -0.318073  0  3.567427  0
N  N262  1  0.78392116  0.97536485  0.28907033  1  -1.263572  0  -0.355404  -0.3181  0  3.56737  0
N  N263  1  0.71607805  0.52463532  0.78907099  1  -1.263568  0  -0.355403  -0.318095  0  3.567438  0
N  N264  1  0.19742939  0.16646047  0.75087259  1  -0.807003  0  -0.253913  -0.189547  0  3.525511  0
N  N265  1  0.30257199  0.33353948  0.25087274  1  -0.807003  0  -0.253902  -0.189549  0  3.525582  0
N  N266  1  0.80257044  0.83353962  0.24912702  1  -0.807002  0  -0.253911  -0.189676  0  3.525588  0
N  N267  1  0.69742931  0.66645987  0.74912723  1  -0.806974  0  -0.253861  -0.189496  0  3.525584  0
N  N268  1  0.24970758  0.18814461  0.70901074  1  -0.780985  0  -0.252715  -0.188321  0  3.511904  0
N  N269  1  0.25029139  0.31185617  0.20901158  1  -0.780951  0  -0.252712  -0.188312  0  3.512035  0
N  N270  1  0.75029153  0.81185624  0.29098886  1  -0.780785  0  -0.252674  -0.18821  0  3.512023  0
N  N271  1  0.74970841  0.68814318  0.79098912  1  -0.780974  0  -0.252726  -0.188362  0  3.512062  0
O  O272  1  0.26472724  0.14156545  0.11922150  1  -1.167352  0  -0.32584  -0.544838  0  2.148415  0
O  O273  1  0.23527285  0.35843550  0.61922202  1  -1.167244  0  -0.325889  -0.544891  0  2.148433  0
O  O274  1  0.73527249  0.85843240  0.88077738  1  -1.167264  0  -0.325765  -0.544739  0  2.148452  0
O  O275  1  0.76472704  0.64156610  0.38077650  1  -1.167225  0  -0.325822  -0.544788  0  2.14838  0
O  O276  1  0.12787412  0.22959418  0.12438060  1  -1.168853  0  -0.332987  -0.550467  0  2.261611  0
O  O277  1  0.37212590  0.27040451  0.62438021  1  -1.168843  0  -0.332956  -0.550463  0  2.261561  0
O  O278  1  0.87212338  0.77040442  0.87561901  1  -1.168832  0  -0.33295  -0.550471  0  2.261684  0
O  O279  1  0.62787620  0.72959559  0.37561904  1  -1.168841  0  -0.332955  -0.550457  0  2.261643  0
O  O280  1  0.29640550  0.73100987  0.86757508  1  -1.160485  0  -0.344118  -0.546211  0  2.227945  0
O  O281  1  0.20359450  0.76899244  0.36757661  1  -1.160445  0  -0.344073  -0.546215  0  2.227979  0
O  O282  1  0.70359285  0.26899098  0.13242417  1  -1.160504  0  -0.344082  -0.546192  0  2.227978  0
O  O283  1  0.79640464  0.23100916  0.63242409  1  -1.160378  0  -0.344093  -0.546228  0  2.227966  0
O  O284  1  0.14820315  0.64493846  0.86969921  1  -1.187928  0  -0.317777  -0.545568  0  2.147069  0
O  O285  1  0.35179680  0.85506234  0.36969903  1  -1.187966  0  -0.317787  -0.545581  0  2.14701  0
O  O286  1  0.85179593  0.35506164  0.13030077  1  -1.187915  0  -0.317756  -0.545542  0  2.147053  0
O  O287  1  0.64820381  0.14493850  0.63030022  1  -1.187912  0  -0.317795  -0.545592  0  2.147082  0
O  O288  1  0.11466667  0.35935029  0.88065786  1  -1.180183  0  -0.317297  -0.549789  0  2.127311  0
O  O289  1  0.38533536  0.14065167  0.38065854  1  -1.18012  0  -0.317362  -0.549863  0  2.127385  0
O  O290  1  0.88533532  0.64064757  0.11934283  1  -1.180238  0  -0.317324  -0.549817  0  2.127271  0
O  O291  1  0.61466372  0.85934843  0.61934324  1  -1.180189  0  -0.31739  -0.549905  0  2.12734  0
O  O292  1  0.19046397  0.21810747  0.86157804  1  -1.154795  0  -0.346154  -0.550172  0  2.279519  0
O  O293  1  0.30953552  0.28189002  0.36157822  1  -1.154784  0  -0.34611  -0.550132  0  2.279594  0
O  O294  1  0.80953655  0.78189113  0.13842121  1  -1.154772  0  -0.346127  -0.550121  0  2.279573  0
O  O295  1  0.69046349  0.71810858  0.63842103  1  -1.154785  0  -0.346151  -0.550197  0  2.279505  0
O  O296  1  0.32129346  0.67112744  0.12504694  1  -1.154004  0  -0.34206  -0.545514  0  2.253923  0
O  O297  1  0.17870616  0.82887307  0.62504597  1  -1.15397  0  -0.342045  -0.545512  0  2.253863  0
O  O298  1  0.67870555  0.32887116  0.87495376  1  -1.153906  0  -0.342012  -0.545453  0  2.253898  0
O  O299  1  0.82129449  0.17112852  0.37495400  1  -1.153901  0  -0.342011  -0.545459  0  2.253999  0
O  O300  1  0.18962518  0.56185584  0.11823073  1  -1.179193  0  -0.323164  -0.555197  0  2.139561  0
O  O301  1  0.31037665  0.93814394  0.61823020  1  -1.179235  0  -0.323177  -0.555208  0  2.139488  0
O  O302  1  0.81037386  0.43814350  0.88176924  1  -1.179194  0  -0.323163  -0.555183  0  2.139637  0
O  O303  1  0.68962541  0.06185541  0.38176904  1  -1.179219  0  -0.323154  -0.555146  0  2.139553  0
