# generated using pymatgen
data_CdH9C6SN2O7
_symmetry_space_group_name_H-M   'P 1'
_cell_length_a   7.81028647
_cell_length_b   9.87198608
_cell_length_c   13.47700000
_cell_angle_alpha   92.18428369
_cell_angle_beta   90.00000000
_cell_angle_gamma   90.00000000
_symmetry_Int_Tables_number   1
_chemical_formula_structural   CdH9C6SN2O7
_chemical_formula_sum   'Cd4 H36 C24 S4 N8 O28'
_cell_volume   1038.36264754
_cell_formula_units_Z   4
loop_
 _symmetry_equiv_pos_site_id
 _symmetry_equiv_pos_as_xyz
  1  'x, y, z'
loop_
 _atom_site_type_symbol
 _atom_site_label
 _atom_site_symmetry_multiplicity
 _atom_site_fract_x
 _atom_site_fract_y
 _atom_site_fract_z
 _atom_site_occupancy
 _atom_site_hle17_bader_spin_density
 _atom_site_hle17_ddec_charge
 _atom_site_hle17_ddec_spin_density
 _atom_site_hle17_ddec_sum_bond_order
 _atom_site_hle17_magmom
 _atom_site_hse06_10hf_bader_spin_density
 _atom_site_hse06_10hf_ddec_charge
 _atom_site_hse06_10hf_ddec_spin_density
 _atom_site_hse06_10hf_ddec_sum_bond_order
 _atom_site_hse06_10hf_magmom
 _atom_site_hse06_bader_spin_density
 _atom_site_hse06_ddec_charge
 _atom_site_hse06_ddec_spin_density
 _atom_site_hse06_ddec_sum_bond_order
 _atom_site_hse06_magmom
 _atom_site_pbe_bader_charge
 _atom_site_pbe_bader_spin_density
 _atom_site_pbe_cm5_charge
 _atom_site_pbe_ddec_charge
 _atom_site_pbe_ddec_spin_density
 _atom_site_pbe_ddec_sum_bond_order
 _atom_site_pbe_magmom
Cd  Cd0  1  0.18233262  0.10677546  0.85812533  1  0  1.26271  0  1.588242  0  0  1.086759  0  2.031817  0  0  1.138089  0  1.976627  0  1.339852  0  0.795356  1.049491  0  2.0701  0
Cd  Cd1  1  0.68233349  0.89322523  0.64187602  1  0  1.26269  0  1.588295  0  0  1.086745  0  2.031869  0  0  1.138075  0  1.976676  0  1.339855  0  0.795363  1.04948  0  2.070152  0
Cd  Cd2  1  0.81766527  0.89322421  0.14187599  1  0  1.262679  0  1.588294  0  0  1.086744  0  2.031871  0  0  1.13807  0  1.976681  0  1.339887  0  0.795354  1.049477  0  2.070155  0
Cd  Cd3  1  0.31766568  0.10677546  0.35812459  1  0  1.262697  0  1.588263  0  0  1.086747  0  2.031853  0  0  1.138075  0  1.976662  0  1.339886  0  0.795358  1.04948  0  2.070137  0
H  H4  1  0.29506344  0.38536259  0.79781003  1  0  0.081346  0  0.978193  0  0  0.088965  0  1.046498  0  0  0.090863  0  1.045387  0  0.122115  0  0.10955  0.087475  0  1.047448  0
H  H5  1  0.79506559  0.61463506  0.70219050  1  0  0.081362  0  0.97813  0  0  0.088966  0  1.046456  0  0  0.090864  0  1.045344  0  0.122109  0  0.109559  0.087478  0  1.047403  0
H  H6  1  0.70493573  0.61463404  0.20219047  1  0  0.081336  0  0.97824  0  0  0.088976  0  1.046525  0  0  0.090874  0  1.045416  0  0.122106  0  0.10955  0.087486  0  1.047475  0
H  H7  1  0.20493743  0.38536462  0.29780860  1  0  0.081356  0  0.978192  0  0  0.088975  0  1.046493  0  0  0.090873  0  1.045386  0  0.122127  0  0.10956  0.087487  0  1.047441  0
H  H8  1  0.21311510  0.63372918  0.80287717  1  0  0.117571  0  0.940965  0  0  0.125784  0  1.001096  0  0  0.128905  0  1.000241  0  0.10354  0  0.110698  0.123557  0  1.001892  0
H  H9  1  0.71311725  0.36626847  0.69712039  1  0  0.117623  0  0.940868  0  0  0.125813  0  1.001024  0  0  0.128934  0  1.000169  0  0.103521  0  0.110714  0.123586  0  1.00182  0
H  H10  1  0.78688535  0.36626847  0.19712113  1  0  0.117602  0  0.940894  0  0  0.125814  0  1.001026  0  0  0.128937  0  1.000168  0  0.103527  0  0.110713  0.123587  0  1.001824  0
H  H11  1  0.28688832  0.63373020  0.30287794  1  0  0.117581  0  0.940982  0  0  0.125794  0  1.001112  0  0  0.128917  0  1.000253  0  0.103557  0  0.110692  0.123565  0  1.001912  0
H  H12  1  0.92958178  0.69979328  0.87468374  1  0  0.122135  0  0.961103  0  0  0.132347  0  1.019776  0  0  0.135601  0  1.017146  0  0.149555  0  0.114271  0.129857  0  1.021957  0
H  H13  1  0.42958347  0.30020944  0.62531173  1  0  0.12217  0  0.961059  0  0  0.132385  0  1.019712  0  0  0.13564  0  1.017078  0  0.149576  0  0.11429  0.129896  0  1.021893  0
H  H14  1  0.07041867  0.30020741  0.12531390  1  0  0.122183  0  0.961052  0  0  0.132391  0  1.019715  0  0  0.135645  0  1.017083  0  0.149562  0  0.114284  0.129902  0  1.021895  0
H  H15  1  0.57042082  0.69979227  0.37468668  1  0  0.122169  0  0.961087  0  0  0.132372  0  1.019752  0  0  0.135626  0  1.017122  0  0.149532  0  0.114291  0.129883  0  1.021933  0
H  H16  1  0.83012832  0.27597076  0.91990623  1  0  0.113321  0  0.990248  0  0  0.115357  0  1.059518  0  0  0.119041  0  1.055901  0  0.201728  0  0.118992  0.11244  0  1.062596  0
H  H17  1  0.33013002  0.72403500  0.58009601  1  0  0.113367  0  0.990145  0  0  0.115388  0  1.059433  0  0  0.119078  0  1.055821  0  0.201729  0  0.119006  0.112444  0  1.062544  0
H  H18  1  0.16986701  0.72403196  0.08009519  1  0  0.113272  0  0.990314  0  0  0.115332  0  1.05957  0  0  0.119005  0  1.055946  0  0.201761  0  0.118991  0.112415  0  1.062646  0
H  H19  1  0.66987044  0.27596772  0.41990540  1  0  0.113361  0  0.99019  0  0  0.115377  0  1.059472  0  0  0.119067  0  1.055861  0  0.201726  0  0.118998  0.112434  0  1.062581  0
H  H20  1  0.66550696  0.63507234  0.93493589  1  0  0.319246  0  0.872618  0  0  0.296734  0  0.942479  0  0  0.304951  0  0.935817  0  0.496378  0  0.319708  0.290896  0  0.947162  0
H  H21  1  0.16550993  0.36492936  0.56506400  1  0  0.319189  0  0.872755  0  0  0.296647  0  0.942611  0  0  0.304861  0  0.935958  0  0.496435  0  0.319691  0.290813  0  0.947291  0
H  H22  1  0.33449477  0.36493139  0.06506332  1  0  0.319209  0  0.872721  0  0  0.296657  0  0.942616  0  0  0.304874  0  0.93596  0  0.496428  0  0.319687  0.290823  0  0.947296  0
H  H23  1  0.83449308  0.63507031  0.43493732  1  0  0.319217  0  0.872695  0  0  0.296663  0  0.942583  0  0  0.304879  0  0.935928  0  0.496409  0  0.319688  0.290827  0  0.947264  0
H  H24  1  0.47705164  0.13838478  0.75773231  1  0  0.419055  0  0.886763  0  0  0.389686  0  0.948864  0  0  0.399487  0  0.93465  0  0.654419  0  0.290408  0.382719  0  0.958953  0
H  H25  1  0.97705251  0.86161490  0.74226827  1  0  0.41905  0  0.886764  0  0  0.389683  0  0.94886  0  0  0.399484  0  0.934646  0  0.654414  0  0.290417  0.382717  0  0.958948  0
H  H26  1  0.52294625  0.86161490  0.24226827  1  0  0.419058  0  0.886757  0  0  0.389686  0  0.948865  0  0  0.399488  0  0.93465  0  0.654413  0  0.290416  0.382719  0  0.958953  0
H  H27  1  0.02294666  0.13838478  0.25773231  1  0  0.419048  0  0.886769  0  0  0.38968  0  0.948868  0  0  0.399482  0  0.934654  0  0.654412  0  0.290411  0.382714  0  0.958957  0
H  H28  1  0.54331938  0.16110594  0.86810250  1  0  0.434758  0  0.863533  0  0  0.401293  0  0.931273  0  0  0.411811  0  0.916058  0  0.658232  0  0.292389  0.393935  0  0.941894  0
H  H29  1  0.04331979  0.83889374  0.63189808  1  0  0.434729  0  0.863577  0  0  0.401273  0  0.931306  0  0  0.411792  0  0.91609  0  0.658235  0  0.292391  0.393914  0  0.941929  0
H  H30  1  0.45667851  0.83889374  0.13189808  1  0  0.434719  0  0.863591  0  0  0.401254  0  0.931333  0  0  0.41177  0  0.91612  0  0.658227  0  0.292381  0.393895  0  0.941955  0
H  H31  1  0.95667938  0.16110594  0.36810176  1  0  0.434798  0  0.863488  0  0  0.401308  0  0.931261  0  0  0.411827  0  0.916044  0  0.658231  0  0.292401  0.393949  0  0.941883  0
H  H32  1  0.30289030  0.87154210  0.92998180  1  0  0.436602  0  0.854302  0  0  0.406297  0  0.917416  0  0  0.416438  0  0.902623  0  0.660835  0  0.297156  0.399142  0  0.92785  0
H  H33  1  0.80288988  0.12845758  0.57001804  1  0  0.436589  0  0.854318  0  0  0.406292  0  0.917424  0  0  0.416435  0  0.902628  0  0.660821  0  0.297153  0.399137  0  0.927859  0
H  H34  1  0.69710887  0.12845656  0.07001727  1  0  0.436565  0  0.854268  0  0  0.406254  0  0.91746  0  0  0.416396  0  0.902667  0  0.660819  0  0.297136  0.3991  0  0.927894  0
H  H35  1  0.19710929  0.87154210  0.42998254  1  0  0.436597  0  0.854289  0  0  0.406298  0  0.91741  0  0  0.416441  0  0.902614  0  0.660818  0  0.297153  0.399142  0  0.927845  0
H  H36  1  0.42789468  0.89247813  0.84148490  1  0  0.427089  0  0.873271  0  0  0.39555  0  0.937581  0  0  0.406145  0  0.922155  0  0.644867  0  0.289576  0.388088  0  0.948417  0
H  H37  1  0.92789554  0.10752155  0.65851494  1  0  0.427078  0  0.873286  0  0  0.395535  0  0.937604  0  0  0.406131  0  0.922175  0  0.644863  0  0.289567  0.388071  0  0.948443  0
H  H38  1  0.57210321  0.10752155  0.15851494  1  0  0.427055  0  0.873318  0  0  0.395513  0  0.937634  0  0  0.406109  0  0.922207  0  0.64486  0  0.289555  0.38805  0  0.948472  0
H  H39  1  0.07210363  0.89247813  0.34148564  1  0  0.427061  0  0.873314  0  0  0.395517  0  0.937632  0  0  0.406113  0  0.922204  0  0.644864  0  0.289554  0.388054  0  0.948469  0
C  C40  1  0.17084393  0.42026949  0.82512427  1  0  0.099784  0  3.717744  0  0  0.063112  0  3.97662  0  0  0.0694  0  3.995475  0  0.43791  0  0.029331  0.058997  0  3.96366  0
C  C41  1  0.67084351  0.57973019  0.67487483  1  0  0.09985  0  3.71769  0  0  0.063187  0  3.976562  0  0  0.069478  0  3.995412  0  0.43796  0  0.02937  0.059071  0  3.963604  0
C  C42  1  0.82915397  0.57973019  0.17487483  1  0  0.099796  0  3.717812  0  0  0.063097  0  3.976707  0  0  0.069385  0  3.995563  0  0.437924  0  0.02933  0.058982  0  3.963747  0
C  C43  1  0.32915822  0.42026848  0.32512498  1  0  0.099792  0  3.71774  0  0  0.06313  0  3.976611  0  0  0.069419  0  3.995464  0  0.437954  0  0.029345  0.059016  0  3.963652  0
C  C44  1  0.12544354  0.55661166  0.82842544  1  0  -0.08762  0  3.735865  0  0  -0.101759  0  3.993021  0  0  -0.106881  0  4.013878  0  0.019415  0  -0.081879  -0.098603  0  3.979128  0
C  C45  1  0.62544185  0.44338701  0.67157364  1  0  -0.087679  0  3.735964  0  0  -0.101812  0  3.993127  0  0  -0.106933  0  4.013984  0  0.019417  0  -0.081899  -0.098656  0  3.979236  0
C  C46  1  0.87455819  0.44338802  0.17157441  1  0  -0.087647  0  3.735954  0  0  -0.101796  0  3.993118  0  0  -0.106918  0  4.013976  0  0.019419  0  -0.081902  -0.098639  0  3.979225  0
C  C47  1  0.37455860  0.55661166  0.32842544  1  0  -0.08758  0  3.735965  0  0  -0.101739  0  3.993114  0  0  -0.106859  0  4.013969  0  0.019446  0  -0.081853  -0.098583  0  3.979222  0
C  C48  1  0.96721932  0.59379736  0.86750026  1  0  -0.100968  0  3.671256  0  0  -0.124517  0  3.919479  0  0  -0.124587  0  3.937324  0  -0.035076  0  -0.06906  -0.124004  0  3.90749  0
C  C49  1  0.46722230  0.40620536  0.63249670  1  0  -0.10104  0  3.671423  0  0  -0.124557  0  3.919633  0  0  -0.124626  0  3.937478  0  -0.035065  0  -0.06906  -0.124046  0  3.907644  0
C  C50  1  0.03277857  0.40620333  0.13249813  1  0  -0.101061  0  3.671344  0  0  -0.12457  0  3.919546  0  0  -0.12464  0  3.937393  0  -0.035065  0  -0.069052  -0.124058  0  3.907556  0
C  C51  1  0.53278199  0.59379634  0.36750246  1  0  -0.101043  0  3.67138  0  0  -0.124558  0  3.91961  0  0  -0.124626  0  3.937454  0  -0.035029  0  -0.069082  -0.124045  0  3.907621  0
C  C52  1  0.85623108  0.49353089  0.90077576  1  0  0.202595  0  3.783142  0  0  0.200855  0  4.031122  0  0  0.204009  0  4.055039  0  0.319183  0  0.105958  0.198424  0  4.015028  0
C  C53  1  0.35623277  0.50647183  0.59922268  1  0  0.202711  0  3.783206  0  0  0.200909  0  4.031228  0  0  0.204061  0  4.055145  0  0.319173  0  0.105972  0.198482  0  4.015127  0
C  C54  1  0.14376809  0.50647082  0.09922265  1  0  0.202635  0  3.782935  0  0  0.200868  0  4.030971  0  0  0.204022  0  4.054884  0  0.319172  0  0.105931  0.19844  0  4.014876  0
C  C55  1  0.64377024  0.49352886  0.40077719  1  0  0.20261  0  3.783031  0  0  0.200824  0  4.031055  0  0  0.203979  0  4.054971  0  0.319181  0  0.105919  0.198395  0  4.014956  0
C  C56  1  0.91045060  0.35768239  0.89470141  1  0  0.034578  0  3.634786  0  0  -0.003575  0  3.889711  0  0  0.00093  0  3.9066  0  0.495999  0  0.041184  -0.00646  0  3.87848  0
C  C57  1  0.41045229  0.64232032  0.60529926  1  0  0.034597  0  3.634704  0  0  -0.003525  0  3.889612  0  0  0.00097  0  3.90651  0  0.495974  0  0.041191  -0.006392  0  3.878398  0
C  C58  1  0.08954729  0.64231830  0.10529846  1  0  0.034678  0  3.634821  0  0  -0.003491  0  3.889768  0  0  0.001034  0  3.906644  0  0.495987  0  0.041207  -0.006376  0  3.878536  0
C  C59  1  0.58955072  0.35768037  0.39470209  1  0  0.034568  0  3.634682  0  0  -0.003529  0  3.889567  0  0  0.000967  0  3.906462  0  0.496219  0  0.041174  -0.006396  0  3.878354  0
C  C60  1  0.58005811  0.45851046  0.98620155  1  0  0.434558  0  3.853838  0  0  0.3922  0  4.138812  0  0  0.416961  0  4.138677  0  1.426069  0  0.244263  0.375633  0  4.138346  0
C  C61  1  0.08005980  0.54148821  0.51379901  1  0  0.434718  0  3.853663  0  0  0.392381  0  4.138581  0  0  0.41714  0  4.138443  0  1.401864  0  0.244327  0.375819  0  4.13811  0
C  C62  1  0.41993978  0.54148618  0.01379673  1  0  0.434714  0  3.853694  0  0  0.392509  0  4.138527  0  0  0.417262  0  4.138402  0  1.401763  0  0.244324  0.37595  0  4.138056  0
C  C63  1  0.91994321  0.45851046  0.48620155  1  0  0.434641  0  3.853767  0  0  0.392395  0  4.138611  0  0  0.417151  0  4.138479  0  1.425759  0  0.244303  0.375836  0  4.138138  0
S  S64  1  0.76633041  0.95120402  0.89522135  1  0  1.591934  0  5.818409  0  0  1.459178  0  6.360937  0  0  1.515672  0  6.326036  0  3.81247  0  0.570357  1.419954  0  6.384157  0
S  S65  1  0.26633082  0.04879565  0.60477924  1  0  1.591913  0  5.818336  0  0  1.459187  0  6.360861  0  0  1.515685  0  6.325956  0  3.812477  0  0.570364  1.419956  0  6.384087  0
S  S66  1  0.23366749  0.04879565  0.10477924  1  0  1.591941  0  5.818276  0  0  1.459175  0  6.360829  0  0  1.515666  0  6.325933  0  3.812647  0  0.570362  1.419948  0  6.384053  0
S  S67  1  0.73366835  0.95120402  0.39522135  1  0  1.591913  0  5.818394  0  0  1.459191  0  6.360912  0  0  1.515686  0  6.32601  0  3.812641  0  0.570359  1.419964  0  6.384136  0
N  N68  1  0.06542142  0.32378008  0.85796578  1  0  -0.326703  0  3.27514  0  0  -0.247084  0  3.54418  0  0  -0.26715  0  3.564766  0  -1.235995  0  -0.328973  -0.2329  0  3.529374  0
N  N69  1  0.56542356  0.67622162  0.64203560  1  0  -0.326776  0  3.275203  0  0  -0.247145  0  3.544224  0  0  -0.267211  0  3.564813  0  -1.236041  0  -0.328989  -0.232959  0  3.529411  0
N  N70  1  0.93457648  0.67621960  0.14203480  1  0  -0.326717  0  3.275176  0  0  -0.247096  0  3.544232  0  0  -0.267163  0  3.564814  0  -1.236017  0  -0.328953  -0.232911  0  3.529426  0
N  N71  1  0.43457817  0.32377907  0.35796575  1  0  -0.326737  0  3.275185  0  0  -0.247131  0  3.544208  0  0  -0.267197  0  3.564795  0  -1.236294  0  -0.328972  -0.232945  0  3.529395  0
N  N72  1  0.69650710  0.53414696  0.93793033  1  0  -0.41011  0  3.393261  0  0  -0.35677  0  3.629208  0  0  -0.379277  0  3.642635  0  -1.244173  0  -0.382855  -0.341354  0  3.619734  0
N  N73  1  0.19650752  0.46585677  0.56207037  1  0  -0.410246  0  3.393504  0  0  -0.356829  0  3.629452  0  0  -0.379325  0  3.642868  0  -1.244205  0  -0.382926  -0.34142  0  3.619978  0
N  N74  1  0.30349335  0.46585778  0.06206817  1  0  -0.410086  0  3.393326  0  0  -0.356771  0  3.629344  0  0  -0.379278  0  3.642776  0  -1.244303  0  -0.382844  -0.341361  0  3.619867  0
N  N75  1  0.80349422  0.53414392  0.43793173  1  0  -0.410121  0  3.393338  0  0  -0.356777  0  3.62934  0  0  -0.37928  0  3.642765  0  -1.244196  0  -0.382842  -0.341365  0  3.619865  0
O  O76  1  0.59393724  0.33875249  0.00809812  1  0  -0.48242  0  1.99479  0  0  -0.435134  0  2.211188  0  0  -0.453801  0  2.206875  0  -1.122652  0  -0.266686  -0.422403  0  2.214031  0
O  O77  1  0.09393638  0.66125327  0.49190486  1  0  -0.482489  0  1.994627  0  0  -0.435247  0  2.211019  0  0  -0.453922  0  2.206713  0  -1.122408  0  -0.266727  -0.422511  0  2.213855  0
O  O78  1  0.40606321  0.66125631  0.99189827  1  0  -0.482562  0  1.994491  0  0  -0.435348  0  2.210855  0  0  -0.454018  0  2.206548  0  -1.122337  0  -0.266737  -0.422617  0  2.213696  0
O  O79  1  0.90606408  0.33874742  0.50809872  1  0  -0.482483  0  1.994621  0  0  -0.435232  0  2.210982  0  0  -0.453908  0  2.206677  0  -1.122476  0  -0.266696  -0.422501  0  2.213819  0
O  O80  1  0.93966080  0.96605783  0.84926593  1  0  -0.771408  0  2.041455  0  0  -0.696175  0  2.314129  0  0  -0.721261  0  2.293612  0  -1.341083  0  -0.363802  -0.678212  0  2.327696  0
O  O81  1  0.43966121  0.03394185  0.65073465  1  0  -0.771361  0  2.041419  0  0  -0.696144  0  2.314094  0  0  -0.721225  0  2.293569  0  -1.341091  0  -0.363779  -0.678181  0  2.327663  0
O  O82  1  0.06033710  0.03394185  0.15073465  1  0  -0.771365  0  2.041371  0  0  -0.696161  0  2.314078  0  0  -0.721241  0  2.293551  0  -1.341142  0  -0.363782  -0.678198  0  2.327645  0
O  O83  1  0.56033796  0.96605783  0.34926593  1  0  -0.771367  0  2.041408  0  0  -0.696157  0  2.314094  0  0  -0.721235  0  2.293567  0  -1.341129  0  -0.36379  -0.678193  0  2.327661  0
O  O84  1  0.77478208  0.84970793  0.97427019  1  0  -0.752574  0  2.004629  0  0  -0.68904  0  2.286955  0  0  -0.71267  0  2.266026  0  -1.330512  0  -0.365338  -0.672185  0  2.301147  0
O  O85  1  0.27478249  0.15029175  0.52572965  1  0  -0.752568  0  2.004613  0  0  -0.689022  0  2.286918  0  0  -0.712662  0  2.265999  0  -1.330503  0  -0.365334  -0.672169  0  2.301116  0
O  O86  1  0.22521581  0.15029175  0.02572965  1  0  -0.75259  0  2.004604  0  0  -0.689021  0  2.286896  0  0  -0.71266  0  2.265981  0  -1.330671  0  -0.365342  -0.672166  0  2.30109  0
O  O87  1  0.72521668  0.84970793  0.47427019  1  0  -0.752601  0  2.004637  0  0  -0.689033  0  2.286911  0  0  -0.712672  0  2.265996  0  -1.330684  0  -0.365344  -0.672179  0  2.301106  0
O  O88  1  0.64678678  0.89632412  0.81636782  1  0  -0.76693  0  2.02313  0  0  -0.689991  0  2.28561  0  0  -0.715383  0  2.26645  0  -1.336628  0  -0.361396  -0.672337  0  2.29872  0
O  O89  1  0.14678591  0.10367657  0.68363205  1  0  -0.766999  0  2.023083  0  0  -0.690045  0  2.285534  0  0  -0.71544  0  2.266375  0  -1.33663  0  -0.361423  -0.672378  0  2.298636  0
O  O90  1  0.35321240  0.10367556  0.18363202  1  0  -0.766996  0  2.023112  0  0  -0.690036  0  2.285557  0  0  -0.715428  0  2.266396  0  -1.336614  0  -0.361424  -0.672379  0  2.298666  0
O  O91  1  0.85321198  0.89632412  0.31636782  1  0  -0.766971  0  2.02311  0  0  -0.690017  0  2.285558  0  0  -0.715409  0  2.266397  0  -1.336617  0  -0.361413  -0.672362  0  2.29867  0
O  O92  1  0.70500231  0.08364173  0.93609267  1  0  -0.729585  0  2.033054  0  0  -0.663042  0  2.273829  0  0  -0.685524  0  2.256251  0  -1.350751  0  -0.335804  -0.647579  0  2.286131  0
O  O93  1  0.20500272  0.91635896  0.56390720  1  0  -0.729526  0  2.033082  0  0  -0.663048  0  2.27389  0  0  -0.685531  0  2.256314  0  -1.350754  0  -0.335792  -0.647576  0  2.286185  0
O  O94  1  0.29499686  0.91635795  0.06390718  1  0  -0.729545  0  2.033098  0  0  -0.663003  0  2.273861  0  0  -0.68548  0  2.256281  0  -1.350736  0  -0.335779  -0.647539  0  2.286162  0
O  O95  1  0.79499645  0.08364071  0.43609338  1  0  -0.729527  0  2.033083  0  0  -0.663048  0  2.273897  0  0  -0.685532  0  2.256323  0  -1.350737  0  -0.335784  -0.647576  0  2.28619  0
O  O96  1  0.45537638  0.19135284  0.82046658  1  0  -0.84188  0  1.8684  0  0  -0.781766  0  2.062544  0  0  -0.804319  0  2.032044  0  -1.277343  0  -0.587872  -0.765822  0  2.083706  0
O  O97  1  0.95537725  0.80864684  0.67953401  1  0  -0.841847  0  1.868442  0  0  -0.781732  0  2.062567  0  0  -0.804287  0  2.032072  0  -1.277347  0  -0.58789  -0.765789  0  2.08373  0
O  O98  1  0.54462151  0.80864583  0.17953324  1  0  -0.841844  0  1.868457  0  0  -0.781724  0  2.062583  0  0  -0.804279  0  2.032087  0  -1.277348  0  -0.587876  -0.765779  0  2.083744  0
O  O99  1  0.04462192  0.19135284  0.32046658  1  0  -0.841927  0  1.868384  0  0  -0.78178  0  2.062566  0  0  -0.804334  0  2.032067  0  -1.277348  0  -0.587899  -0.765837  0  2.083729  0
O  O100  1  0.30412457  0.89166210  0.85866105  1  0  -0.827093  0  1.837303  0  0  -0.765296  0  2.025133  0  0  -0.787476  0  1.992651  0  -1.256328  0  -0.585554  -0.748791  0  2.047432  0
O  O101  1  0.80412543  0.10833758  0.64133879  1  0  -0.827083  0  1.837325  0  0  -0.765282  0  2.025148  0  0  -0.787463  0  1.992661  0  -1.256314  0  -0.585552  -0.748779  0  2.047449  0
O  O102  1  0.69587332  0.10833657  0.14133876  1  0  -0.827023  0  1.837291  0  0  -0.765228  0  2.025187  0  0  -0.787408  0  1.992704  0  -1.2563  0  -0.585516  -0.748723  0  2.047485  0
O  O103  1  0.19587374  0.89166210  0.35866105  1  0  -0.827071  0  1.837311  0  0  -0.765267  0  2.025144  0  0  -0.787449  0  1.992659  0  -1.256314  0  -0.585531  -0.748762  0  2.047444  0
