# generated using pymatgen
data_ZnH26C34(NO)4
_symmetry_space_group_name_H-M   'P 1'
_cell_length_a   9.09056525
_cell_length_b   12.42727286
_cell_length_c   14.78217636
_cell_angle_alpha   108.02763457
_cell_angle_beta   89.99866156
_cell_angle_gamma   90.00026422
_symmetry_Int_Tables_number   1
_chemical_formula_structural   ZnH26C34(NO)4
_chemical_formula_sum   'Zn2 H52 C68 N8 O8'
_cell_volume   1587.97372270
_cell_formula_units_Z   2
loop_
 _symmetry_equiv_pos_site_id
 _symmetry_equiv_pos_as_xyz
  1  'x, y, z'
loop_
 _atom_site_type_symbol
 _atom_site_label
 _atom_site_symmetry_multiplicity
 _atom_site_fract_x
 _atom_site_fract_y
 _atom_site_fract_z
 _atom_site_occupancy
 _atom_site_pbe_bader_charge
 _atom_site_pbe_bader_spin_density
 _atom_site_pbe_cm5_charge
 _atom_site_pbe_ddec_charge
 _atom_site_pbe_ddec_spin_density
 _atom_site_pbe_ddec_sum_bond_order
 _atom_site_pbe_magmom
Zn  Zn0  1  0.00000052  0.00001167  0.00000877  1  1.345844  0  0.683757  0.836714  0  2.371734  0
Zn  Zn1  1  0.50001221  0.00000234  0.50000558  1  1.345984  0  0.683751  0.836572  0  2.372255  0
H  H2  1  0.11095908  0.68883673  0.10152025  1  0.049968  0  0.091821  0.141137  0  1.029488  0
H  H3  1  0.61096525  0.31114855  0.39846647  1  0.049781  0  0.091819  0.141132  0  1.029455  0
H  H4  1  0.88897807  0.31113581  0.89847573  1  0.049492  0  0.091801  0.141127  0  1.02914  0
H  H5  1  0.38901150  0.68884607  0.60152590  1  0.049802  0  0.091875  0.141203  0  1.029274  0
H  H6  1  0.05733902  0.58383129  0.99278319  1  0.011167  0  0.086445  0.129429  0  1.019551  0
H  H7  1  0.55732546  0.41614963  0.50720738  1  0.011166  0  0.086419  0.1294  0  1.019608  0
H  H8  1  0.94261683  0.41615046  0.00722741  1  0.010946  0  0.086439  0.129371  0  1.019458  0
H  H9  1  0.44266009  0.58383912  0.49277666  1  0.011274  0  0.086432  0.129403  0  1.019467  0
H  H10  1  0.92355160  0.67278243  0.06828529  1  0.02383  0  0.093552  0.13968  0  0.992558  0
H  H11  1  0.42354508  0.32720559  0.43170579  1  0.023884  0  0.093496  0.139536  0  0.992696  0
H  H12  1  0.07639655  0.32721728  0.93170572  1  0.024371  0  0.093558  0.139705  0  0.992569  0
H  H13  1  0.57643827  0.67277633  0.56828321  1  0.023867  0  0.093546  0.13972  0  0.992615  0
H  H14  1  0.03575566  0.63270200  0.85479704  1  -0.000204  0  0.085603  0.114096  0  1.055363  0
H  H15  1  0.53574098  0.36729501  0.64520217  1  -0.000114  0  0.085553  0.11393  0  1.055503  0
H  H16  1  0.96424748  0.36730099  0.14520904  1  -0.000178  0  0.085533  0.113947  0  1.055399  0
H  H17  1  0.46423797  0.63269965  0.35478480  1  -0.000204  0  0.085535  0.113922  0  1.055417  0
H  H18  1  0.92626594  0.88562276  0.70964556  1  0.147136  0  0.108541  0.112503  0  1.058881  0
H  H19  1  0.42625694  0.11439037  0.79036382  1  0.147215  0  0.108488  0.112408  0  1.058952  0
H  H20  1  0.07378671  0.11437865  0.29034590  1  0.14707  0  0.108562  0.112408  0  1.058894  0
H  H21  1  0.57374950  0.88561422  0.20965486  1  0.147179  0  0.108538  0.112414  0  1.059012  0
H  H22  1  0.04603447  0.63118439  0.44806753  1  0.063385  0  0.108315  0.113723  0  1.004965  0
H  H23  1  0.54602994  0.36883739  0.05192980  1  0.063472  0  0.108318  0.11371  0  1.004973  0
H  H24  1  0.95397197  0.36880334  0.55193856  1  0.063299  0  0.108313  0.113796  0  1.004967  0
H  H25  1  0.45393800  0.63117336  0.94805941  1  0.063299  0  0.108304  0.113772  0  1.004878  0
H  H26  1  0.16514708  0.52022074  0.54154106  1  0.068182  0  0.102728  0.099426  0  0.998485  0
H  H27  1  0.66516075  0.47980573  0.95845260  1  0.068337  0  0.102783  0.09954  0  0.998234  0
H  H28  1  0.83484727  0.47979067  0.45847199  1  0.068224  0  0.102699  0.099395  0  0.998212  0
H  H29  1  0.33481159  0.52021845  0.04155369  1  0.068175  0  0.102697  0.099311  0  0.998408  0
H  H30  1  0.16148408  0.58915491  0.71834843  1  0.072737  0  0.102854  0.10484  0  1.003338  0
H  H31  1  0.66150077  0.41084282  0.78163496  1  0.072444  0  0.102855  0.104959  0  1.003191  0
H  H32  1  0.83852016  0.41082945  0.28165339  1  0.072685  0  0.102907  0.104928  0  1.00323  0
H  H33  1  0.33849688  0.58918396  0.21836458  1  0.07275  0  0.102888  0.104906  0  1.003204  0
H  H34  1  0.16038518  0.77506917  0.39744432  1  0.074783  0  0.098222  0.10688  0  1.048296  0
H  H35  1  0.66037129  0.22494985  0.10255199  1  0.07508  0  0.098204  0.106878  0  1.048163  0
H  H36  1  0.83963117  0.22493144  0.60254084  1  0.074981  0  0.098201  0.106878  0  1.048258  0
H  H37  1  0.33962856  0.77506845  0.89744801  1  0.074598  0  0.098186  0.106809  0  1.04828  0
H  H38  1  0.16544609  0.83755456  0.25332523  1  0.061317  0  0.096935  0.098248  0  1.022665  0
H  H39  1  0.66543076  0.16244337  0.24665526  1  0.061114  0  0.09695  0.098185  0  1.022822  0
H  H40  1  0.83454716  0.16245445  0.74666892  1  0.060915  0  0.096914  0.098167  0  1.022744  0
H  H41  1  0.33456359  0.83755216  0.75332787  1  0.061107  0  0.096995  0.098301  0  1.022659  0
H  H42  1  0.96287389  0.94737914  0.21547301  1  0.130921  0  0.097909  0.101912  0  1.061016  0
H  H43  1  0.46288016  0.05261812  0.28451860  1  0.130441  0  0.097855  0.101815  0  1.060854  0
H  H44  1  0.03712596  0.05263819  0.78454162  1  0.131112  0  0.097947  0.101936  0  1.060833  0
H  H45  1  0.53714169  0.94737145  0.71546836  1  0.131191  0  0.097915  0.101938  0  1.060938  0
H  H46  1  0.74351857  0.00372875  0.32458555  1  0.10835  0  0.108461  0.126813  0  1.003164  0
H  H47  1  0.24352459  0.99625278  0.17541248  1  0.108703  0  0.108435  0.126765  0  1.003239  0
H  H48  1  0.25646588  0.99629119  0.67542165  1  0.10775  0  0.108552  0.126984  0  1.00304  0
H  H49  1  0.75647966  0.00371722  0.82458215  1  0.108091  0  0.108461  0.126836  0  1.003196  0
H  H50  1  0.71192795  0.87791949  0.61269026  1  0.158691  0  0.139668  0.103707  0  1.012193  0
H  H51  1  0.21192192  0.12208646  0.88731353  1  0.159611  0  0.13959  0.103602  0  1.012301  0
H  H52  1  0.28810710  0.12207337  0.38730841  1  0.158657  0  0.139625  0.103652  0  1.012114  0
H  H53  1  0.78808453  0.87790892  0.11268986  1  0.159502  0  0.139623  0.103665  0  1.012102  0
C  C54  1  0.03643897  0.66957733  0.04035319  1  -0.051508  0  -0.250473  -0.484369  0  3.932037  0
C  C55  1  0.53642972  0.33039874  0.45963621  1  -0.051173  0  -0.250387  -0.484208  0  3.932355  0
C  C56  1  0.96352678  0.33040795  0.95963940  1  -0.051057  0  -0.250412  -0.484256  0  3.931228  0
C  C57  1  0.46355472  0.66958823  0.54035818  1  -0.051339  0  -0.250459  -0.484381  0  3.93194  0
C  C58  1  0.05133004  0.75880526  0.99083139  1  0.819115  0  0.116348  0.484523  0  4.045989  0
C  C59  1  0.55131429  0.24118080  0.50915455  1  0.818176  0  0.116302  0.484396  0  4.04636  0
C  C60  1  0.94865881  0.24118839  0.00917628  1  0.819001  0  0.116306  0.484494  0  4.046021  0
C  C61  1  0.44868226  0.75881213  0.49083602  1  0.818206  0  0.116208  0.484226  0  4.046209  0
C  C62  1  0.04453249  0.72335363  0.89021287  1  -0.062818  0  -0.169878  -0.47914  0  4.002661  0
C  C63  1  0.54451312  0.27663922  0.60977361  1  -0.062611  0  -0.169685  -0.478665  0  4.002517  0
C  C64  1  0.95549046  0.27664094  0.10978489  1  -0.063263  0  -0.169728  -0.478814  0  4.002664  0
C  C65  1  0.45549663  0.72336048  0.39021875  1  -0.062642  0  -0.169762  -0.478814  0  4.002319  0
C  C66  1  0.04213791  0.79415589  0.83186910  1  0.72294  0  0.119336  0.383985  0  4.076154  0
C  C67  1  0.54215442  0.20584618  0.66813204  1  0.722805  0  0.119371  0.383892  0  4.075899  0
C  C68  1  0.95788284  0.20583354  0.16813542  1  0.723159  0  0.119398  0.383982  0  4.076008  0
C  C69  1  0.45788503  0.79416362  0.33187112  1  0.722902  0  0.119391  0.384102  0  4.076074  0
C  C70  1  0.03973838  0.74142865  0.72572984  1  0.007949  0  -0.012135  0.027807  0  3.964996  0
C  C71  1  0.53972696  0.25857850  0.77427335  1  0.007472  0  -0.012169  0.02798  0  3.964696  0
C  C72  1  0.96027797  0.25857515  0.27428119  1  0.007888  0  -0.012223  0.027782  0  3.964846  0
C  C73  1  0.46028609  0.74142873  0.22573250  1  0.007347  0  -0.012182  0.027909  0  3.964764  0
C  C74  1  0.97520616  0.80421650  0.67238651  1  0.00975  0  -0.084339  -0.192559  0  3.94363  0
C  C75  1  0.47521383  0.19578045  0.82761856  1  0.010238  0  -0.084268  -0.192445  0  3.94365  0
C  C76  1  0.02482669  0.19577889  0.32761553  1  0.009951  0  -0.084346  -0.192376  0  3.943565  0
C  C77  1  0.52478052  0.80422680  0.17238460  1  0.010061  0  -0.084264  -0.192514  0  3.943946  0
C  C78  1  0.97676779  0.76486761  0.57328084  1  0.223631  0  0.096487  0.181385  0  4.026678  0
C  C79  1  0.47675432  0.23514123  0.92672059  1  0.217228  0  0.096552  0.181471  0  4.026915  0
C  C80  1  0.02325626  0.23513459  0.42671625  1  0.223873  0  0.096484  0.181412  0  4.027052  0
C  C81  1  0.52321913  0.76487279  0.07328368  1  0.22348  0  0.096478  0.181513  0  4.027022  0
C  C82  1  0.04580978  0.66236926  0.52551147  1  0.013984  0  -0.088521  -0.165394  0  3.965669  0
C  C83  1  0.54581322  0.33764306  0.97447880  1  0.020658  0  -0.088531  -0.165325  0  3.965774  0
C  C84  1  0.95421206  0.33762780  0.47449372  1  0.013465  0  -0.088613  -0.165584  0  3.966109  0
C  C85  1  0.45417893  0.66236941  0.02550815  1  0.014251  0  -0.088515  -0.165633  0  3.965715  0
C  C86  1  0.11097946  0.59987114  0.57865656  1  -0.014298  0  -0.088721  -0.064903  0  4.044062  0
C  C87  1  0.61097758  0.40014610  0.92133882  1  -0.014663  0  -0.088752  -0.065036  0  4.044082  0
C  C88  1  0.88902809  0.40011996  0.42135111  1  -0.014086  0  -0.088585  -0.064813  0  4.044446  0
C  C89  1  0.38900797  0.59987054  0.07865668  1  -0.01449  0  -0.088643  -0.064509  0  4.043812  0
C  C90  1  0.10735195  0.63789312  0.67795835  1  -0.119615  0  -0.091022  -0.13313  0  3.980834  0
C  C91  1  0.60738332  0.36210211  0.82203395  1  -0.119404  0  -0.091053  -0.133451  0  3.980722  0
C  C92  1  0.89264130  0.36209711  0.32205314  1  -0.119124  0  -0.09097  -0.13313  0  3.981184  0
C  C93  1  0.39263853  0.63790520  0.17796111  1  -0.119304  0  -0.091124  -0.133477  0  3.980731  0
C  C94  1  0.94256481  0.84823255  0.43759959  1  0.297191  0  0.090348  0.08921  0  3.986512  0
C  C95  1  0.44256690  0.15177659  0.06239681  1  0.29669  0  0.090349  0.089218  0  3.986644  0
C  C96  1  0.05744383  0.15176371  0.56239930  1  0.296812  0  0.090406  0.089271  0  3.986488  0
C  C97  1  0.55743295  0.84822645  0.93760253  1  0.296772  0  0.090361  0.08933  0  3.986738  0
C  C98  1  0.06735952  0.82021720  0.38008252  1  -0.020864  0  -0.101252  -0.166095  0  4.010836  0
C  C99  1  0.56734361  0.17980705  0.11991922  1  -0.021086  0  -0.101197  -0.1661  0  4.010823  0
C  C100  1  0.93264473  0.17978668  0.61991839  1  -0.021068  0  -0.10123  -0.166225  0  4.01061  0
C  C101  1  0.43265294  0.82021633  0.88008145  1  -0.02054  0  -0.101229  -0.166126  0  4.010808  0
C  C102  1  0.06963054  0.85653985  0.29983000  1  -0.018453  0  -0.09988  -0.082147  0  4.020224  0
C  C103  1  0.56961356  0.14347089  0.20016339  1  -0.018287  0  -0.099958  -0.082113  0  4.020178  0
C  C104  1  0.93035171  0.14347331  0.70017541  1  -0.018499  0  -0.099776  -0.081724  0  4.019893  0
C  C105  1  0.43037309  0.85652715  0.79982582  1  -0.018639  0  -0.099946  -0.082012  0  4.020309  0
C  C106  1  0.95351236  0.91964351  0.27835562  1  -0.058505  0  -0.106416  -0.115629  0  4.038756  0
C  C107  1  0.45350688  0.08035550  0.22163118  1  -0.057194  0  -0.106369  -0.115432  0  4.038619  0
C  C108  1  0.04646989  0.08037727  0.72165248  1  -0.058411  0  -0.106544  -0.1158  0  4.03833  0
C  C109  1  0.54647757  0.91963407  0.77835444  1  -0.058782  0  -0.106444  -0.115831  0  4.038722  0
C  C110  1  0.83128460  0.95069370  0.33762495  1  -0.032795  0  -0.091615  -0.146935  0  3.952498  0
C  C111  1  0.33127679  0.04929953  0.16237289  1  -0.03435  0  -0.091591  -0.147068  0  3.952616  0
C  C112  1  0.16870424  0.04932619  0.66238765  1  -0.032096  0  -0.091781  -0.147205  0  3.952648  0
C  C113  1  0.66872196  0.95067894  0.83762331  1  -0.031953  0  -0.091616  -0.146909  0  3.952364  0
C  C114  1  0.82614908  0.91373723  0.41781834  1  0.356179  0  0.088676  0.148981  0  4.034521  0
C  C115  1  0.32614893  0.08626620  0.08217754  1  0.356707  0  0.088714  0.149118  0  4.034236  0
C  C116  1  0.17386177  0.08626408  0.58218527  1  0.355947  0  0.088656  0.148954  0  4.034599  0
C  C117  1  0.67385202  0.91373932  0.91782989  1  0.356069  0  0.088545  0.148776  0  4.034616  0
C  C118  1  0.76994206  0.88183285  0.54962479  1  1.006283  0  0.164113  0.142827  0  3.906866  0
C  C119  1  0.26993690  0.11818229  0.95038128  1  1.006912  0  0.164204  0.14294  0  3.906946  0
C  C120  1  0.23008199  0.11815831  0.45037545  1  1.005454  0  0.16423  0.143204  0  3.906316  0
C  C121  1  0.73006294  0.88181480  0.04961986  1  1.006994  0  0.164123  0.142859  0  3.906962  0
N  N122  1  0.72077589  0.93219755  0.48921189  1  -1.213788  0  -0.333519  -0.327655  0  3.475183  0
N  N123  1  0.22077944  0.06781197  0.01079050  1  -1.215005  0  -0.333532  -0.327716  0  3.475275  0
N  N124  1  0.27924046  0.06779693  0.51079735  1  -1.213133  0  -0.333598  -0.327808  0  3.475182  0
N  N125  1  0.77923581  0.93217499  0.98920457  1  -1.215138  0  -0.333423  -0.327514  0  3.475185  0
N  N126  1  0.90281864  0.82890621  0.52266041  1  -1.243826  0  -0.223072  -0.057159  0  3.736575  0
N  N127  1  0.40281497  0.17110532  0.97734077  1  -1.243733  0  -0.223069  -0.057185  0  3.736813  0
N  N128  1  0.09719441  0.17108839  0.47733331  1  -1.24311  0  -0.223027  -0.05737  0  3.736602  0
N  N129  1  0.59717498  0.82890701  0.02266306  1  -1.243723  0  -0.222991  -0.057192  0  3.737042  0
O  O130  1  0.06507132  0.86059508  0.04474931  1  -1.150674  0  -0.302519  -0.486517  0  2.262807  0
O  O131  1  0.56506223  0.13938605  0.45523697  1  -1.150204  0  -0.30258  -0.486529  0  2.262917  0
O  O132  1  0.93492742  0.13938509  0.95524734  1  -1.150698  0  -0.302592  -0.486727  0  2.26272  0
O  O133  1  0.43493872  0.86061191  0.54476170  1  -1.150115  0  -0.302523  -0.486418  0  2.262739  0
O  O134  1  0.04087044  0.90230528  0.86026203  1  -1.113176  0  -0.294968  -0.467902  0  2.330057  0
O  O135  1  0.54087639  0.09769927  0.63974655  1  -1.113113  0  -0.294979  -0.467934  0  2.330301  0
O  O136  1  0.95915361  0.09769431  0.13974451  1  -1.113234  0  -0.294871  -0.46778  0  2.330485  0
O  O137  1  0.45915866  0.90230115  0.36026223  1  -1.113135  0  -0.294891  -0.467897  0  2.330527  0
