# generated using pymatgen
data_CuH12C10N7
_symmetry_space_group_name_H-M   'P 1'
_cell_length_a   6.13836839
_cell_length_b   8.11896718
_cell_length_c   11.77808005
_cell_angle_alpha   110.14947740
_cell_angle_beta   89.99969765
_cell_angle_gamma   89.99954974
_symmetry_Int_Tables_number   1
_chemical_formula_structural   CuH12C10N7
_chemical_formula_sum   'Cu2 H24 C20 N14'
_cell_volume   551.06140211
_cell_formula_units_Z   2
loop_
 _symmetry_equiv_pos_site_id
 _symmetry_equiv_pos_as_xyz
  1  'x, y, z'
loop_
 _atom_site_type_symbol
 _atom_site_label
 _atom_site_symmetry_multiplicity
 _atom_site_fract_x
 _atom_site_fract_y
 _atom_site_fract_z
 _atom_site_occupancy
 _atom_site_hle17_bader_spin_density
 _atom_site_hle17_ddec_charge
 _atom_site_hle17_ddec_spin_density
 _atom_site_hle17_ddec_sum_bond_order
 _atom_site_hle17_magmom
 _atom_site_hse06_10hf_bader_spin_density
 _atom_site_hse06_10hf_ddec_charge
 _atom_site_hse06_10hf_ddec_spin_density
 _atom_site_hse06_10hf_ddec_sum_bond_order
 _atom_site_hse06_10hf_magmom
 _atom_site_hse06_bader_spin_density
 _atom_site_hse06_ddec_charge
 _atom_site_hse06_ddec_spin_density
 _atom_site_hse06_ddec_sum_bond_order
 _atom_site_hse06_magmom
 _atom_site_pbe_bader_spin_density
 _atom_site_pbe_cm5_charge
 _atom_site_pbe_ddec_charge
 _atom_site_pbe_ddec_spin_density
 _atom_site_pbe_ddec_sum_bond_order
 _atom_site_pbe_magmom
Cu  Cu0  1  0.24999672  0.08489326  0.16905417  1  0  0.539064  0  2.011849  0  0  0.431256  0  2.499839  0  0  0.427231  0  2.454747  0  0  0.606992  0.436319  0  2.528284  0
Cu  Cu1  1  0.74998845  0.91510699  0.83094240  1  0  0.539044  0  2.012124  0  0  0.431358  0  2.499936  0  0  0.427327  0  2.454866  0  0  0.607052  0.436474  0  2.528421  0
H  H2  1  0.89593727  0.28537590  0.57007190  1  0  0.070793  0  0.910302  0  0  0.087585  0  0.971186  0  0  0.087422  0  0.971335  0  0  0.118949  0.087647  0  0.971119  0
H  H3  1  0.39594958  0.71461816  0.42993306  1  0  0.070713  0  0.910394  0  0  0.087593  0  0.971213  0  0  0.087382  0  0.971412  0  0  0.11897  0.087664  0  0.971136  0
H  H4  1  0.10406257  0.71461802  0.42993089  1  0  0.070804  0  0.910383  0  0  0.08762  0  0.97127  0  0  0.087444  0  0.971426  0  0  0.118969  0.087689  0  0.971195  0
H  H5  1  0.60405026  0.28537452  0.57007200  1  0  0.070739  0  0.910418  0  0  0.087545  0  0.971296  0  0  0.087379  0  0.971448  0  0  0.118945  0.087608  0  0.971227  0
H  H6  1  0.74999729  0.18417059  0.14771458  1  0  0.072012  0  0.924258  0  0  0.085817  0  0.991493  0  0  0.084811  0  0.992482  0  0  0.11699  0.086454  0  0.990939  0
H  H7  1  0.24999440  0.81584681  0.85228926  1  0  0.072049  0  0.924405  0  0  0.085874  0  0.991593  0  0  0.084865  0  0.992581  0  0  0.117022  0.086522  0  0.991038  0
H  H8  1  0.24999340  0.03597585  0.85224231  1  0  0.071933  0  0.925082  0  0  0.085877  0  0.992037  0  0  0.084881  0  0.992989  0  0  0.117213  0.086525  0  0.991503  0
H  H9  1  0.74999991  0.96404151  0.14775981  1  0  0.07196  0  0.925331  0  0  0.085919  0  0.992218  0  0  0.084923  0  0.993172  0  0  0.117253  0.086555  0  0.991687  0
H  H10  1  0.94445745  0.41021499  0.30274137  1  0  0.071061  0  0.942673  0  0  0.084265  0  1.009844  0  0  0.083517  0  1.010797  0  0  0.113678  0.084787  0  1.009198  0
H  H11  1  0.44446495  0.58979322  0.69727089  1  0  0.071048  0  0.942585  0  0  0.084228  0  1.009787  0  0  0.083482  0  1.010737  0  0  0.113665  0.084758  0  1.00914  0
H  H12  1  0.05566698  0.10685285  0.69711103  1  0  0.071815  0  0.942307  0  0  0.084841  0  1.009726  0  0  0.084136  0  1.010644  0  0  0.113913  0.085328  0  1.009089  0
H  H13  1  0.55567257  0.89314901  0.30288475  1  0  0.071694  0  0.942463  0  0  0.08484  0  1.009739  0  0  0.084135  0  1.010655  0  0  0.11389  0.085322  0  1.009102  0
H  H14  1  0.05553261  0.58979475  0.69726753  1  0  0.071072  0  0.942649  0  0  0.084233  0  1.009882  0  0  0.083483  0  1.01083  0  0  0.113644  0.084763  0  1.009236  0
H  H15  1  0.55552511  0.41021268  0.30274054  1  0  0.071088  0  0.9425  0  0  0.084242  0  1.009749  0  0  0.0835  0  1.010704  0  0  0.113647  0.084765  0  1.009102  0
H  H16  1  0.94433286  0.89315134  0.30288643  1  0  0.071755  0  0.942638  0  0  0.084893  0  1.009915  0  0  0.084191  0  1.010836  0  0  0.113928  0.085374  0  1.009276  0
H  H17  1  0.44432889  0.10685253  0.69711127  1  0  0.071798  0  0.942349  0  0  0.084843  0  1.00973  0  0  0.084138  0  1.010647  0  0  0.113907  0.085329  0  1.009093  0
H  H18  1  0.08874111  0.35831005  0.41830877  1  0  0.061155  0  0.965484  0  0  0.069346  0  1.041354  0  0  0.070906  0  1.039196  0  0  0.112269  0.068029  0  1.043277  0
H  H19  1  0.58875446  0.64169185  0.58169796  1  0  0.061063  0  0.965416  0  0  0.069201  0  1.041353  0  0  0.070763  0  1.039194  0  0  0.112224  0.067893  0  1.043276  0
H  H20  1  0.91124258  0.93947039  0.58162972  1  0  0.06146  0  0.965225  0  0  0.070184  0  1.04053  0  0  0.071705  0  1.038404  0  0  0.112238  0.068791  0  1.042585  0
H  H21  1  0.41123709  0.06052596  0.41836892  1  0  0.061468  0  0.965203  0  0  0.07016  0  1.040548  0  0  0.071677  0  1.038425  0  0  0.112227  0.06876  0  1.042601  0
H  H22  1  0.91124732  0.64169302  0.58169523  1  0  0.061109  0  0.96538  0  0  0.069288  0  1.041294  0  0  0.070845  0  1.039137  0  0  0.112256  0.06798  0  1.043218  0
H  H23  1  0.41124375  0.35830477  0.41830798  1  0  0.06104  0  0.965547  0  0  0.069229  0  1.041464  0  0  0.07079  0  1.039309  0  0  0.11225  0.067916  0  1.043382  0
H  H24  1  0.08876052  0.06053395  0.41837287  1  0  0.061467  0  0.964996  0  0  0.070188  0  1.040322  0  0  0.071709  0  1.038207  0  0  0.112228  0.06879  0  1.042374  0
H  H25  1  0.58876112  0.93946518  0.58162815  1  0  0.061492  0  0.965168  0  0  0.070198  0  1.040478  0  0  0.071708  0  1.038363  0  0  0.112242  0.068808  0  1.042525  0
C  C26  1  0.25001016  0.50299414  0.00522789  1  0  -0.260907  0  4.136016  0  0  -0.237011  0  4.373217  0  0  -0.250266  0  4.389658  0  0  -0.048186  -0.228046  0  4.363148  0
C  C27  1  0.75001249  0.49700067  0.99476066  1  0  -0.260847  0  4.136211  0  0  -0.236982  0  4.373482  0  0  -0.250228  0  4.38991  0  0  -0.04829  -0.228013  0  4.363409  0
C  C28  1  0.25000231  0.38037682  0.06409675  1  0  0.321209  0  3.832322  0  0  0.299842  0  4.096412  0  0  0.313267  0  4.111772  0  0  0.181781  0.290677  0  4.086834  0
C  C29  1  0.75000404  0.61960084  0.93588455  1  0  0.321452  0  3.831958  0  0  0.300112  0  4.096026  0  0  0.313533  0  4.111375  0  0  0.18191  0.290949  0  4.08647  0
C  C30  1  0.75000229  0.31552395  0.93598243  1  0  0.322279  0  3.831292  0  0  0.300954  0  4.095209  0  0  0.314415  0  4.110509  0  0  0.182079  0.291757  0  4.085696  0
C  C31  1  0.25000243  0.68448021  0.06401418  1  0  0.322641  0  3.831437  0  0  0.301326  0  4.095323  0  0  0.314795  0  4.110623  0  0  0.182228  0.292124  0  4.085797  0
C  C32  1  0.25002710  0.43936953  0.87817965  1  0  0.285573  0  3.869567  0  0  0.26856  0  4.148066  0  0  0.279463  0  4.165635  0  0  0.171327  0.260985  0  4.137025  0
C  C33  1  0.75002487  0.56062788  0.12180864  1  0  0.28557  0  3.869221  0  0  0.268557  0  4.147744  0  0  0.279455  0  4.165306  0  0  0.171382  0.260984  0  4.136684  0
C  C34  1  0.94398675  0.32850451  0.36005586  1  0  0.076539  0  3.623441  0  0  0.004341  0  3.885294  0  0  0.012782  0  3.893888  0  0  0.010755  -0.001345  0  3.879575  0
C  C35  1  0.44398915  0.67150236  0.63995525  1  0  0.076736  0  3.623145  0  0  0.004638  0  3.884934  0  0  0.01307  0  3.893546  0  0  0.010876  -0.001056  0  3.879244  0
C  C36  1  0.05601487  0.96784052  0.63985843  1  0  0.075077  0  3.625688  0  0  0.003358  0  3.887564  0  0  0.011655  0  3.896537  0  0  0.010697  -0.002129  0  3.881474  0
C  C37  1  0.55601542  0.03215881  0.36014017  1  0  0.075129  0  3.625667  0  0  0.003384  0  3.887498  0  0  0.011684  0  3.896468  0  0  0.010715  -0.002102  0  3.881407  0
C  C38  1  0.05600820  0.67149996  0.63995100  1  0  0.076661  0  3.623273  0  0  0.004483  0  3.885129  0  0  0.012934  0  3.893707  0  0  0.010801  -0.001216  0  3.879455  0
C  C39  1  0.55599602  0.32850096  0.36005730  1  0  0.076666  0  3.623256  0  0  0.004478  0  3.885154  0  0  0.012897  0  3.893776  0  0  0.010776  -0.001214  0  3.879441  0
C  C40  1  0.94397356  0.03215183  0.36013551  1  0  0.075065  0  3.625671  0  0  0.003274  0  3.887553  0  0  0.011555  0  3.89655  0  0  0.010653  -0.002214  0  3.881462  0
C  C41  1  0.44398279  0.96783895  0.63986009  1  0  0.074995  0  3.625644  0  0  0.003325  0  3.887471  0  0  0.011629  0  3.89645  0  0  0.010687  -0.00216  0  3.881373  0
C  C42  1  0.74999014  0.25647111  0.51226516  1  0  0.088464  0  3.623244  0  0  0.02102  0  3.880783  0  0  0.028932  0  3.892096  0  0  0.024107  0.015707  0  3.872857  0
C  C43  1  0.25000155  0.74352150  0.48773733  1  0  0.088443  0  3.623306  0  0  0.020859  0  3.880928  0  0  0.028812  0  3.892245  0  0  0.024073  0.015544  0  3.872991  0
C  C44  1  0.74999739  0.10291726  0.20533238  1  0  0.088345  0  3.575519  0  0  0.014038  0  3.83968  0  0  0.023957  0  3.846667  0  0  0.01586  0.00713  0  3.835134  0
C  C45  1  0.24999593  0.89707919  0.79466758  1  0  0.088303  0  3.575598  0  0  0.013968  0  3.839774  0  0  0.023881  0  3.846785  0  0  0.015832  0.007062  0  3.835226  0
N  N46  1  0.25000432  0.26507775  0.10312253  1  0  -0.463953  0  3.112064  0  0  -0.423475  0  3.461297  0  0  -0.425741  0  3.454669  0  0  -0.407225  -0.422886  0  3.465697  0
N  N47  1  0.74999878  0.73490906  0.89685998  1  0  -0.464231  0  3.111831  0  0  -0.423808  0  3.461076  0  0  -0.426071  0  3.454446  0  0  -0.407319  -0.423226  0  3.465527  0
N  N48  1  0.74999675  0.16122940  0.89703655  1  0  -0.465205  0  3.11114  0  0  -0.424747  0  3.460175  0  0  -0.426979  0  3.453449  0  0  -0.407571  -0.424193  0  3.464689  0
N  N49  1  0.24999331  0.83876333  0.10297022  1  0  -0.465473  0  3.111484  0  0  -0.425017  0  3.46061  0  0  -0.427249  0  3.453871  0  0  -0.407727  -0.424454  0  3.465082  0
N  N50  1  0.25002140  0.38602676  0.77181179  1  0  -0.446856  0  2.620418  0  0  -0.427488  0  2.860953  0  0  -0.433589  0  2.869246  0  0  -0.332808  -0.423667  0  2.855898  0
N  N51  1  0.75003382  0.61397995  0.22818284  1  0  -0.446846  0  2.620147  0  0  -0.427488  0  2.860695  0  0  -0.433588  0  2.868988  0  0  -0.332806  -0.423662  0  2.855628  0
N  N52  1  0.95112355  0.14064714  0.28078635  1  0  -0.285379  0  3.215017  0  0  -0.194072  0  3.473296  0  0  -0.209  0  3.484792  0  0  -0.356083  -0.183732  0  3.465332  0
N  N53  1  0.45112325  0.85935944  0.71921703  1  0  -0.285413  0  3.215365  0  0  -0.194177  0  3.473633  0  0  -0.209111  0  3.485143  0  0  -0.356128  -0.18385  0  3.465707  0
N  N54  1  0.04887140  0.85936239  0.71921571  1  0  -0.285494  0  3.215333  0  0  -0.194163  0  3.473534  0  0  -0.209095  0  3.485023  0  0  -0.356103  -0.183837  0  3.465613  0
N  N55  1  0.54887170  0.14064623  0.28078671  1  0  -0.28542  0  3.215158  0  0  -0.194114  0  3.473423  0  0  -0.209041  0  3.484922  0  0  -0.356121  -0.183778  0  3.465465  0
N  N56  1  0.74999323  0.36898954  0.43715809  1  0  -0.279077  0  3.154332  0  0  -0.206528  0  3.409011  0  0  -0.222683  0  3.426729  0  0  -0.346976  -0.195139  0  3.396551  0
N  N57  1  0.24999846  0.63101094  0.56284617  1  0  -0.2791  0  3.154279  0  0  -0.206542  0  3.408984  0  0  -0.222697  0  3.426677  0  0  -0.346986  -0.19516  0  3.396553  0
N  N58  1  0.25000186  0.93113640  0.56273348  1  0  -0.277808  0  3.155988  0  0  -0.207737  0  3.413798  0  0  -0.223836  0  3.431475  0  0  -0.346391  -0.196308  0  3.401109  0
N  N59  1  0.75000124  0.06886135  0.43726678  1  0  -0.277834  0  3.156027  0  0  -0.207791  0  3.413871  0  0  -0.223892  0  3.431568  0  0  -0.346385  -0.196382  0  3.401203  0
