# generated using pymatgen
data_AlH3C24(OF2)6
_symmetry_space_group_name_H-M   'P 1'
_cell_length_a   3.95698456
_cell_length_b   28.79326645
_cell_length_c   28.79328937
_cell_angle_alpha   119.99980462
_cell_angle_beta   89.99983911
_cell_angle_gamma   90.00000232
_symmetry_Int_Tables_number   1
_chemical_formula_structural   AlH3C24(OF2)6
_chemical_formula_sum   'Al2 H6 C48 O12 F24'
_cell_volume   2841.04466044
_cell_formula_units_Z   2
loop_
 _symmetry_equiv_pos_site_id
 _symmetry_equiv_pos_as_xyz
  1  'x, y, z'
loop_
 _atom_site_type_symbol
 _atom_site_label
 _atom_site_symmetry_multiplicity
 _atom_site_fract_x
 _atom_site_fract_y
 _atom_site_fract_z
 _atom_site_occupancy
 _atom_site_pbe_bader_charge
 _atom_site_pbe_bader_spin_density
 _atom_site_pbe_cm5_charge
 _atom_site_pbe_ddec_charge
 _atom_site_pbe_ddec_spin_density
 _atom_site_pbe_ddec_sum_bond_order
 _atom_site_pbe_magmom
Al  Al0  1  0.99964794  0.50000110  0.49999909  1  2.503622  0  0.429669  1.593621  0  2.579706  0
Al  Al1  1  0.99964733  0.16666760  0.83333344  1  2.503526  0  0.429789  1.59381  0  2.579353  0
H  H2  1  0.50002045  0.38360192  0.72285190  1  0.086201  0  0.101031  0.110776  0  1.034495  0
H  H3  1  0.50001644  0.28305520  0.61045997  1  0.085867  0  0.10109  0.110801  0  1.034616  0
H  H4  1  0.50001135  0.83925353  0.61639857  1  0.128896  0  0.101036  0.110742  0  1.034623  0
H  H5  1  0.50000788  0.82740694  0.71694468  1  0.128242  0  0.10112  0.110863  0  1.034571  0
H  H6  1  0.50002067  0.27714779  0.16074815  1  0.135187  0  0.100979  0.110636  0  1.034611  0
H  H7  1  0.50001298  0.38954070  0.17259437  1  0.134543  0  0.101122  0.110859  0  1.034593  0
C  C8  1  0.49988431  0.46313567  0.41804015  1  1.633248  0  0.286552  0.702654  0  4.04348  0
C  C9  1  0.49987814  0.45490623  0.53686234  1  1.631305  0  0.286459  0.702533  0  4.043639  0
C  C10  1  0.49987807  0.58195966  0.54509365  1  1.643089  0  0.286411  0.702385  0  4.043738  0
C  C11  1  0.49987318  0.21175459  0.79645764  1  1.63075  0  0.286599  0.702643  0  4.043469  0
C  C12  1  0.49987325  0.08470529  0.78824651  1  1.643609  0  0.286673  0.702652  0  4.043351  0
C  C13  1  0.49987206  0.20354242  0.91529590  1  1.634034  0  0.286659  0.702648  0  4.043301  0
C  C14  1  0.50032327  0.24435144  0.76918568  1  0.130257  0  -0.022046  -0.223592  0  4.00999  0
C  C15  1  0.49359392  0.21970603  0.71323616  1  0.530651  0  0.094102  0.159027  0  4.109686  0
C  C16  1  0.49746580  0.24973855  0.68754773  1  0.453746  0  0.090904  0.125453  0  4.05896  0
C  C17  1  0.49988404  0.30628780  0.71611256  1  0.118997  0  -0.02212  -0.069157  0  4.096349  0
C  C18  1  0.50252694  0.33020600  0.77256564  1  0.559492  0  0.090262  0.121106  0  4.067537  0
C  C19  1  0.50681279  0.30039468  0.79847045  1  0.646423  0  0.094389  0.162427  0  4.107171  0
C  C20  1  0.49972757  0.34113689  0.69315654  1  -0.051177  0  -0.089058  -0.091307  0  3.957812  0
C  C21  1  0.49971543  0.32551899  0.64015449  1  0.049852  0  -0.089322  -0.091706  0  3.958239  0
C  C22  1  0.50252640  0.33645405  0.56074956  1  0.559106  0  0.090373  0.12112  0  4.067601  0
C  C23  1  0.49989002  0.36036777  0.61720016  1  0.11562  0  -0.022322  -0.069413  0  4.09665  0
C  C24  1  0.49746114  0.41691974  0.64576852  1  0.45757  0  0.090765  0.125217  0  4.058996  0
C  C25  1  0.49358975  0.44695530  0.62008193  1  0.532093  0  0.094418  0.159674  0  4.109405  0
C  C26  1  0.50033531  0.42230561  0.56412973  1  0.12997  0  -0.02211  -0.223742  0  4.010096  0
C  C27  1  0.50681021  0.36626398  0.53484335  1  0.647055  0  0.094202  0.162121  0  4.107497  0
C  C28  1  0.50032592  0.02483712  0.75564891  1  0.136183  0  -0.02213  -0.223735  0  4.009938  0
C  C29  1  0.49359584  0.99353291  0.78029460  1  0.552286  0  0.094162  0.159152  0  4.109578  0
C  C30  1  0.49746523  0.93781230  0.75026209  1  0.616371  0  0.090893  0.125364  0  4.059057  0
C  C31  1  0.49988426  0.90982726  0.69371239  1  0.106665  0  -0.02221  -0.069267  0  4.096494  0
C  C32  1  0.50252286  0.94236382  0.66979452  1  0.481447  0  0.090374  0.121165  0  4.067514  0
C  C33  1  0.50681626  0.99808059  0.69960582  1  0.541781  0  0.094346  0.162406  0  4.107038  0
C  C34  1  0.49972032  0.85202306  0.65886327  1  -0.096132  0  -0.088992  -0.091176  0  3.957814  0
C  C35  1  0.49970754  0.81463914  0.67448171  1  0.012171  0  -0.089366  -0.091833  0  3.958048  0
C  C36  1  0.50253050  0.72429850  0.66354617  1  0.482076  0  0.090276  0.12092  0  4.067625  0
C  C37  1  0.49989235  0.75683480  0.63963205  1  0.105866  0  -0.022233  -0.069223  0  4.096565  0
C  C38  1  0.49746426  0.72885246  0.58308104  1  0.617304  0  0.090833  0.125163  0  4.059204  0
C  C39  1  0.49359544  0.67313073  0.55304340  1  0.552304  0  0.094377  0.1596  0  4.109597  0
C  C40  1  0.50033771  0.64182713  0.57769335  1  0.136003  0  -0.022169  -0.223737  0  4.01022  0
C  C41  1  0.50682445  0.66858070  0.63373383  1  0.541245  0  0.09415  0.162096  0  4.107445  0
C  C42  1  0.50033144  0.23081366  0.97516416  1  0.033624  0  -0.022063  -0.22365  0  4.010018  0
C  C43  1  0.49360308  0.28676391  0.00646828  1  0.647747  0  0.094053  0.159029  0  4.109952  0
C  C44  1  0.49747925  0.31245165  0.06218886  1  0.526656  0  0.090963  0.125462  0  4.059016  0
C  C45  1  0.49989750  0.28388669  0.09017377  1  0.119739  0  -0.022149  -0.069293  0  4.096368  0
C  C46  1  0.50253870  0.22743362  0.05763826  1  0.575319  0  0.09034  0.12123  0  4.067394  0
C  C47  1  0.50682026  0.20152808  0.00192085  1  0.539232  0  0.094342  0.162341  0  4.107204  0
C  C48  1  0.49973016  0.30684314  0.14797826  1  -0.09737  0  -0.08892  -0.090964  0  3.957711  0
C  C49  1  0.49971212  0.35984531  0.18536222  1  -0.013785  0  -0.089389  -0.091871  0  3.958218  0
C  C50  1  0.50252908  0.43924939  0.27570280  1  0.57483  0  0.09034  0.121019  0  4.067824  0
C  C51  1  0.49989101  0.38279848  0.24316582  1  0.119661  0  -0.022303  -0.06938  0  4.09679  0
C  C52  1  0.49745960  0.35422999  0.27114802  1  0.528579  0  0.090821  0.125184  0  4.059215  0
C  C53  1  0.49359502  0.37991498  0.32687066  1  0.647333  0  0.094383  0.159648  0  4.109551  0
C  C54  1  0.50033724  0.43586697  0.35817282  1  0.035115  0  -0.022122  -0.223762  0  4.010157  0
C  C55  1  0.50681717  0.46515345  0.33141752  1  0.538171  0  0.094109  0.162069  0  4.1077  0
O  O56  1  0.73592137  0.55738905  0.55377575  1  -1.242146  0  -0.225574  -0.581163  0  2.3546  0
O  O57  1  0.73591988  0.49638909  0.44261038  1  -1.243566  0  -0.225576  -0.581235  0  2.354515  0
O  O58  1  0.73592436  0.44622333  0.50360980  1  -1.241391  0  -0.22553  -0.581153  0  2.354596  0
O  O59  1  0.26333210  0.56030445  0.51110837  1  -1.241733  0  -0.225799  -0.581523  0  2.358675  0
O  O60  1  0.26332922  0.48889115  0.54919237  1  -1.229464  0  -0.225842  -0.581601  0  2.358646  0
O  O61  1  0.26333024  0.45080695  0.43969609  1  -1.235256  0  -0.225917  -0.581637  0  2.358536  0
O  O62  1  0.73592578  0.17028809  0.89072708  1  -1.243941  0  -0.225728  -0.581339  0  2.354443  0
O  O63  1  0.73592635  0.22044066  0.82971168  1  -1.240753  0  -0.225669  -0.581324  0  2.354396  0
O  O64  1  0.73592682  0.10927312  0.77956074  1  -1.24239  0  -0.225761  -0.581392  0  2.354482  0
O  O65  1  0.26332598  0.21586813  0.89363621  1  -1.235487  0  -0.225875  -0.58159  0  2.358496  0
O  O66  1  0.26333423  0.10636506  0.82223160  1  -1.241834  0  -0.225846  -0.581511  0  2.358484  0
O  O67  1  0.26332953  0.17776956  0.78413278  1  -1.229401  0  -0.225842  -0.581596  0  2.35863  0
F  F68  1  0.50618049  0.32635209  0.85250368  1  -0.631835  0  -0.079226  -0.087645  0  1.354445  0
F  F69  1  0.49998684  0.38430902  0.80320508  1  -0.619202  0  -0.081645  -0.097547  0  1.360387  0
F  F70  1  0.49447366  0.16578037  0.68305561  1  -0.628092  0  -0.079428  -0.08821  0  1.358752  0
F  F71  1  0.50004656  0.22243725  0.63324900  1  -0.640787  0  -0.075363  -0.092101  0  1.380381  0
F  F72  1  0.50003582  0.44422145  0.70006685  1  -0.640384  0  -0.075223  -0.091982  0  1.380693  0
F  F73  1  0.49450430  0.50087644  0.65025796  1  -0.629032  0  -0.079554  -0.088416  0  1.358854  0
F  F74  1  0.49996666  0.28234889  0.53010878  1  -0.619516  0  -0.081525  -0.09733  0  1.36041  0
F  F75  1  0.50618650  0.34030680  0.48081197  1  -0.63237  0  -0.079209  -0.087532  0  1.354555  0
F  F76  1  0.50618721  0.02615487  0.67364874  1  -0.624544  0  -0.07921  -0.087613  0  1.354489  0
F  F77  1  0.49998103  0.91889965  0.61569154  1  -0.62206  0  -0.081694  -0.097546  0  1.360328  0
F  F78  1  0.49447982  0.01727766  0.83421981  1  -0.635496  0  -0.079462  -0.088242  0  1.358707  0
F  F79  1  0.50004269  0.91081445  0.77756274  1  -0.633108  0  -0.075313  -0.092011  0  1.380476  0
F  F80  1  0.50003466  0.75585065  0.55578074  1  -0.633006  0  -0.075258  -0.091969  0  1.380751  0
F  F81  1  0.49449814  0.64938738  0.49912444  1  -0.635537  0  -0.079497  -0.088305  0  1.359081  0
F  F82  1  0.49997754  0.74776093  0.71765021  1  -0.62239  0  -0.081507  -0.097256  0  1.360443  0
F  F83  1  0.50619494  0.64050704  0.65969238  1  -0.624417  0  -0.079142  -0.087489  0  1.354575  0
F  F84  1  0.50619198  0.14749620  0.97384608  1  -0.628675  0  -0.079212  -0.087603  0  1.35454  0
F  F85  1  0.49999361  0.19679382  0.08110205  1  -0.615281  0  -0.081727  -0.09762  0  1.360349  0
F  F86  1  0.49447085  0.31694419  0.98272334  1  -0.625746  0  -0.079381  -0.08815  0  1.358984  0
F  F87  1  0.50004914  0.36675044  0.08918659  1  -0.641131  0  -0.075363  -0.092079  0  1.380427  0
F  F88  1  0.50002999  0.29993154  0.24415063  1  -0.642081  0  -0.075231  -0.091944  0  1.380709  0
F  F89  1  0.49450459  0.34973918  0.35061438  1  -0.625682  0  -0.079505  -0.088342  0  1.359064  0
F  F90  1  0.49996927  0.46989158  0.25223939  1  -0.615247  0  -0.081545  -0.097314  0  1.360372  0
F  F91  1  0.50618512  0.51918666  0.35949353  1  -0.629211  0  -0.079161  -0.087496  0  1.35448  0
