# generated using pymatgen
data_Mg2H9C18N4O6F
_symmetry_space_group_name_H-M   'P 1'
_cell_length_a   6.73424387
_cell_length_b   28.59693075
_cell_length_c   28.60093381
_cell_angle_alpha   119.38663313
_cell_angle_beta   94.52812742
_cell_angle_gamma   94.47124187
_symmetry_Int_Tables_number   1
_chemical_formula_structural   Mg2H9C18N4O6F
_chemical_formula_sum   'Mg6 H27 C54 N12 O18 F3'
_cell_volume   4740.86119645
_cell_formula_units_Z   3
loop_
 _symmetry_equiv_pos_site_id
 _symmetry_equiv_pos_as_xyz
  1  'x, y, z'
loop_
 _atom_site_type_symbol
 _atom_site_label
 _atom_site_symmetry_multiplicity
 _atom_site_fract_x
 _atom_site_fract_y
 _atom_site_fract_z
 _atom_site_occupancy
 _atom_site_pbe_bader_charge
 _atom_site_pbe_bader_spin_density
 _atom_site_pbe_cm5_charge
 _atom_site_pbe_ddec_charge
 _atom_site_pbe_ddec_spin_density
 _atom_site_pbe_ddec_sum_bond_order
 _atom_site_pbe_magmom
Mg  Mg0  1  0.98973620  0.37560573  0.69555796  1  1.683175  0  0.906233  1.413092  0  1.329625  0
Mg  Mg1  1  0.55835902  0.69900052  0.37365922  1  1.682672  0  0.900139  1.404178  0  1.3353  0
Mg  Mg2  1  0.29458036  0.30447675  0.68007277  1  1.683069  0  0.906175  1.412061  0  1.331054  0
Mg  Mg3  1  0.18493581  0.62631895  0.32531984  1  1.683776  0  0.899987  1.404602  0  1.334386  0
Mg  Mg4  1  0.61431042  0.31991926  0.62442778  1  1.684047  0  0.905925  1.412051  0  1.330934  0
Mg  Mg5  1  0.85933924  0.67465449  0.30099830  1  1.683014  0  0.900066  1.403924  0  1.334968  0
H  H6  1  0.70493775  0.49058129  0.56003530  1  0.444781  0  0.321717  0.274217  0  0.931635  0
H  H7  1  0.68737273  0.43656679  0.59752790  1  0.059953  0  0.108853  0.134803  0  0.993012  0
H  H8  1  0.31127130  0.36810979  0.52419427  1  0.099394  0  0.105091  0.109321  0  0.997803  0
H  H9  1  0.14035298  0.42537805  0.49476338  1  0.129227  0  0.095965  0.110677  0  1.068146  0
H  H10  1  0.33410815  0.48292562  0.44687343  1  0.468271  0  0.326489  0.277897  0  0.92114  0
H  H11  1  0.21941305  0.60033740  0.43220534  1  0.117097  0  0.107059  0.137817  0  1.045449  0
H  H12  1  0.84835366  0.52365884  0.37186964  1  0.094691  0  0.106305  0.113383  0  0.991598  0
H  H13  1  0.62399627  0.48343303  0.41150510  1  0.019443  0  0.095064  0.104624  0  1.012551  0
H  H14  1  0.85034728  0.63028900  0.52821080  1  0.09994  0  0.129867  0.118556  0  0.947038  0
H  H15  1  0.14468772  0.43990021  0.93032444  1  0.479031  0  0.321358  0.273519  0  0.931286  0
H  H16  1  0.09013246  0.40245911  0.83889251  1  0.064796  0  0.108527  0.134477  0  0.99327  0
H  H17  1  0.78734633  0.47596559  0.84410506  1  0.099923  0  0.105542  0.109409  0  0.997836  0
H  H18  1  0.64561102  0.50529259  0.93069414  1  0.120501  0  0.096122  0.110739  0  1.068194  0
H  H19  1  0.88645456  0.55316719  0.03608366  1  0.452108  0  0.326506  0.27842  0  0.920868  0
H  H20  1  0.78688571  0.56785318  0.16817583  1  0.116396  0  0.10732  0.137998  0  1.045709  0
H  H21  1  0.47587800  0.62812997  0.15175413  1  0.104483  0  0.106228  0.113446  0  0.991095  0
H  H22  1  0.21146800  0.58858588  0.07194570  1  0.018916  0  0.094914  0.104419  0  1.013504  0
H  H23  1  0.32153849  0.47177944  0.10196275  1  0.102599  0  0.129664  0.11856  0  0.946374  0
H  H24  1  0.21441148  0.06969282  0.50951465  1  0.461165  0  0.321534  0.273613  0  0.931284  0
H  H25  1  0.25150697  0.16109018  0.56351435  1  0.071914  0  0.108483  0.134455  0  0.99304  0
H  H26  1  0.94380212  0.15583190  0.63175392  1  0.085136  0  0.105089  0.108689  0  0.998281  0
H  H27  1  0.71544458  0.06923335  0.57449147  1  0.124577  0  0.095986  0.110639  0  1.068076  0
H  H28  1  0.85073573  0.96393330  0.51708648  1  0.462236  0  0.326958  0.278237  0  0.920946  0
H  H29  1  0.61834540  0.83186492  0.39977043  1  0.127948  0  0.107156  0.138301  0  1.045276  0
H  H30  1  0.32409801  0.84809221  0.47629737  1  0.115279  0  0.106421  0.113619  0  0.991087  0
H  H31  1  0.13988526  0.92800253  0.51656540  1  0.030719  0  0.095092  0.10418  0  1.012765  0
H  H32  1  0.21977750  0.89793481  0.36972945  1  0.09252  0  0.129851  0.118409  0  0.946882  0
C  C33  1  0.82342809  0.55825402  0.53433667  1  0.511461  0  0.071885  0.054272  0  4.095087  0
C  C34  1  0.90403759  0.50976144  0.52132566  1  1.004978  0  0.226813  0.305939  0  4.159106  0
C  C35  1  0.90925001  0.43741325  0.54665232  1  0.287291  0  0.10382  0.284645  0  4.03604  0
C  C36  1  0.82433864  0.42161781  0.58083856  1  0.015199  0  -0.119849  -0.338858  0  3.923238  0
C  C37  1  0.91682756  0.38863334  0.59724336  1  0.582881  0  0.094118  0.387671  0  4.104458  0
C  C38  1  0.10257957  0.37121594  0.57790959  1  -0.015374  0  -0.051594  -0.232532  0  3.991542  0
C  C39  1  0.17384517  0.38365990  0.53982623  1  -0.08266  0  -0.086487  -0.049004  0  4.0466  0
C  C40  1  0.08064824  0.41550387  0.52337065  1  0.011318  0  -0.122249  -0.227311  0  4.013449  0
C  C41  1  0.23186430  0.34486002  0.59886541  1  1.496133  0  0.231125  0.673228  0  4.139177  0
C  C42  1  0.13243888  0.53379368  0.47866088  1  1.561624  0  0.341112  0.497637  0  4.105417  0
C  C43  1  0.40816762  0.54049016  0.42599839  1  0.308024  0  0.100585  0.279224  0  4.073544  0
C  C44  1  0.35652677  0.58322866  0.41911954  1  0.044672  0  -0.120441  -0.325434  0  3.919727  0
C  C45  1  0.47744411  0.60440783  0.39414116  1  0.565825  0  0.095126  0.382994  0  4.091322  0
C  C46  1  0.66323287  0.58376873  0.37859523  1  0.047411  0  -0.050253  -0.23064  0  3.974842  0
C  C47  1  0.70872115  0.53965511  0.38489427  1  -0.084073  0  -0.087454  -0.043712  0  4.046493  0
C  C48  1  0.58449262  0.51753620  0.40715101  1  0.024165  0  -0.124814  -0.252175  0  4.058974  0
C  C49  1  0.80830886  0.60575541  0.35629269  1  1.474432  0  0.231929  0.671857  0  4.131735  0
C  C50  1  0.90955304  0.59248535  0.51841216  1  0.570067  0  0.045559  0.021649  0  4.066636  0
C  C51  1  0.28853240  0.46565757  0.02381136  1  0.542004  0  0.072471  0.055659  0  4.091801  0
C  C52  1  0.38220180  0.47868004  0.98836532  1  1.044408  0  0.226185  0.304935  0  4.158002  0
C  C53  1  0.36275472  0.45332901  0.89072352  1  0.250529  0  0.104678  0.285548  0  4.036062  0
C  C54  1  0.24387092  0.41915172  0.84070809  1  0.012942  0  -0.119964  -0.339625  0  3.92464  0
C  C55  1  0.32006057  0.40279023  0.79138727  1  0.631465  0  0.094201  0.3884  0  4.104017  0
C  C56  1  0.52513804  0.42215590  0.79336434  1  -0.00764  0  -0.051166  -0.231405  0  3.989362  0
C  C57  1  0.63436661  0.46024409  0.84393777  1  -0.072056  0  -0.087295  -0.049772  0  4.046885  0
C  C58  1  0.55750569  0.47664536  0.89218899  1  0.006771  0  -0.122302  -0.226947  0  4.015042  0
C  C59  1  0.63338328  0.40122291  0.74607316  1  1.500967  0  0.232314  0.673442  0  4.138592  0
C  C60  1  0.65304294  0.52142967  0.05515787  1  1.558996  0  0.341542  0.497707  0  4.10305  0
C  C61  1  0.98142613  0.57413162  0.11453962  1  0.299792  0  0.100939  0.279989  0  4.073142  0
C  C62  1  0.93693039  0.58098007  0.16414957  1  0.037022  0  -0.121118  -0.326693  0  3.920837  0
C  C63  1  0.08303058  0.60592744  0.21027527  1  0.579272  0  0.095938  0.384491  0  4.090676  0
C  C64  1  0.28427275  0.62147352  0.20517109  1  0.009403  0  -0.050213  -0.230628  0  3.974616  0
C  C65  1  0.32325216  0.61517377  0.15475600  1  -0.022274  0  -0.087938  -0.044581  0  4.045382  0
C  C66  1  0.17654296  0.59297315  0.11041497  1  -0.012577  0  -0.124221  -0.251543  0  4.058106  0
C  C67  1  0.45180587  0.64373874  0.24945127  1  1.473251  0  0.231807  0.67221  0  4.131548  0
C  C68  1  0.39052976  0.48160939  0.07399244  1  0.496728  0  0.045936  0.021901  0  4.065655  0
C  C69  1  0.26465857  0.97612438  0.44174708  1  0.480299  0  0.072229  0.054261  0  4.093289  0
C  C70  1  0.39380349  0.01159600  0.49022567  1  1.01777  0  0.226927  0.305532  0  4.159016  0
C  C71  1  0.47235153  0.10922000  0.56251920  1  0.300022  0  0.103634  0.284858  0  4.035389  0
C  C72  1  0.40349114  0.15925174  0.57837016  1  -0.031717  0  -0.119092  -0.338987  0  3.923957  0
C  C73  1  0.52902798  0.20858624  0.61133627  1  0.616532  0  0.093761  0.387435  0  4.104976  0
C  C74  1  0.73227260  0.20658480  0.62869558  1  -0.049463  0  -0.051569  -0.231243  0  3.990776  0
C  C75  1  0.79089203  0.15600174  0.61619361  1  -0.017784  0  -0.086039  -0.048083  0  4.047273  0
C  C76  1  0.66574406  0.10775059  0.58435087  1  0.017656  0  -0.12304  -0.228265  0  4.013987  0
C  C77  1  0.88774590  0.25390119  0.65511440  1  1.483915  0  0.232156  0.672674  0  4.140362  0
C  C78  1  0.59808019  0.94484548  0.46625270  1  1.569669  0  0.341206  0.498193  0  4.104124  0
C  C79  1  0.86695770  0.88543746  0.45958861  1  0.32683  0  0.100315  0.279723  0  4.072206  0
C  C80  1  0.77253040  0.83585328  0.41687364  1  0.021526  0  -0.120669  -0.326924  0  3.921074  0
C  C81  1  0.87238092  0.78968055  0.39566240  1  0.570948  0  0.095389  0.383779  0  4.091182  0
C  C82  1  0.07876807  0.79473702  0.41629631  1  -0.010392  0  -0.05069  -0.231675  0  3.97529  0
C  C83  1  0.16837786  0.84514720  0.46038106  1  -0.016299  0  -0.087334  -0.043664  0  4.046376  0
C  C84  1  0.06628770  0.88953588  0.48252048  1  -0.030772  0  -0.124452  -0.251066  0  4.058301  0
C  C85  1  0.20212887  0.75049391  0.39427595  1  1.499114  0  0.232264  0.672564  0  4.130014  0
C  C86  1  0.31661877  0.92594253  0.40754651  1  0.579049  0  0.045547  0.022666  0  4.065867  0
N  N87  1  0.82142768  0.47629900  0.53876071  1  -1.211512  0  -0.392724  -0.336138  0  3.550168  0
N  N88  1  0.05790357  0.49775186  0.49269416  1  -1.230408  0  -0.332293  -0.456549  0  3.274855  0
N  N89  1  0.29271514  0.51754774  0.44981416  1  -1.267952  0  -0.390445  -0.368908  0  3.567206  0
N  N90  1  0.06747416  0.58096156  0.49038309  1  -1.178897  0  -0.324558  -0.358824  0  3.275793  0
N  N91  1  0.28246291  0.46120406  0.93742988  1  -1.246524  0  -0.392119  -0.335224  0  3.549419  0
N  N92  1  0.56455472  0.50736296  0.00505659  1  -1.217419  0  -0.33265  -0.457015  0  3.273735  0
N  N93  1  0.84210166  0.55029692  0.06777911  1  -1.260563  0  -0.390588  -0.369185  0  3.566297  0
N  N94  1  0.57636705  0.50969409  0.09057240  1  -1.192458  0  -0.324844  -0.359538  0  3.274321  0
N  N95  1  0.34512785  0.06254686  0.52369204  1  -1.225109  0  -0.39214  -0.335033  0  3.548656  0
N  N96  1  0.55957752  0.99493586  0.50225079  1  -1.22768  0  -0.332392  -0.456802  0  3.275834  0
N  N97  1  0.77455167  0.93223388  0.48252749  1  -1.285844  0  -0.390589  -0.36922  0  3.564624  0
N  N98  1  0.48601010  0.90940485  0.41909545  1  -1.169509  0  -0.325193  -0.36032  0  3.276188  0
O  O99  1  0.39403870  0.32940287  0.57954620  1  -1.241943  0  -0.364071  -0.649293  0  2.141512  0
O  O100  1  0.18274994  0.34019163  0.63952096  1  -1.296378  0  -0.406434  -0.775185  0  2.421663  0
O  O101  1  0.83224000  0.37651991  0.63159208  1  -1.306549  0  -0.448102  -0.782565  0  2.308451  0
O  O102  1  0.97089241  0.58566775  0.34272493  1  -1.241306  0  -0.357204  -0.640429  0  2.14738  0
O  O103  1  0.77105302  0.64721527  0.35139107  1  -1.302058  0  -0.406187  -0.779319  0  2.399972  0
O  O104  1  0.40843257  0.64264183  0.38544466  1  -1.311854  0  -0.450176  -0.772218  0  2.30313  0
O  O105  1  0.81487535  0.42058273  0.74996466  1  -1.24523  0  -0.364433  -0.649221  0  2.141441  0
O  O106  1  0.54368412  0.36053974  0.70074076  1  -1.307119  0  -0.406966  -0.775622  0  2.420873  0
O  O107  1  0.20116817  0.36846087  0.74490536  1  -1.310361  0  -0.448569  -0.783567  0  2.309475  0
O  O108  1  0.62785737  0.65731286  0.24292428  1  -1.235181  0  -0.357367  -0.640298  0  2.147546  0
O  O109  1  0.41970701  0.64858718  0.29579742  1  -1.300686  0  -0.405769  -0.779744  0  2.399057  0
O  O110  1  0.02298107  0.61457832  0.25719133  1  -1.307156  0  -0.450686  -0.77298  0  2.302992  0
O  O111  1  0.06544003  0.25000596  0.67055628  1  -1.247041  0  -0.364737  -0.648668  0  2.140502  0
O  O112  1  0.84309235  0.29925881  0.65986754  1  -1.297331  0  -0.406504  -0.77525  0  2.42236  0
O  O113  1  0.45648925  0.25506553  0.62351993  1  -1.312767  0  -0.448267  -0.782854  0  2.309971  0
O  O114  1  0.38485531  0.75705301  0.41436829  1  -1.242959  0  -0.358085  -0.641081  0  2.146859  0
O  O115  1  0.12375137  0.70414742  0.35278275  1  -1.311873  0  -0.405539  -0.779268  0  2.398765  0
O  O116  1  0.76534106  0.74277878  0.35736641  1  -1.313964  0  -0.450377  -0.772026  0  2.303026  0
F  F117  1  0.66289462  0.57016871  0.56304837  1  -0.630771  0  -0.109338  -0.137924  0  1.337065  0
F  F118  1  0.09934007  0.43688938  0.00693774  1  -0.632589  0  -0.110046  -0.138624  0  1.334359  0
F  F119  1  0.09226542  0.99295707  0.42980377  1  -0.633083  0  -0.109561  -0.137753  0  1.335256  0
