# generated using pymatgen
data_AgH6C12N5O3
_symmetry_space_group_name_H-M   'P 1'
_cell_length_a   7.51345835
_cell_length_b   8.15695529
_cell_length_c   20.08518618
_cell_angle_alpha   93.83920391
_cell_angle_beta   89.99980551
_cell_angle_gamma   89.99982977
_symmetry_Int_Tables_number   1
_chemical_formula_structural   AgH6C12N5O3
_chemical_formula_sum   'Ag4 H24 C48 N20 O12'
_cell_volume   1228.19726571
_cell_formula_units_Z   4
loop_
 _symmetry_equiv_pos_site_id
 _symmetry_equiv_pos_as_xyz
  1  'x, y, z'
loop_
 _atom_site_type_symbol
 _atom_site_label
 _atom_site_symmetry_multiplicity
 _atom_site_fract_x
 _atom_site_fract_y
 _atom_site_fract_z
 _atom_site_occupancy
 _atom_site_hle17_bader_spin_density
 _atom_site_hle17_ddec_charge
 _atom_site_hle17_ddec_spin_density
 _atom_site_hle17_ddec_sum_bond_order
 _atom_site_hle17_magmom
 _atom_site_hse06_10hf_bader_spin_density
 _atom_site_hse06_10hf_ddec_charge
 _atom_site_hse06_10hf_ddec_spin_density
 _atom_site_hse06_10hf_ddec_sum_bond_order
 _atom_site_hse06_10hf_magmom
 _atom_site_hse06_bader_spin_density
 _atom_site_hse06_ddec_charge
 _atom_site_hse06_ddec_spin_density
 _atom_site_hse06_ddec_sum_bond_order
 _atom_site_hse06_magmom
 _atom_site_pbe_bader_spin_density
 _atom_site_pbe_cm5_charge
 _atom_site_pbe_ddec_charge
 _atom_site_pbe_ddec_spin_density
 _atom_site_pbe_ddec_sum_bond_order
 _atom_site_pbe_magmom
Ag  Ag0  1  0.58991480  0.68664663  0.92488730  1  0  0.570369  0  1.428542  0  0  0.436918  0  1.882872  0  0  0.461378  0  1.836736  0  0  0.480264  0.421567  0  1.914183  0
Ag  Ag1  1  0.91008335  0.18664755  0.42488882  1  0  0.570394  0  1.428575  0  0  0.436949  0  1.882916  0  0  0.461407  0  1.83678  0  0  0.480266  0.421602  0  1.914221  0
Ag  Ag2  1  0.41008461  0.31335404  0.07511115  1  0  0.570418  0  1.428541  0  0  0.436981  0  1.882881  0  0  0.461438  0  1.836743  0  0  0.480275  0.421633  0  1.914182  0
Ag  Ag3  1  0.08991873  0.81335190  0.57511060  1  0  0.570399  0  1.428566  0  0  0.436953  0  1.882907  0  0  0.461413  0  1.836768  0  0  0.480276  0.421605  0  1.914214  0
H  H4  1  0.74683022  0.83305164  0.06324576  1  0  0.096911  0  0.999411  0  0  0.098084  0  1.072238  0  0  0.102858  0  1.067315  0  0  0.114816  0.094488  0  1.075903  0
H  H5  1  0.75316274  0.33305146  0.56324702  1  0  0.096891  0  0.999429  0  0  0.098059  0  1.07226  0  0  0.10283  0  1.067344  0  0  0.114822  0.094466  0  1.07592  0
H  H6  1  0.25316653  0.16694782  0.93675366  1  0  0.096908  0  0.999406  0  0  0.098081  0  1.072223  0  0  0.102855  0  1.067302  0  0  0.114811  0.094485  0  1.07589  0
H  H7  1  0.24683801  0.66694553  0.43675233  1  0  0.096896  0  0.99943  0  0  0.098058  0  1.072257  0  0  0.102824  0  1.067355  0  0  0.114813  0.094464  0  1.075915  0
H  H8  1  0.93420955  0.32845982  0.04373520  1  0  0.119761  0  0.928121  0  0  0.130777  0  0.983804  0  0  0.133374  0  0.982101  0  0  0.118427  0.128777  0  0.985268  0
H  H9  1  0.56579025  0.82846394  0.54373832  1  0  0.119753  0  0.9282  0  0  0.130793  0  0.983844  0  0  0.133389  0  0.982141  0  0  0.118464  0.128793  0  0.985308  0
H  H10  1  0.06578986  0.67153841  0.95626519  1  0  0.119767  0  0.928103  0  0  0.130791  0  0.98377  0  0  0.133387  0  0.982067  0  0  0.118455  0.128794  0  0.985236  0
H  H11  1  0.43421315  0.17153557  0.45626609  1  0  0.119792  0  0.928121  0  0  0.13084  0  0.983764  0  0  0.133435  0  0.982062  0  0  0.118471  0.128837  0  0.985232  0
H  H12  1  0.79712088  0.31740242  0.93131677  1  0  0.121684  0  0.966884  0  0  0.130691  0  1.027124  0  0  0.133897  0  1.02581  0  0  0.112238  0.128403  0  1.028272  0
H  H13  1  0.70287812  0.81740522  0.43131862  1  0  0.121685  0  0.9669  0  0  0.130698  0  1.027127  0  0  0.133903  0  1.025815  0  0  0.112218  0.128407  0  1.028269  0
H  H14  1  0.20287720  0.68259827  0.06868318  1  0  0.121689  0  0.966875  0  0  0.130695  0  1.027117  0  0  0.1339  0  1.025806  0  0  0.112245  0.128407  0  1.028262  0
H  H15  1  0.29712396  0.18259796  0.56868389  1  0  0.121671  0  0.966877  0  0  0.130681  0  1.027114  0  0  0.133886  0  1.025804  0  0  0.112231  0.12839  0  1.028268  0
H  H16  1  0.63375042  0.31039722  0.84937797  1  0  0.109454  0  0.980199  0  0  0.118178  0  1.04268  0  0  0.120667  0  1.043227  0  0  0.109562  0.116354  0  1.042567  0
H  H17  1  0.86624801  0.81039710  0.34938103  1  0  0.109459  0  0.9802  0  0  0.118189  0  1.04266  0  0  0.120678  0  1.043208  0  0  0.109576  0.116366  0  1.042549  0
H  H18  1  0.36624766  0.68960466  0.15061902  1  0  0.109473  0  0.98014  0  0  0.118212  0  1.042602  0  0  0.1207  0  1.04315  0  0  0.109589  0.116389  0  1.042489  0
H  H19  1  0.13375274  0.18960484  0.65062045  1  0  0.109498  0  0.98014  0  0  0.118236  0  1.042596  0  0  0.120724  0  1.043144  0  0  0.109609  0.116413  0  1.04249  0
H  H20  1  0.50439646  0.26737387  0.73589433  1  0  0.122146  0  0.930291  0  0  0.13003  0  0.99264  0  0  0.133422  0  0.989503  0  0  0.117181  0.127506  0  0.995038  0
H  H21  1  0.99559914  0.76737826  0.23589534  1  0  0.122118  0  0.930296  0  0  0.13001  0  0.992642  0  0  0.133402  0  0.989508  0  0  0.117178  0.127487  0  0.995036  0
H  H22  1  0.49560295  0.73262433  0.26410307  1  0  0.122122  0  0.93033  0  0  0.130036  0  0.992649  0  0  0.133429  0  0.989511  0  0  0.117177  0.127513  0  0.995041  0
H  H23  1  0.00439761  0.23262612  0.76410520  1  0  0.122132  0  0.93033  0  0  0.130035  0  0.99265  0  0  0.133429  0  0.989509  0  0  0.117171  0.127514  0  0.995043  0
H  H24  1  0.44200613  0.75271523  0.77301044  1  0  0.108206  0  0.947895  0  0  0.113355  0  1.014509  0  0  0.116874  0  1.010601  0  0  0.122438  0.110758  0  1.017385  0
H  H25  1  0.05799562  0.25271839  0.27300998  1  0  0.108272  0  0.947848  0  0  0.113341  0  1.014544  0  0  0.116859  0  1.010637  0  0  0.122432  0.110743  0  1.017424  0
H  H26  1  0.55799861  0.24728422  0.22698849  1  0  0.108239  0  0.947852  0  0  0.113347  0  1.014509  0  0  0.116865  0  1.010601  0  0  0.122419  0.110748  0  1.01739  0
H  H27  1  0.94200912  0.74728721  0.72699059  1  0  0.10817  0  0.94791  0  0  0.113311  0  1.014525  0  0  0.116829  0  1.01062  0  0  0.122422  0.110719  0  1.017401  0
C  C28  1  0.75708643  0.94267367  0.03504864  1  0  0.101719  0  3.667206  0  0  0.063363  0  3.920752  0  0  0.069594  0  3.936742  0  0  0.056248  0.059378  0  3.910196  0
C  C29  1  0.74291175  0.44267598  0.53504998  1  0  0.101762  0  3.667313  0  0  0.063444  0  3.920865  0  0  0.069675  0  3.936856  0  0  0.056229  0.059457  0  3.910316  0
C  C30  1  0.24291165  0.05732579  0.96495078  1  0  0.101737  0  3.667313  0  0  0.063403  0  3.920848  0  0  0.069633  0  3.936838  0  0  0.056256  0.05941  0  3.910295  0
C  C31  1  0.25709033  0.55732348  0.46494994  1  0  0.101795  0  3.667262  0  0  0.06346  0  3.920798  0  0  0.069691  0  3.936786  0  0  0.056252  0.059475  0  3.910243  0
C  C32  1  0.84649925  0.08261969  0.06270629  1  0  -0.015525  0  3.849137  0  0  0.006466  0  4.085177  0  0  0.001074  0  4.105972  0  0  0.008808  0.009566  0  4.071629  0
C  C33  1  0.65349851  0.58261985  0.56270820  1  0  -0.015508  0  3.848976  0  0  0.006411  0  4.085118  0  0  0.001014  0  4.105919  0  0  0.008816  0.009507  0  4.071576  0
C  C34  1  0.15349617  0.91738100  0.93729416  1  0  -0.015509  0  3.849175  0  0  0.006465  0  4.085219  0  0  0.00107  0  4.106022  0  0  0.008852  0.009568  0  4.071674  0
C  C35  1  0.34650090  0.41737594  0.43729262  1  0  -0.015601  0  3.848932  0  0  0.006339  0  4.085066  0  0  0.000941  0  4.10587  0  0  0.00876  0.009442  0  4.071513  0
C  C36  1  0.86190356  0.21966726  0.02454813  1  0  -0.015167  0  3.661929  0  0  -0.045584  0  3.915553  0  0  -0.040192  0  3.929579  0  0  -0.050944  -0.049089  0  3.906474  0
C  C37  1  0.63809543  0.71967115  0.52455016  1  0  -0.015109  0  3.661806  0  0  -0.045518  0  3.915422  0  0  -0.04012  0  3.929444  0  0  -0.050936  -0.049022  0  3.906339  0
C  C38  1  0.13809585  0.78033097  0.97545175  1  0  -0.015196  0  3.661883  0  0  -0.0456  0  3.915498  0  0  -0.040204  0  3.929522  0  0  -0.050991  -0.049111  0  3.906428  0
C  C39  1  0.36190664  0.28032833  0.47545176  1  0  -0.015087  0  3.661677  0  0  -0.045511  0  3.915305  0  0  -0.040116  0  3.929331  0  0  -0.050922  -0.049017  0  3.906228  0
C  C40  1  0.78528615  0.21205577  0.96142606  1  0  -0.119305  0  3.661292  0  0  -0.13719  0  3.913279  0  0  -0.143786  0  3.931535  0  0  -0.068426  -0.133283  0  3.901503  0
C  C41  1  0.71471557  0.71205854  0.46142889  1  0  -0.119434  0  3.661219  0  0  -0.137284  0  3.913207  0  0  -0.14388  0  3.931461  0  0  -0.068481  -0.133372  0  3.901423  0
C  C42  1  0.21471592  0.78794368  0.03857286  1  0  -0.119325  0  3.66129  0  0  -0.137233  0  3.913278  0  0  -0.143829  0  3.931534  0  0  -0.068461  -0.133326  0  3.901502  0
C  C43  1  0.28528916  0.28794341  0.53857408  1  0  -0.119357  0  3.661269  0  0  -0.137245  0  3.913277  0  0  -0.143841  0  3.93153  0  0  -0.068457  -0.133337  0  3.901505  0
C  C44  1  0.69721387  0.06856785  0.93709555  1  0  0.182635  0  3.726563  0  0  0.174872  0  3.972273  0  0  0.182745  0  3.990579  0  0  0.127669  0.169625  0  3.959979  0
C  C45  1  0.80278854  0.56857281  0.43709733  1  0  0.182651  0  3.726256  0  0  0.174801  0  3.972099  0  0  0.182671  0  3.990404  0  0  0.12759  0.169549  0  3.959812  0
C  C46  1  0.30278687  0.93143160  0.06290337  1  0  0.182574  0  3.726404  0  0  0.174847  0  3.972096  0  0  0.182718  0  3.9904  0  0  0.127622  0.169608  0  3.959792  0
C  C47  1  0.19721619  0.43143157  0.56290371  1  0  0.182671  0  3.726411  0  0  0.174885  0  3.972134  0  0  0.182758  0  3.990438  0  0  0.127653  0.169639  0  3.959837  0
C  C48  1  0.61405542  0.05311239  0.86995830  1  0  0.188839  0  3.731517  0  0  0.184886  0  3.974132  0  0  0.192878  0  3.993002  0  0  0.129818  0.179489  0  3.961498  0
C  C49  1  0.88594765  0.55311343  0.36996036  1  0  0.188814  0  3.731342  0  0  0.18488  0  3.973985  0  0  0.192871  0  3.992857  0  0  0.129802  0.179484  0  3.961352  0
C  C50  1  0.38594399  0.94688828  0.13004066  1  0  0.188852  0  3.731423  0  0  0.184894  0  3.974047  0  0  0.192886  0  3.992916  0  0  0.129825  0.179495  0  3.96141  0
C  C51  1  0.11405576  0.44688973  0.63004064  1  0  0.188867  0  3.73141  0  0  0.184924  0  3.974038  0  0  0.192915  0  3.992908  0  0  0.129841  0.179526  0  3.961404  0
C  C52  1  0.59372386  0.18785746  0.83071894  1  0  -0.119492  0  3.66454  0  0  -0.138637  0  3.912411  0  0  -0.147303  0  3.934496  0  0  -0.072908  -0.133275  0  3.897959  0
C  C53  1  0.90627779  0.68786088  0.33072054  1  0  -0.11945  0  3.66439  0  0  -0.138586  0  3.912264  0  0  -0.147251  0  3.934351  0  0  -0.072879  -0.133227  0  3.897816  0
C  C54  1  0.40627555  0.81214199  0.16927999  1  0  -0.11948  0  3.664493  0  0  -0.138646  0  3.912407  0  0  -0.147311  0  3.934493  0  0  -0.072919  -0.133288  0  3.89796  0
C  C55  1  0.09372162  0.31214227  0.66928047  1  0  -0.119504  0  3.664468  0  0  -0.138667  0  3.912353  0  0  -0.147334  0  3.934446  0  0  -0.072919  -0.133307  0  3.897913  0
C  C56  1  0.51913270  0.16493735  0.76756219  1  0  0.003437  0  3.631711  0  0  -0.027912  0  3.881706  0  0  -0.021773  0  3.896045  0  0  -0.04503  -0.03187  0  3.872287  0
C  C57  1  0.98086960  0.66494056  0.26756419  1  0  0.003523  0  3.631587  0  0  -0.027853  0  3.881619  0  0  -0.021714  0  3.895959  0  0  -0.044972  -0.031811  0  3.872194  0
C  C58  1  0.48086671  0.83506208  0.23243474  1  0  0.003549  0  3.631746  0  0  -0.027833  0  3.881756  0  0  -0.021695  0  3.896096  0  0  -0.045015  -0.031794  0  3.872335  0
C  C59  1  0.01912848  0.33506259  0.73243582  1  0  0.003444  0  3.631842  0  0  -0.027894  0  3.881805  0  0  -0.02176  0  3.896149  0  0  -0.045016  -0.031856  0  3.872386  0
C  C60  1  0.46498090  0.00578159  0.74543545  1  0  -0.016944  0  3.845597  0  0  0.006729  0  4.080247  0  0  -0.00063  0  4.099918  0  0  0.014981  0.01116  0  4.06743  0
C  C61  1  0.03501923  0.50578488  0.24543703  1  0  -0.016877  0  3.845463  0  0  0.0068  0  4.080117  0  0  -0.000561  0  4.099792  0  0  0.01495  0.011242  0  4.067285  0
C  C62  1  0.53501718  0.99421785  0.25456297  1  0  -0.017003  0  3.84566  0  0  0.006673  0  4.080315  0  0  -0.000687  0  4.099989  0  0  0.014965  0.011111  0  4.067496  0
C  C63  1  0.96498018  0.49421827  0.75456298  1  0  -0.01688  0  3.845562  0  0  0.006767  0  4.080247  0  0  -0.000591  0  4.099924  0  0  0.014963  0.011207  0  4.067424  0
C  C64  1  0.48477045  0.87733033  0.78824807  1  0  0.131816  0  3.639114  0  0  0.093543  0  3.88679  0  0  0.101221  0  3.902318  0  0  0.074829  0.088624  0  3.876364  0
C  C65  1  0.01523075  0.37733119  0.28824910  1  0  0.131802  0  3.639199  0  0  0.093595  0  3.886856  0  0  0.101275  0  3.902384  0  0  0.07485  0.088671  0  3.876435  0
C  C66  1  0.51523029  0.12267033  0.21174989  1  0  0.131883  0  3.639207  0  0  0.093656  0  3.886841  0  0  0.101334  0  3.90237  0  0  0.074936  0.088731  0  3.876417  0
C  C67  1  0.98477132  0.62267319  0.71175095  1  0  0.131894  0  3.6392  0  0  0.093646  0  3.886879  0  0  0.101323  0  3.902408  0  0  0.074898  0.088717  0  3.876458  0
C  C68  1  0.91963706  0.07523325  0.12778772  1  0  0.287445  0  3.721105  0  0  0.270963  0  3.99501  0  0  0.281364  0  4.01554  0  0  0.193979  0.263898  0  3.981455  0
C  C69  1  0.58036014  0.57523240  0.62778970  1  0  0.28727  0  3.721228  0  0  0.270791  0  3.995192  0  0  0.281195  0  4.015725  0  0  0.193885  0.263728  0  3.981632  0
C  C70  1  0.08035836  0.92476621  0.87221270  1  0  0.28742  0  3.721089  0  0  0.270931  0  3.995016  0  0  0.281334  0  4.015547  0  0  0.193941  0.263869  0  3.981458  0
C  C71  1  0.41963927  0.42476093  0.37221106  1  0  0.287363  0  3.72122  0  0  0.270881  0  3.995164  0  0  0.281285  0  4.015695  0  0  0.193891  0.263813  0  3.981611  0
C  C72  1  0.39062239  0.97136800  0.68124400  1  0  0.341806  0  3.700265  0  0  0.315378  0  3.970732  0  0  0.331309  0  3.9859  0  0  0.221077  0.30441  0  3.961138  0
C  C73  1  0.10937548  0.47136980  0.18124543  1  0  0.341609  0  3.700199  0  0  0.315178  0  3.970674  0  0  0.331112  0  3.985842  0  0  0.221013  0.304209  0  3.961072  0
C  C74  1  0.60937435  0.02862897  0.31875287  1  0  0.341686  0  3.700099  0  0  0.315264  0  3.970566  0  0  0.331198  0  3.985734  0  0  0.22102  0.304294  0  3.960972  0
C  C75  1  0.89062127  0.52863459  0.81875660  1  0  0.341636  0  3.700278  0  0  0.315207  0  3.970757  0  0  0.331135  0  3.985927  0  0  0.221013  0.304238  0  3.961163  0
N  N76  1  0.68608826  0.93605897  0.97412945  1  0  -0.32052  0  3.274533  0  0  -0.257264  0  3.562707  0  0  -0.273999  0  3.577308  0  0  -0.323933  -0.246145  0  3.552713  0
N  N77  1  0.81391130  0.43606141  0.47413164  1  0  -0.320514  0  3.274441  0  0  -0.257259  0  3.562674  0  0  -0.273988  0  3.577266  0  0  -0.323862  -0.24614  0  3.552686  0
N  N78  1  0.31390982  0.06394170  0.02586900  1  0  -0.320457  0  3.274463  0  0  -0.257245  0  3.562674  0  0  -0.273974  0  3.577267  0  0  -0.323886  -0.246126  0  3.552677  0
N  N79  1  0.18609211  0.56394051  0.52586884  1  0  -0.320551  0  3.274508  0  0  -0.257275  0  3.562668  0  0  -0.274009  0  3.577265  0  0  -0.323906  -0.246157  0  3.552673  0
N  N80  1  0.55746636  0.90166042  0.84842368  1  0  -0.319817  0  3.235271  0  0  -0.261026  0  3.514061  0  0  -0.277578  0  3.528834  0  0  -0.314877  -0.249994  0  3.504037  0
N  N81  1  0.94253711  0.40166249  0.34842619  1  0  -0.319896  0  3.235352  0  0  -0.261087  0  3.51409  0  0  -0.277639  0  3.528862  0  0  -0.314874  -0.250053  0  3.504066  0
N  N82  1  0.44253571  0.09834025  0.15157477  1  0  -0.319899  0  3.235343  0  0  -0.261123  0  3.514141  0  0  -0.277674  0  3.528913  0  0  -0.314916  -0.250081  0  3.504106  0
N  N83  1  0.05746497  0.59834067  0.65157532  1  0  -0.319904  0  3.235363  0  0  -0.261128  0  3.514167  0  0  -0.277679  0  3.528938  0  0  -0.314916  -0.25009  0  3.504139  0
N  N84  1  0.97805602  0.05861137  0.18080946  1  0  -0.379924  0  2.552757  0  0  -0.355103  0  2.768732  0  0  -0.367093  0  2.783234  0  0  -0.288798  -0.347176  0  2.759119  0
N  N85  1  0.52194075  0.55860699  0.68081043  1  0  -0.379768  0  2.552873  0  0  -0.354945  0  2.768852  0  0  -0.366934  0  2.783354  0  0  -0.288718  -0.347018  0  2.759232  0
N  N86  1  0.02193940  0.94138932  0.81919099  1  0  -0.379912  0  2.552711  0  0  -0.355097  0  2.768691  0  0  -0.367086  0  2.783194  0  0  -0.288778  -0.347172  0  2.759078  0
N  N87  1  0.47806132  0.44138634  0.31919033  1  0  -0.379889  0  2.552834  0  0  -0.355073  0  2.768829  0  0  -0.367057  0  2.78332  0  0  -0.288751  -0.347142  0  2.759216  0
N  N88  1  0.32694894  0.94092691  0.62873851  1  0  -0.43193  0  2.840613  0  0  -0.388417  0  3.13948  0  0  -0.402516  0  3.140421  0  0  -0.331701  -0.379699  0  3.139542  0
N  N89  1  0.17305217  0.44092729  0.12873933  1  0  -0.431839  0  2.840567  0  0  -0.388319  0  3.139424  0  0  -0.402419  0  3.140366  0  0  -0.33168  -0.379603  0  3.139483  0
N  N90  1  0.67305446  0.05907254  0.37126041  1  0  -0.431885  0  2.840399  0  0  -0.388381  0  3.139272  0  0  -0.402481  0  3.140214  0  0  -0.331691  -0.379661  0  3.139335  0
N  N91  1  0.82694990  0.55906970  0.87125953  1  0  -0.431834  0  2.840777  0  0  -0.388303  0  3.13962  0  0  -0.4024  0  3.140562  0  0  -0.331676  -0.379584  0  3.139683  0
N  N92  1  0.29584039  0.45768023  0.88457721  1  0  0.674339  0  4.162238  0  0  0.707767  0  4.451629  0  0  0.73415  0  4.460393  0  0  0.086862  0.688643  0  4.445124  0
N  N93  1  0.20415836  0.95768179  0.38457853  1  0  0.674241  0  4.162177  0  0  0.707726  0  4.45154  0  0  0.734058  0  4.46037  0  0  0.086783  0.688598  0  4.44504  0
N  N94  1  0.70416036  0.54231923  0.11542271  1  0  0.674578  0  4.161974  0  0  0.707805  0  4.45158  0  0  0.734189  0  4.460343  0  0  0.086888  0.688675  0  4.445083  0
N  N95  1  0.79584371  0.04231768  0.61542189  1  0  0.674092  0  4.162502  0  0  0.707553  0  4.451893  0  0  0.733923  0  4.460663  0  0  0.086761  0.68843  0  4.445384  0
O  O96  1  0.40241424  0.45977393  0.93542869  1  0  -0.503724  0  1.824689  0  0  -0.473478  0  2.087003  0  0  -0.492762  0  2.076093  0  0  -0.21904  -0.459228  0  2.094132  0
O  O97  1  0.09758270  0.95977457  0.43542962  1  0  -0.503635  0  1.824736  0  0  -0.473414  0  2.087071  0  0  -0.492681  0  2.076179  0  0  -0.218982  -0.459163  0  2.0942  0
O  O98  1  0.59758384  0.54022431  0.06457220  1  0  -0.503847  0  1.82464  0  0  -0.473559  0  2.087058  0  0  -0.492843  0  2.076145  0  0  -0.219091  -0.45931  0  2.094192  0
O  O99  1  0.90242070  0.04022490  0.56457130  1  0  -0.503599  0  1.824836  0  0  -0.473361  0  2.087164  0  0  -0.492641  0  2.076257  0  0  -0.218956  -0.459113  0  2.09429  0
O  O100  1  0.30804116  0.56897289  0.84430868  1  0  -0.463808  0  1.777769  0  0  -0.456175  0  2.005348  0  0  -0.471433  0  2.000831  0  0  -0.189584  -0.444483  0  2.008046  0
O  O101  1  0.19195920  0.06897322  0.34430947  1  0  -0.463854  0  1.777716  0  0  -0.456219  0  2.005253  0  0  -0.471461  0  2.000756  0  0  -0.189593  -0.44452  0  2.007948  0
O  O102  1  0.69196091  0.43102534  0.15569121  1  0  -0.463914  0  1.777715  0  0  -0.456193  0  2.005325  0  0  -0.471453  0  2.000808  0  0  -0.1896  -0.444495  0  2.00802  0
O  O103  1  0.80804287  0.93102624  0.65569095  1  0  -0.46375  0  1.777831  0  0  -0.456132  0  2.005398  0  0  -0.471386  0  2.000883  0  0  -0.189595  -0.444438  0  2.008094  0
O  O104  1  0.18258916  0.34444636  0.87687739  1  0  -0.454407  0  1.780837  0  0  -0.441214  0  1.990592  0  0  -0.457738  0  1.989125  0  0  -0.183939  -0.428408  0  1.991033  0
O  O105  1  0.31740869  0.84444760  0.37687955  1  0  -0.45438  0  1.780811  0  0  -0.441198  0  1.990525  0  0  -0.457703  0  1.989079  0  0  -0.183914  -0.428393  0  1.990971  0
O  O106  1  0.81740892  0.65555309  0.12312203  1  0  -0.454469  0  1.780769  0  0  -0.441192  0  1.990568  0  0  -0.457716  0  1.989101  0  0  -0.183919  -0.428386  0  1.991012  0
O  O107  1  0.68259072  0.15555063  0.62312034  1  0  -0.454343  0  1.780843  0  0  -0.441152  0  1.990568  0  0  -0.45767  0  1.989101  0  0  -0.183921  -0.428347  0  1.991011  0
