# generated using pymatgen
data_AlH3C27(OF2)6
_symmetry_space_group_name_H-M   'P 1'
_cell_length_a   4.07411715
_cell_length_b   27.87248620
_cell_length_c   27.90837540
_cell_angle_alpha   59.99594298
_cell_angle_beta   89.81120052
_cell_angle_gamma   89.57715243
_symmetry_Int_Tables_number   1
_chemical_formula_structural   AlH3C27(OF2)6
_chemical_formula_sum   'Al3 H9 C81 O18 F36'
_cell_volume   2744.38338655
_cell_formula_units_Z   3
loop_
 _symmetry_equiv_pos_site_id
 _symmetry_equiv_pos_as_xyz
  1  'x, y, z'
loop_
 _atom_site_type_symbol
 _atom_site_label
 _atom_site_symmetry_multiplicity
 _atom_site_fract_x
 _atom_site_fract_y
 _atom_site_fract_z
 _atom_site_occupancy
 _atom_site_pbe_bader_charge
 _atom_site_pbe_bader_spin_density
 _atom_site_pbe_cm5_charge
 _atom_site_pbe_ddec_charge
 _atom_site_pbe_ddec_spin_density
 _atom_site_pbe_ddec_sum_bond_order
 _atom_site_pbe_magmom
Al  Al0  1  0.99889186  0.49992020  0.49989724  1  2.507189  0  0.439616  1.621751  0  2.556685  0
Al  Al1  1  0.96611931  0.83312034  0.83314918  1  2.505321  0  0.440393  1.611682  0  2.556858  0
Al  Al2  1  0.04327191  0.16655365  0.16640874  1  2.51015  0  0.440161  1.611163  0  2.557858  0
H  H3  1  0.51011501  0.07722908  0.92253850  1  0.101084  0  0.101863  0.116331  0  1.025007  0
H  H4  1  0.46363507  0.25517275  0.83330557  1  0.109122  0  0.103604  0.117922  0  1.013671  0
H  H5  1  0.55654822  0.16620678  0.74490418  1  0.104755  0  0.103495  0.117261  0  1.014753  0
H  H6  1  0.51052541  0.49993768  0.07756698  1  0.099186  0  0.10216  0.116544  0  1.024609  0
H  H7  1  0.55863330  0.58873803  0.16647495  1  0.105208  0  0.103853  0.117867  0  1.013077  0
H  H8  1  0.46084666  0.41152572  0.25521715  1  0.107863  0  0.103704  0.117846  0  1.012535  0
H  H9  1  0.49069609  0.92289744  0.49969884  1  0.09229  0  0.101889  0.116184  0  1.024283  0
H  H10  1  0.43671881  0.83383738  0.41113354  1  0.10599  0  0.103701  0.118359  0  1.013378  0
H  H11  1  0.53249975  0.74488106  0.58824717  1  0.127034  0  0.103689  0.118205  0  1.013973  0
C  C12  1  0.49430644  0.57321102  0.49980473  1  1.66265  0  0.281912  0.701211  0  4.04269  0
C  C13  1  0.50131259  0.42670135  0.57306995  1  1.625653  0  0.282515  0.702479  0  4.03957  0
C  C14  1  0.50101094  0.49999400  0.42669314  1  1.637692  0  0.281204  0.700992  0  4.040838  0
C  C15  1  0.46413816  0.90629668  0.83295656  1  1.663615  0  0.292242  0.715973  0  4.032432  0
C  C16  1  0.46968372  0.76023250  0.90638447  1  1.657197  0  0.291611  0.717089  0  4.029966  0
C  C17  1  0.46864934  0.83267514  0.76038356  1  1.659935  0  0.292884  0.717546  0  4.030493  0
C  C18  1  0.54389376  0.16708807  0.09318107  1  1.648415  0  0.29202  0.715143  0  4.032743  0
C  C19  1  0.53830802  0.23931051  0.16713455  1  1.644636  0  0.292764  0.717443  0  4.031074  0
C  C20  1  0.54296357  0.09336382  0.23927789  1  1.643247  0  0.292117  0.715717  0  4.033481  0
C  C21  1  0.50090170  0.16625869  0.88399608  1  0.01989  0  -0.009289  0.105205  0  3.998898  0
C  C22  1  0.51019174  0.11612799  0.88365623  1  -0.025475  0  -0.080923  -0.159236  0  3.886944  0
C  C23  1  0.51942670  0.11566415  0.83366344  1  -0.026467  0  -0.008929  0.105412  0  3.998149  0
C  C24  1  0.53056858  0.16612325  0.78367571  1  0.010839  0  -0.080682  -0.159087  0  3.896644  0
C  C25  1  0.51009825  0.21655445  0.78324082  1  0.046315  0  -0.00882  0.103066  0  4.000434  0
C  C26  1  0.48988508  0.21627213  0.83352155  1  0.012239  0  -0.080271  -0.159063  0  3.89572  0
C  C27  1  0.64258141  0.96385275  0.87504476  1  0.527105  0  0.092488  0.159558  0  4.107966  0
C  C28  1  0.66318361  0.01401217  0.87442148  1  0.563039  0  0.089382  0.126758  0  4.07526  0
C  C29  1  0.50942729  0.06263831  0.83355181  1  0.099481  0  -0.017154  -0.113427  0  4.044871  0
C  C30  1  0.33506833  0.05733731  0.79300793  1  0.517211  0  0.089242  0.127593  0  4.069204  0
C  C31  1  0.31940267  0.00748557  0.79293066  1  0.524627  0  0.091125  0.156345  0  4.111131  0
C  C32  1  0.47302996  0.95982335  0.83394785  1  0.148187  0  -0.023253  -0.221045  0  4.014485  0
C  C33  1  0.35323610  0.12568014  0.98517421  1  0.544568  0  0.089415  0.126246  0  4.073843  0
C  C34  1  0.36986548  0.12521600  0.03523903  1  0.546683  0  0.091855  0.157844  0  4.106879  0
C  C35  1  0.53645168  0.16633974  0.03957374  1  0.11566  0  -0.02308  -0.220324  0  4.013779  0
C  C36  1  0.69069157  0.20730700  0.99227804  1  0.563229  0  0.09142  0.157439  0  4.110301  0
C  C37  1  0.67900434  0.20707117  0.94252865  1  0.513955  0  0.089747  0.126889  0  4.068931  0
C  C38  1  0.50800486  0.16646190  0.93693079  1  0.047658  0  -0.017661  -0.113437  0  4.044868  0
C  C39  1  0.67206552  0.31675243  0.72329649  1  0.522676  0  0.086838  0.117338  0  4.074765  0
C  C40  1  0.67103683  0.36679972  0.67349052  1  0.599156  0  0.098869  0.172893  0  4.081691  0
C  C41  1  0.50381949  0.37311323  0.62665846  1  0.091517  0  -0.022491  -0.227409  0  3.970873  0
C  C42  1  0.33935944  0.32605015  0.63317650  1  0.596954  0  0.098969  0.17308  0  4.082841  0
C  C43  1  0.34294789  0.27622331  0.68319743  1  0.509894  0  0.087548  0.117217  0  4.07429  0
C  C44  1  0.50866557  0.26953917  0.73020518  1  0.041368  0  -0.013504  -0.099012  0  4.044609  0
C  C45  1  0.52143013  0.55046926  0.11595930  1  0.043732  0  -0.008817  0.105609  0  3.996898  0
C  C46  1  0.51038071  0.49997097  0.11642064  1  -0.003024  0  -0.081444  -0.160628  0  3.889294  0
C  C47  1  0.49896708  0.44953751  0.16647209  1  0.031689  0  -0.009226  0.105465  0  3.997459  0
C  C48  1  0.48825297  0.45012092  0.21639002  1  -0.015953  0  -0.080291  -0.158467  0  3.893978  0
C  C49  1  0.50992505  0.50013304  0.21667534  1  0.03555  0  -0.008879  0.102034  0  4.001958  0
C  C50  1  0.53186646  0.55006832  0.16635522  1  0.000852  0  -0.080592  -0.158631  0  3.896295  0
C  C51  1  0.36131815  0.33942753  0.12558464  1  0.596111  0  0.092342  0.160358  0  4.107716  0
C  C52  1  0.34669402  0.38915805  0.12598381  1  0.52178  0  0.088901  0.124743  0  4.075469  0
C  C53  1  0.50387990  0.39629030  0.16674152  1  0.035085  0  -0.017183  -0.113145  0  4.044988  0
C  C54  1  0.67493022  0.34965917  0.20742192  1  0.550801  0  0.089134  0.126258  0  4.071016  0
C  C55  1  0.68491290  0.29958492  0.20767836  1  0.558831  0  0.09272  0.159552  0  4.10805  0
C  C56  1  0.52883586  0.29359234  0.16667955  1  0.068197  0  -0.023701  -0.222851  0  4.014903  0
C  C57  1  0.67031727  0.61083137  0.01486332  1  0.52576  0  0.089403  0.126175  0  4.07487  0
C  C58  1  0.65151327  0.66036940  0.96466980  1  0.546703  0  0.092512  0.159724  0  4.107448  0
C  C59  1  0.48040113  0.70592436  0.96010613  1  0.116962  0  -0.023126  -0.222517  0  4.014121  0
C  C60  1  0.32469375  0.69982621  0.00730157  1  0.533589  0  0.092065  0.157753  0  4.110485  0
C  C61  1  0.33890262  0.64992978  0.05719120  1  0.559379  0  0.089315  0.127121  0  4.071249  0
C  C62  1  0.51384721  0.60361691  0.06296321  1  0.038725  0  -0.01785  -0.114371  0  4.046266  0
C  C63  1  0.34056309  0.54063347  0.27625512  1  0.520675  0  0.087162  0.116916  0  4.075794  0
C  C64  1  0.33694671  0.54079435  0.32606052  1  0.550458  0  0.099115  0.172849  0  4.082604  0
C  C65  1  0.50371109  0.50009008  0.37309316  1  0.116517  0  -0.022417  -0.226805  0  3.970386  0
C  C66  1  0.67351899  0.45949712  0.36677027  1  0.583932  0  0.099535  0.173355  0  4.082576  0
C  C67  1  0.67446905  0.45976048  0.31675432  1  0.532164  0  0.086505  0.116558  0  4.078549  0
C  C68  1  0.50847769  0.50018720  0.26961774  1  0.050876  0  -0.01306  -0.097975  0  4.045908  0
C  C69  1  0.47746850  0.88437631  0.44931609  1  -0.000654  0  -0.009005  0.105299  0  3.999205  0
C  C70  1  0.48866550  0.88396025  0.49973023  1  -0.002139  0  -0.080522  -0.158835  0  3.886983  0
C  C71  1  0.49805997  0.83383339  0.55014760  1  0.032448  0  -0.00924  0.105677  0  3.997397  0
C  C72  1  0.50630869  0.78379205  0.54963984  1  -0.024404  0  -0.080039  -0.159115  0  3.897129  0
C  C73  1  0.48393114  0.78350639  0.49969769  1  0.035278  0  -0.009857  0.102798  0  4.003155  0
C  C74  1  0.46388435  0.83391744  0.44977583  1  -0.002312  0  -0.080396  -0.160007  0  3.897654  0
C  C75  1  0.64056532  0.87444788  0.66032788  1  0.559642  0  0.09229  0.159184  0  4.10787  0
C  C76  1  0.65270044  0.87418876  0.61057994  1  0.556849  0  0.089027  0.126254  0  4.072187  0
C  C77  1  0.49492102  0.83356842  0.60333091  1  0.018775  0  -0.017923  -0.114836  0  4.046031  0
C  C78  1  0.32573318  0.79290213  0.64987950  1  0.550834  0  0.090077  0.126794  0  4.070118  0
C  C79  1  0.31888583  0.79244359  0.69999761  1  0.580384  0  0.090625  0.157481  0  4.110506  0
C  C80  1  0.47548382  0.83330772  0.70608865  1  0.069497  0  -0.022605  -0.221898  0  4.016098  0
C  C81  1  0.33602288  0.98607485  0.38836097  1  0.493561  0  0.089145  0.126366  0  4.075324  0
C  C82  1  0.35886667  0.03616164  0.33881753  1  0.542745  0  0.092574  0.15937  0  4.107326  0
C  C83  1  0.53062833  0.03994031  0.29381910  1  0.063477  0  -0.023178  -0.2213  0  4.014968  0
C  C84  1  0.68348933  0.99211624  0.30054227  1  0.591869  0  0.0915  0.15697  0  4.111767  0
C  C85  1  0.66531638  0.94233984  0.35045438  1  0.501837  0  0.089124  0.126829  0  4.0702  0
C  C86  1  0.48909375  0.93731330  0.39617722  1  0.160313  0  -0.017423  -0.113708  0  4.046004  0
C  C87  1  0.65128581  0.72375307  0.45929152  1  0.493714  0  0.086553  0.117342  0  4.075263  0
C  C88  1  0.65542646  0.67389540  0.45910784  1  0.589706  0  0.099663  0.173252  0  4.081528  0
C  C89  1  0.49007723  0.62689162  0.49968044  1  0.053434  0  -0.02264  -0.227439  0  3.969904  0
C  C90  1  0.32116817  0.63331520  0.54016608  1  0.574584  0  0.099668  0.173952  0  4.081601  0
C  C91  1  0.31978275  0.68340144  0.53992022  1  0.498923  0  0.087132  0.11796  0  4.075589  0
C  C92  1  0.48432365  0.73052044  0.49961477  1  0.111515  0  -0.013256  -0.099907  0  4.04772  0
O  O93  1  0.73713376  0.47528674  0.45989524  1  -1.24584  0  -0.231372  -0.593179  0  2.37957  0
O  O94  1  0.73194905  0.56476069  0.47526371  1  -1.238757  0  -0.231833  -0.591846  0  2.376864  0
O  O95  1  0.73572675  0.45990463  0.56452703  1  -1.243771  0  -0.232394  -0.5937  0  2.378546  0
O  O96  1  0.26287469  0.52457211  0.43512810  1  -1.243503  0  -0.231738  -0.592317  0  2.375422  0
O  O97  1  0.26533558  0.43510517  0.54002637  1  -1.244771  0  -0.232021  -0.592685  0  2.375491  0
O  O98  1  0.25987137  0.53995732  0.52450755  1  -1.245081  0  -0.232207  -0.593679  0  2.379091  0
O  O99  1  0.70380091  0.80786912  0.79345604  1  -1.245812  0  -0.224296  -0.583786  0  2.351942  0
O  O100  1  0.69842665  0.89793407  0.80795881  1  -1.239916  0  -0.225113  -0.584901  0  2.352082  0
O  O101  1  0.70216053  0.79354431  0.89791094  1  -1.242111  0  -0.224868  -0.585827  0  2.353724  0
O  O102  1  0.22839364  0.85691946  0.76838207  1  -1.238665  0  -0.223005  -0.582414  0  2.358431  0
O  O103  1  0.23047488  0.76809506  0.87435842  1  -1.239064  0  -0.221204  -0.580114  0  2.357103  0
O  O104  1  0.22513308  0.87432027  0.85697354  1  -1.251036  0  -0.221858  -0.580357  0  2.359674  0
O  O105  1  0.78238850  0.12515796  0.23145839  1  -1.233979  0  -0.2218  -0.580081  0  2.359663  0
O  O106  1  0.78382795  0.14288832  0.12523850  1  -1.233783  0  -0.221549  -0.580325  0  2.359679  0
O  O107  1  0.77820113  0.23140488  0.14287371  1  -1.232027  0  -0.222406  -0.5818  0  2.358123  0
O  O108  1  0.31077763  0.10182970  0.20575007  1  -1.237231  0  -0.225129  -0.585215  0  2.352402  0
O  O109  1  0.30491866  0.20612280  0.19182795  1  -1.243367  0  -0.224673  -0.584431  0  2.35343  0
O  O110  1  0.30838402  0.19196613  0.10154900  1  -1.235348  0  -0.224616  -0.583354  0  2.3505  0
F  F111  1  0.14945147  0.00549432  0.75244092  1  -0.616353  0  -0.082311  -0.09266  0  1.359129  0
F  F112  1  0.79410795  0.91866118  0.91591732  1  -0.613549  0  -0.081533  -0.091668  0  1.363498  0
F  F113  1  0.16520639  0.10092240  0.75295185  1  -0.626394  0  -0.079427  -0.09918  0  1.404358  0
F  F114  1  0.84614563  0.01474197  0.91458225  1  -0.623852  0  -0.081408  -0.100919  0  1.391375  0
F  F115  1  0.21747083  0.08443049  0.08004474  1  -0.612271  0  -0.081283  -0.091066  0  1.363143  0
F  F116  1  0.17284788  0.08548536  0.98415329  1  -0.623951  0  -0.080901  -0.100121  0  1.392384  0
F  F117  1  0.85735323  0.24789949  0.99452437  1  -0.614119  0  -0.082627  -0.093119  0  1.359781  0
F  F118  1  0.84930294  0.24709180  0.89934984  1  -0.626122  0  -0.079935  -0.099283  0  1.402549  0
F  F119  1  0.84813846  0.31441940  0.76560011  1  -0.62297  0  -0.082199  -0.101361  0  1.4015  0
F  F120  1  0.83551544  0.40908674  0.67233793  1  -0.607751  0  -0.077671  -0.087226  0  1.388473  0
F  F121  1  0.16890130  0.23372380  0.68570117  1  -0.622416  0  -0.08246  -0.10095  0  1.40307  0
F  F122  1  0.17299868  0.32700524  0.59109557  1  -0.610266  0  -0.077752  -0.087636  0  1.387305  0
F  F123  1  0.85220892  0.25635137  0.24824836  1  -0.614608  0  -0.082394  -0.092784  0  1.359376  0
F  F124  1  0.20669990  0.33570500  0.08482698  1  -0.610794  0  -0.081788  -0.092333  0  1.363484  0
F  F125  1  0.84704521  0.35250497  0.24742934  1  -0.622781  0  -0.080162  -0.099519  0  1.402102  0
F  F126  1  0.16617748  0.43086697  0.08576264  1  -0.625766  0  -0.080736  -0.099362  0  1.393912  0
F  F127  1  0.80536873  0.66417576  0.91995444  1  -0.61016  0  -0.081769  -0.091686  0  1.364027  0
F  F128  1  0.85378164  0.56937107  0.01618190  1  -0.622957  0  -0.080942  -0.099704  0  1.392024  0
F  F129  1  0.15335029  0.74275165  0.00477830  1  -0.613797  0  -0.082387  -0.092398  0  1.359558  0
F  F130  1  0.16678689  0.64688693  0.10028922  1  -0.623547  0  -0.08003  -0.099197  0  1.402749  0
F  F131  1  0.16446052  0.58073079  0.23371637  1  -0.626823  0  -0.082484  -0.101177  0  1.401347  0
F  F132  1  0.16828739  0.58201984  0.32703448  1  -0.606544  0  -0.077988  -0.087545  0  1.387615  0
F  F133  1  0.85260958  0.41969525  0.31436318  1  -0.623122  0  -0.08208  -0.101033  0  1.402083  0
F  F134  1  0.84059273  0.41826812  0.40902122  1  -0.611821  0  -0.077997  -0.087563  0  1.387683  0
F  F135  1  0.15364535  0.75184856  0.74314525  1  -0.620888  0  -0.081816  -0.092106  0  1.360536  0
F  F136  1  0.79530513  0.91514169  0.66410028  1  -0.611862  0  -0.081666  -0.09168  0  1.362928  0
F  F137  1  0.15265012  0.75305378  0.64697951  1  -0.621508  0  -0.079987  -0.098991  0  1.402375  0
F  F138  1  0.83154123  0.91441766  0.56897472  1  -0.625133  0  -0.080811  -0.09982  0  1.392271  0
F  F139  1  0.20806410  0.08151882  0.33441650  1  -0.609599  0  -0.081313  -0.091084  0  1.364202  0
F  F140  1  0.15185185  0.98553771  0.42920793  1  -0.622083  0  -0.081366  -0.100374  0  1.390365  0
F  F141  1  0.85558630  0.99391506  0.25817593  1  -0.613597  0  -0.082276  -0.092588  0  1.358568  0
F  F142  1  0.83480938  0.89857647  0.35411836  1  -0.620209  0  -0.079546  -0.09897  0  1.404439  0
F  F143  1  0.82652468  0.76618432  0.41933744  1  -0.623566  0  -0.082069  -0.101033  0  1.402532  0
F  F144  1  0.82339009  0.67283245  0.41801485  1  -0.609497  0  -0.078103  -0.087591  0  1.387706  0
F  F145  1  0.14283380  0.68586199  0.57990940  1  -0.620384  0  -0.082358  -0.10152  0  1.400913  0
F  F146  1  0.15567395  0.59108499  0.58130215  1  -0.612685  0  -0.077994  -0.087858  0  1.388125  0
