# generated using pymatgen
data_CdH26C26(N2Cl)2
_symmetry_space_group_name_H-M   'P 1'
_cell_length_a   10.09181347
_cell_length_b   10.62305901
_cell_length_c   13.90910013
_cell_angle_alpha   107.90149729
_cell_angle_beta   102.24900606
_cell_angle_gamma   108.64589731
_symmetry_Int_Tables_number   1
_chemical_formula_structural   CdH26C26(N2Cl)2
_chemical_formula_sum   'Cd2 H52 C52 N8 Cl4'
_cell_volume   1262.26763365
_cell_formula_units_Z   2
loop_
 _symmetry_equiv_pos_site_id
 _symmetry_equiv_pos_as_xyz
  1  'x, y, z'
loop_
 _atom_site_type_symbol
 _atom_site_label
 _atom_site_symmetry_multiplicity
 _atom_site_fract_x
 _atom_site_fract_y
 _atom_site_fract_z
 _atom_site_occupancy
 _atom_site_hle17_bader_spin_density
 _atom_site_hle17_ddec_charge
 _atom_site_hle17_ddec_spin_density
 _atom_site_hle17_ddec_sum_bond_order
 _atom_site_hle17_magmom
 _atom_site_hse06_10hf_bader_spin_density
 _atom_site_hse06_10hf_ddec_charge
 _atom_site_hse06_10hf_ddec_spin_density
 _atom_site_hse06_10hf_ddec_sum_bond_order
 _atom_site_hse06_10hf_magmom
 _atom_site_hse06_bader_spin_density
 _atom_site_hse06_ddec_charge
 _atom_site_hse06_ddec_spin_density
 _atom_site_hse06_ddec_sum_bond_order
 _atom_site_hse06_magmom
 _atom_site_pbe_bader_spin_density
 _atom_site_pbe_cm5_charge
 _atom_site_pbe_ddec_charge
 _atom_site_pbe_ddec_spin_density
 _atom_site_pbe_ddec_sum_bond_order
 _atom_site_pbe_magmom
Cd  Cd0  1  0.14826874  0.95207777  0.44442653  1  0  0.983189  0  1.94264  0  0  0.812091  0  2.415421  0  0  0.858047  0  2.372159  0  0  0.627575  0.780306  0  2.444389  0
Cd  Cd1  1  0.85172877  0.04791989  0.55557052  1  0  0.983131  0  1.942655  0  0  0.812048  0  2.41537  0  0  0.857974  0  2.372177  0  0  0.627557  0.780265  0  2.444333  0
H  H2  1  0.86654987  0.79245651  0.20567378  1  0  0.09498  0  0.952288  0  0  0.103942  0  1.019068  0  0  0.106407  0  1.015384  0  0  0.12796  0.102057  0  1.022119  0
H  H3  1  0.13344825  0.20753815  0.79432570  1  0  0.095003  0  0.952312  0  0  0.103963  0  1.019088  0  0  0.106428  0  1.015411  0  0  0.127978  0.102076  0  1.022139  0
H  H4  1  0.40587055  0.88461447  0.31600319  1  0  0.114942  0  0.955927  0  0  0.122946  0  1.021607  0  0  0.125764  0  1.020493  0  0  0.100463  0.120978  0  1.022645  0
H  H5  1  0.59412565  0.11537801  0.68399553  1  0  0.115099  0  0.955926  0  0  0.123088  0  1.021589  0  0  0.125906  0  1.020475  0  0  0.100527  0.121113  0  1.022635  0
H  H6  1  0.33689378  0.89070742  0.73067877  1  0  0.10926  0  0.963894  0  0  0.133626  0  1.019326  0  0  0.134463  0  1.020137  0  0  0.08918  0.132853  0  1.018967  0
H  H7  1  0.66310567  0.10928641  0.26930999  1  0  0.109283  0  0.963792  0  0  0.133616  0  1.019272  0  0  0.134455  0  1.02009  0  0  0.089179  0.132844  0  1.018913  0
H  H8  1  0.45469540  0.82996417  0.80126290  1  0  0.100392  0  0.949793  0  0  0.121975  0  1.01109  0  0  0.123216  0  1.011418  0  0  0.086612  0.120972  0  1.011035  0
H  H9  1  0.54530847  0.17004067  0.19873091  1  0  0.100334  0  0.949776  0  0  0.121943  0  1.011053  0  0  0.123183  0  1.011383  0  0  0.086585  0.120938  0  1.011001  0
H  H10  1  0.43912691  0.80498885  0.66783398  1  0  0.103576  0  0.95369  0  0  0.122339  0  1.02088  0  0  0.12308  0  1.021482  0  0  0.086288  0.121624  0  1.020733  0
H  H11  1  0.56087585  0.19500849  0.33215894  1  0  0.103602  0  0.953588  0  0  0.122363  0  1.020773  0  0  0.123102  0  1.021382  0  0  0.086294  0.121649  0  1.020629  0
H  H12  1  0.09190567  0.63491823  0.92206972  1  0  0.115638  0  0.948891  0  0  0.12613  0  1.009913  0  0  0.129269  0  1.008897  0  0  0.103831  0.123935  0  1.010536  0
H  H13  1  0.90809639  0.36509012  0.07792800  1  0  0.11559  0  0.948994  0  0  0.126113  0  1.009984  0  0  0.129252  0  1.008968  0  0  0.103826  0.123919  0  1.010606  0
H  H14  1  0.80438124  0.52225518  0.95295739  1  0  0.076357  0  0.966773  0  0  0.088781  0  1.034377  0  0  0.088932  0  1.035907  0  0  0.107635  0.088615  0  1.033258  0
H  H15  1  0.19561392  0.47774693  0.04704222  1  0  0.076369  0  0.966921  0  0  0.08879  0  1.034477  0  0  0.088939  0  1.036006  0  0  0.107646  0.088623  0  1.033358  0
H  H16  1  0.72659249  0.63447476  0.01988164  1  0  0.076475  0  0.915383  0  0  0.095523  0  0.974183  0  0  0.095895  0  0.973812  0  0  0.115458  0.095427  0  0.97424  0
H  H17  1  0.27340709  0.36553065  0.98011939  1  0  0.076542  0  0.915446  0  0  0.095511  0  0.974277  0  0  0.095881  0  0.973906  0  0  0.11545  0.095418  0  0.974329  0
H  H18  1  0.83858562  0.90749329  0.01290146  1  0  0.092237  0  0.945259  0  0  0.105588  0  1.002231  0  0  0.108501  0  1.001212  0  0  0.100047  0.102855  0  1.004  0
H  H19  1  0.16141622  0.09251568  0.98710427  1  0  0.0922  0  0.945344  0  0  0.105597  0  1.002279  0  0  0.108512  0  1.001254  0  0  0.100041  0.102863  0  1.004048  0
H  H20  1  0.81700714  0.00220014  0.87054410  1  0  0.082621  0  0.992244  0  0  0.091379  0  1.054935  0  0  0.093213  0  1.055923  0  0  0.096061  0.090156  0  1.054008  0
H  H21  1  0.18299195  0.99780430  0.12945811  1  0  0.082646  0  0.992206  0  0  0.091409  0  1.05488  0  0  0.093265  0  1.055843  0  0  0.09608  0.090185  0  1.053954  0
H  H22  1  0.78328523  0.84865503  0.68389932  1  0  0.090629  0  0.990137  0  0  0.09534  0  1.066192  0  0  0.097881  0  1.06507  0  0  0.088286  0.093277  0  1.067383  0
H  H23  1  0.21671133  0.15134841  0.31610367  1  0  0.090636  0  0.99009  0  0  0.095375  0  1.066118  0  0  0.097915  0  1.064997  0  0  0.088317  0.093312  0  1.067307  0
H  H24  1  0.78599644  0.50139665  0.78111547  1  0  0.095788  0  0.956353  0  0  0.104334  0  1.0225  0  0  0.107043  0  1.022098  0  0  0.100226  0.102443  0  1.022715  0
H  H25  1  0.21400151  0.49860993  0.21888692  1  0  0.095914  0  0.956184  0  0  0.104392  0  1.022407  0  0  0.107092  0  1.022016  0  0  0.100258  0.102502  0  1.022621  0
H  H26  1  0.08235531  0.75209141  0.67561167  1  0  0.11585  0  0.969666  0  0  0.123964  0  1.036517  0  0  0.127247  0  1.03465  0  0  0.094761  0.122194  0  1.036651  0
H  H27  1  0.91765076  0.24791353  0.32439697  1  0  0.115939  0  0.969702  0  0  0.124006  0  1.036589  0  0  0.127288  0  1.034723  0  0  0.094799  0.122237  0  1.036722  0
H  H28  1  0.64666967  0.26484463  0.53737991  1  0  0.099408  0  0.987203  0  0  0.107103  0  1.057051  0  0  0.10981  0  1.053017  0  0  0.116852  0.104758  0  1.060317  0
H  H29  1  0.35333363  0.73515947  0.46261797  1  0  0.099408  0  0.987271  0  0  0.1071  0  1.057109  0  0  0.109806  0  1.05308  0  0  0.116846  0.104755  0  1.060375  0
H  H30  1  0.16918226  0.29611460  0.61096236  1  0  0.101814  0  0.975397  0  0  0.108463  0  1.047812  0  0  0.111106  0  1.046593  0  0  0.093341  0.1071  0  1.047818  0
H  H31  1  0.83082067  0.70388456  0.38904029  1  0  0.101792  0  0.975508  0  0  0.108468  0  1.047879  0  0  0.111111  0  1.046659  0  0  0.093344  0.107105  0  1.047886  0
H  H32  1  0.29960971  0.62063573  0.87647825  1  0  0.110544  0  0.968208  0  0  0.130995  0  1.027414  0  0  0.132124  0  1.028744  0  0  0.090639  0.130148  0  1.026754  0
H  H33  1  0.70039417  0.37936731  0.12351954  1  0  0.110536  0  0.968181  0  0  0.130966  0  1.02741  0  0  0.132096  0  1.02874  0  0  0.090635  0.13012  0  1.026752  0
H  H34  1  0.43041453  0.59954685  0.97146146  1  0  0.088207  0  0.956992  0  0  0.106604  0  1.025814  0  0  0.107701  0  1.025508  0  0  0.083388  0.106009  0  1.025869  0
H  H35  1  0.56958478  0.40045334  0.02854072  1  0  0.088204  0  0.957033  0  0  0.106605  0  1.025844  0  0  0.107703  0  1.025536  0  0  0.083374  0.10601  0  1.025899  0
H  H36  1  0.47255096  0.76901898  0.96299683  1  0  0.104597  0  0.941472  0  0  0.127543  0  0.998906  0  0  0.128837  0  0.998829  0  0  0.091343  0.126844  0  0.998701  0
H  H37  1  0.52745320  0.23098559  0.03700706  1  0  0.10464  0  0.941469  0  0  0.127577  0  0.998907  0  0  0.128872  0  0.998831  0  0  0.091369  0.126875  0  0.998705  0
H  H38  1  0.56842726  0.70218982  0.15964464  1  0  0.095379  0  0.941754  0  0  0.117709  0  1.002171  0  0  0.118645  0  1.002269  0  0  0.084243  0.116865  0  1.001978  0
H  H39  1  0.43156564  0.29780511  0.84035824  1  0  0.095183  0  0.941778  0  0  0.117579  0  1.002134  0  0  0.118514  0  1.002234  0  0  0.084207  0.116735  0  1.00194  0
H  H40  1  0.61188845  0.85940840  0.27464873  1  0  0.111895  0  0.978716  0  0  0.129609  0  1.045523  0  0  0.130957  0  1.04554  0  0  0.081909  0.128574  0  1.045505  0
H  H41  1  0.38810066  0.14058204  0.72535118  1  0  0.111898  0  0.978707  0  0  0.129577  0  1.045554  0  0  0.130924  0  1.045572  0  0  0.081914  0.128541  0  1.045536  0
H  H42  1  0.62494106  0.87395255  0.15267698  1  0  0.09957  0  0.946752  0  0  0.120426  0  1.008413  0  0  0.121867  0  1.007834  0  0  0.086569  0.119034  0  1.00934  0
H  H43  1  0.37505316  0.12603791  0.84732315  1  0  0.099525  0  0.946774  0  0  0.120378  0  1.008451  0  0  0.121822  0  1.007867  0  0  0.086577  0.118985  0  1.009377  0
H  H44  1  0.42579682  0.43160376  0.66012053  1  0  0.110323  0  0.968826  0  0  0.129826  0  1.032369  0  0  0.131382  0  1.031977  0  0  0.079567  0.128557  0  1.032587  0
H  H45  1  0.57420226  0.56839471  0.33987335  1  0  0.11032  0  0.968803  0  0  0.129824  0  1.032344  0  0  0.131378  0  1.031953  0  0  0.079564  0.128547  0  1.032569  0
H  H46  1  0.48123349  0.59757801  0.64253826  1  0  0.096325  0  0.968295  0  0  0.11746  0  1.032573  0  0  0.118091  0  1.033646  0  0  0.08623  0.116823  0  1.032098  0
H  H47  1  0.51876137  0.40242262  0.35745597  1  0  0.096356  0  0.968322  0  0  0.117498  0  1.032586  0  0  0.118129  0  1.033659  0  0  0.086231  0.116862  0  1.03211  0
H  H48  1  0.49410343  0.60268499  0.77131964  1  0  0.09957  0  0.962374  0  0  0.121761  0  1.024112  0  0  0.12218  0  1.026185  0  0  0.085272  0.121386  0  1.022384  0
H  H49  1  0.50589603  0.39731474  0.22867672  1  0  0.09961  0  0.962409  0  0  0.121778  0  1.02418  0  0  0.122194  0  1.026256  0  0  0.085277  0.121403  0  1.022452  0
H  H50  1  0.78644863  0.63653727  0.56025798  1  0  0.095488  0  0.926803  0  0  0.107513  0  0.994096  0  0  0.10811  0  0.994197  0  0  0.113192  0.107307  0  0.99359  0
H  H51  1  0.21354473  0.36346056  0.43974121  1  0  0.095484  0  0.926767  0  0  0.107512  0  0.994067  0  0  0.108107  0  0.99417  0  0  0.113167  0.107305  0  0.993561  0
H  H52  1  0.63391754  0.50008054  0.56462511  1  0  0.09024  0  0.914963  0  0  0.107482  0  0.975212  0  0  0.107921  0  0.975129  0  0  0.11777  0.107269  0  0.975024  0
H  H53  1  0.36608541  0.49991674  0.43538080  1  0  0.090243  0  0.914968  0  0  0.107484  0  0.975203  0  0  0.107924  0  0.97512  0  0  0.117755  0.10727  0  0.975014  0
C  C54  1  0.96246596  0.78355584  0.18562975  1  0  0.196373  0  3.678307  0  0  0.132664  0  3.949714  0  0  0.150022  0  3.960033  0  0  0.151608  0.120319  0  3.944054  0
C  C55  1  0.03753600  0.21644319  0.81437125  1  0  0.196308  0  3.678153  0  0  0.132597  0  3.949575  0  0  0.149951  0  3.959896  0  0  0.151551  0.120255  0  3.943909  0
C  C56  1  0.18632733  0.80295246  0.19748623  1  0  0.143549  0  3.853016  0  0  0.138102  0  4.108176  0  0  0.141952  0  4.130643  0  0  0.08146  0.135956  0  4.09235  0
C  C57  1  0.81366998  0.19703980  0.80250977  1  0  0.143448  0  3.853107  0  0  0.138041  0  4.108224  0  0  0.141895  0  4.130682  0  0  0.081478  0.135895  0  4.092396  0
C  C58  1  0.09771048  0.72800554  0.08681231  1  0  0.092162  0  3.806071  0  0  0.078019  0  4.063469  0  0  0.082438  0  4.084135  0  0  0.085357  0.07594  0  4.047569  0
C  C59  1  0.90228932  0.27199744  0.91318471  1  0  0.092238  0  3.806033  0  0  0.078069  0  4.063445  0  0  0.082489  0  4.084106  0  0  0.0854  0.07599  0  4.047545  0
C  C60  1  0.33737610  0.83020341  0.23082692  1  0  -0.184115  0  3.705993  0  0  -0.20822  0  3.952514  0  0  -0.211851  0  3.97324  0  0  -0.091249  -0.206369  0  3.939117  0
C  C61  1  0.66261914  0.16978888  0.76916943  1  0  -0.184207  0  3.706073  0  0  -0.208293  0  3.952603  0  0  -0.211926  0  3.973334  0  0  -0.091321  -0.206435  0  3.93921  0
C  C62  1  0.39896492  0.78540311  0.15273024  1  0  0.083377  0  3.727172  0  0  0.104791  0  3.961481  0  0  0.103497  0  3.988338  0  0  -0.015992  0.105424  0  3.943336  0
C  C63  1  0.60103075  0.21459032  0.84726712  1  0  0.08323  0  3.727328  0  0  0.104572  0  3.961743  0  0  0.103277  0  3.9886  0  0  -0.01604  0.105206  0  3.943592  0
C  C64  1  0.31066756  0.71747288  0.04100748  1  0  0.078628  0  3.742526  0  0  0.100311  0  3.978524  0  0  0.100177  0  4.003703  0  0  -0.017075  0.101592  0  3.959979  0
C  C65  1  0.68933217  0.28253026  0.95899172  1  0  0.078773  0  3.742383  0  0  0.10047  0  3.978394  0  0  0.100337  0  4.003573  0  0  -0.017035  0.10175  0  3.959851  0
C  C66  1  0.37504441  0.80362449  0.72275297  1  0  -0.32529  0  3.731535  0  0  -0.402538  0  3.961245  0  0  -0.405015  0  3.97292  0  0  -0.242367  -0.400745  0  3.953694  0
C  C67  1  0.62495861  0.19637626  0.27724279  1  0  -0.325262  0  3.73141  0  0  -0.402488  0  3.961146  0  0  -0.404971  0  3.972825  0  0  -0.242329  -0.400694  0  3.953596  0
C  C68  1  0.15891196  0.68762372  0.00744214  1  0  -0.210165  0  3.746779  0  0  -0.237393  0  4.003344  0  0  -0.240368  0  4.021021  0  0  -0.103487  -0.234972  0  3.989352  0
C  C69  1  0.84108742  0.31237624  0.99255713  1  0  -0.210168  0  3.746818  0  0  -0.23742  0  4.003381  0  0  -0.240395  0  4.02106  0  0  -0.10349  -0.235  0  3.989393  0
C  C70  1  0.81832655  0.63530578  0.98882271  1  0  -0.024412  0  3.662531  0  0  -0.092452  0  3.913417  0  0  -0.087042  0  3.923424  0  0  -0.046497  -0.096495  0  3.907237  0
C  C71  1  0.18166913  0.36469906  0.01117102  1  0  -0.024567  0  3.662894  0  0  -0.092491  0  3.913592  0  0  -0.087074  0  3.923582  0  0  -0.046459  -0.096534  0  3.907412  0
C  C72  1  0.81357620  0.69805101  0.90540838  1  0  0.057801  0  3.792279  0  0  0.081698  0  4.031724  0  0  0.080739  0  4.056173  0  0  -0.020387  0.08198  0  4.015224  0
C  C73  1  0.18642437  0.30195448  0.09459358  1  0  0.057803  0  3.792319  0  0  0.081789  0  4.031569  0  0  0.08083  0  4.056009  0  0  -0.020373  0.08207  0  4.015071  0
C  C74  1  0.82235503  0.83929246  0.93077929  1  0  -0.126253  0  3.764765  0  0  -0.152024  0  4.016056  0  0  -0.154684  0  4.037014  0  0  -0.096332  -0.149838  0  4.002089  0
C  C75  1  0.17764999  0.16071621  0.06922264  1  0  -0.126185  0  3.76485  0  0  -0.152039  0  4.016119  0  0  -0.154701  0  4.037084  0  0  -0.096355  -0.149852  0  4.002152  0
C  C76  1  0.81184420  0.89297393  0.85118141  1  0  -0.054979  0  3.781841  0  0  -0.063836  0  4.029975  0  0  -0.065336  0  4.052086  0  0  -0.090921  -0.063059  0  4.015061  0
C  C77  1  0.18815698  0.10703037  0.14881900  1  0  -0.054948  0  3.781777  0  0  -0.063786  0  4.02992  0  0  -0.065302  0  4.052024  0  0  -0.090891  -0.063009  0  4.015007  0
C  C78  1  0.79317183  0.80694582  0.74635248  1  0  -0.109342  0  3.7232  0  0  -0.131852  0  3.967559  0  0  -0.134907  0  3.989701  0  0  -0.090359  -0.12973  0  3.953064  0
C  C79  1  0.20683184  0.19305960  0.25364860  1  0  -0.109571  0  3.723201  0  0  -0.132146  0  3.967623  0  0  -0.135206  0  3.989775  0  0  -0.090543  -0.130021  0  3.95313  0
C  C80  1  0.78389100  0.66566997  0.72029268  1  0  0.075332  0  3.752864  0  0  0.099158  0  3.987166  0  0  0.098437  0  4.011342  0  0  -0.008595  0.09952  0  3.970723  0
C  C81  1  0.21611505  0.33433685  0.27971270  1  0  0.075494  0  3.752697  0  0  0.099369  0  3.986936  0  0  0.098651  0  4.011107  0  0  -0.008475  0.099728  0  3.970496  0
C  C82  1  0.79470643  0.61224739  0.80052720  1  0  -0.163404  0  3.720876  0  0  -0.190599  0  3.96287  0  0  -0.193691  0  3.98372  0  0  -0.09295  -0.188093  0  3.948231  0
C  C83  1  0.20529760  0.38775934  0.19947707  1  0  -0.163577  0  3.72087  0  0  -0.190767  0  3.962844  0  0  -0.193852  0  3.983698  0  0  -0.093019  -0.188263  0  3.948212  0
C  C84  1  0.98342801  0.51772068  0.62572205  1  0  0.098976  0  3.805805  0  0  0.085651  0  4.057807  0  0  0.089396  0  4.079978  0  0  0.085946  0.083017  0  4.043022  0
C  C85  1  0.01657392  0.48227841  0.37427969  1  0  0.09905  0  3.805761  0  0  0.085744  0  4.057797  0  0  0.089491  0  4.079966  0  0  0.08599  0.083109  0  4.043015  0
C  C86  1  0.10110280  0.65369185  0.66378243  1  0  -0.196198  0  3.732973  0  0  -0.223646  0  3.987944  0  0  -0.226749  0  4.00701  0  0  -0.100635  -0.22184  0  3.974397  0
C  C87  1  0.89890294  0.34630985  0.33622554  1  0  -0.1963  0  3.733034  0  0  -0.223679  0  3.988018  0  0  -0.226782  0  4.007085  0  0  -0.100624  -0.221872  0  3.974475  0
C  C88  1  0.24495160  0.65949459  0.68318682  1  0  0.084022  0  3.727107  0  0  0.104688  0  3.966759  0  0  0.104346  0  3.991509  0  0  -0.017367  0.104793  0  3.950259  0
C  C89  1  0.75505035  0.34050625  0.31681020  1  0  0.08395  0  3.727105  0  0  0.104614  0  3.966802  0  0  0.104269  0  3.99155  0  0  -0.017466  0.104718  0  3.950304  0
C  C90  1  0.76666043  0.32673861  0.56323540  1  0  0.201576  0  3.640652  0  0  0.136515  0  3.91234  0  0  0.15413  0  3.922626  0  0  0.155157  0.125228  0  3.905376  0
C  C91  1  0.23334442  0.67326455  0.43676404  1  0  0.201605  0  3.640662  0  0  0.136581  0  3.912375  0  0  0.154196  0  3.922661  0  0  0.155151  0.125296  0  3.905411  0
C  C92  1  0.00576947  0.38899108  0.60670767  1  0  0.144869  0  3.86219  0  0  0.137694  0  4.116306  0  0  0.141362  0  4.140293  0  0  0.074791  0.135239  0  4.100305  0
C  C93  1  0.99423403  0.61100701  0.39329489  1  0  0.144853  0  3.862006  0  0  0.13769  0  4.116133  0  0  0.141354  0  4.140123  0  0  0.074781  0.135234  0  4.100136  0
C  C94  1  0.14984213  0.39482935  0.62673306  1  0  -0.213573  0  3.744276  0  0  -0.237231  0  3.995401  0  0  -0.241194  0  4.0157  0  0  -0.105719  -0.23492  0  3.981683  0
C  C95  1  0.85015964  0.60517382  0.37326652  1  0  -0.213575  0  3.744171  0  0  -0.237227  0  3.995321  0  0  -0.241191  0  4.015617  0  0  -0.105722  -0.234915  0  3.981604  0
C  C96  1  0.26920499  0.53006198  0.66503381  1  0  0.080669  0  3.744421  0  0  0.100361  0  3.981939  0  0  0.100227  0  4.006933  0  0  -0.020581  0.100219  0  3.965595  0
C  C97  1  0.73079992  0.46993920  0.33496743  1  0  0.080789  0  3.744261  0  0  0.100428  0  3.981867  0  0  0.100306  0  4.006837  0  0  -0.020522  0.100288  0  3.965524  0
C  C98  1  0.38086521  0.67426307  0.95844504  1  0  -0.323819  0  3.746106  0  0  -0.399867  0  3.980376  0  0  -0.402233  0  3.991064  0  0  -0.239917  -0.398392  0  3.97259  0
C  C99  1  0.61913496  0.32574122  0.04155518  1  0  -0.323887  0  3.746089  0  0  -0.399915  0  3.980352  0  0  -0.402282  0  3.991039  0  0  -0.23994  -0.398437  0  3.972574  0
C  C100  1  0.55915547  0.80710397  0.18693965  1  0  -0.331045  0  3.759444  0  0  -0.408904  0  3.99645  0  0  -0.411007  0  4.007465  0  0  -0.244227  -0.406843  0  3.988528  0
C  C101  1  0.44083841  0.19288331  0.81306054  1  0  -0.33075  0  3.759418  0  0  -0.408596  0  3.996428  0  0  -0.410699  0  4.007442  0  0  -0.244177  -0.406534  0  3.988503  0
C  C102  1  0.42488390  0.53976595  0.68571625  1  0  -0.33512  0  3.752305  0  0  -0.412968  0  3.984378  0  0  -0.415876  0  3.996569  0  0  -0.247576  -0.410691  0  3.975978  0
C  C103  1  0.57511677  0.46023147  0.31427773  1  0  -0.335223  0  3.752393  0  0  -0.413059  0  3.98451  0  0  -0.41597  0  3.9967  0  0  -0.247602  -0.410775  0  3.976116  0
C  C104  1  0.75377707  0.56994867  0.60510011  1  0  -0.03368  0  3.645952  0  0  -0.099695  0  3.89174  0  0  -0.094737  0  3.902234  0  0  -0.040674  -0.10291  0  3.884124  0
C  C105  1  0.24622342  0.43005704  0.39490476  1  0  -0.033735  0  3.646089  0  0  -0.099721  0  3.891876  0  0  -0.094762  0  3.902366  0  0  -0.040653  -0.102933  0  3.884257  0
N  N106  1  0.09822540  0.83813742  0.25641372  1  0  -0.418843  0  3.199068  0  0  -0.353731  0  3.477178  0  0  -0.375022  0  3.493748  0  0  -0.354442  -0.339545  0  3.465888  0
N  N107  1  0.90177091  0.16185296  0.74358534  1  0  -0.418809  0  3.198879  0  0  -0.353699  0  3.47696  0  0  -0.374987  0  3.493531  0  0  -0.354449  -0.339513  0  3.465666  0
N  N108  1  0.95475866  0.71541561  0.08267083  1  0  -0.118851  0  3.516202  0  0  -0.031854  0  3.744854  0  0  -0.048411  0  3.767946  0  0  -0.242322  -0.020519  0  3.729445  0
N  N109  1  0.04524083  0.28458225  0.91732878  1  0  -0.118778  0  3.516338  0  0  -0.031801  0  3.744951  0  0  -0.048358  0  3.768042  0  0  -0.242334  -0.020469  0  3.72954  0
N  N110  1  0.86779819  0.27180354  0.56748712  1  0  -0.422191  0  3.225661  0  0  -0.350845  0  3.509138  0  0  -0.373274  0  3.525231  0  0  -0.362008  -0.336199  0  3.498285  0
N  N111  1  0.13220462  0.72819959  0.43251193  1  0  -0.422205  0  3.225559  0  0  -0.350868  0  3.509043  0  0  -0.373301  0  3.525141  0  0  -0.362006  -0.336222  0  3.498191  0
N  N112  1  0.83021725  0.47403976  0.59669483  1  0  -0.114227  0  3.532302  0  0  -0.025126  0  3.756188  0  0  -0.041728  0  3.780347  0  0  -0.240635  -0.014141  0  3.739549  0
N  N113  1  0.16978584  0.52596491  0.40331032  1  0  -0.114213  0  3.532488  0  0  -0.025224  0  3.756499  0  0  -0.04183  0  3.780659  0  0  -0.240627  -0.01424  0  3.73986  0
Cl  Cl114  1  0.06751024  0.97433471  0.61704150  1  0  -0.579722  0  0.992319  0  0  -0.513452  0  1.279391  0  0  -0.532136  0  1.257496  0  0  -0.29711  -0.499569  0  1.292972  0
Cl  Cl115  1  0.93247920  0.02565301  0.38295075  1  0  -0.579734  0  0.99232  0  0  -0.513474  0  1.279399  0  0  -0.532149  0  1.257485  0  0  -0.297118  -0.49959  0  1.292979  0
Cl  Cl116  1  0.38778755  0.16438639  0.51200098  1  0  -0.60738  0  0.844308  0  0  -0.543862  0  1.092572  0  0  -0.559128  0  1.070858  0  0  -0.339592  -0.532716  0  1.107649  0
Cl  Cl117  1  0.61222393  0.83559309  0.48800823  1  0  -0.607352  0  0.844312  0  0  -0.543843  0  1.092583  0  0  -0.559102  0  1.070879  0  0  -0.339581  -0.532696  0  1.107659  0
