# generated using pymatgen
data_ErH7(C3O4)2
_symmetry_space_group_name_H-M   'P 1'
_cell_length_a   6.05162211
_cell_length_b   10.02046412
_cell_length_c   15.29726213
_cell_angle_alpha   102.27388524
_cell_angle_beta   90.02302437
_cell_angle_gamma   107.58950390
_symmetry_Int_Tables_number   1
_chemical_formula_structural   ErH7(C3O4)2
_chemical_formula_sum   'Er4 H28 C24 O32'
_cell_volume   861.96151597
_cell_formula_units_Z   4
loop_
 _symmetry_equiv_pos_site_id
 _symmetry_equiv_pos_as_xyz
  1  'x, y, z'
loop_
 _atom_site_type_symbol
 _atom_site_label
 _atom_site_symmetry_multiplicity
 _atom_site_fract_x
 _atom_site_fract_y
 _atom_site_fract_z
 _atom_site_occupancy
 _atom_site_hle17_bader_spin_density
 _atom_site_hle17_ddec_charge
 _atom_site_hle17_ddec_spin_density
 _atom_site_hle17_ddec_sum_bond_order
 _atom_site_hle17_magmom
 _atom_site_hse06_10hf_bader_spin_density
 _atom_site_hse06_10hf_ddec_charge
 _atom_site_hse06_10hf_ddec_spin_density
 _atom_site_hse06_10hf_ddec_sum_bond_order
 _atom_site_hse06_10hf_magmom
 _atom_site_hse06_bader_spin_density
 _atom_site_hse06_ddec_charge
 _atom_site_hse06_ddec_spin_density
 _atom_site_hse06_ddec_sum_bond_order
 _atom_site_hse06_magmom
 _atom_site_pbe_bader_spin_density
 _atom_site_pbe_cm5_charge
 _atom_site_pbe_ddec_charge
 _atom_site_pbe_ddec_spin_density
 _atom_site_pbe_ddec_sum_bond_order
 _atom_site_pbe_magmom
Er  Er0  1  0.34791216  0.81579837  0.29366562  1  0  2.246718  0  1.590628  0  0  2.089725  0  2.069833  0  0  2.230565  0  1.860021  0  0  1.512433  2.050358  0  2.101843  0
Er  Er1  1  0.53214317  0.18447507  0.20632709  1  0  2.245349  0  1.591029  0  0  2.087766  0  2.070783  0  0  2.228993  0  1.860633  0  0  1.512466  2.050278  0  2.101313  0
Er  Er2  1  0.65209299  0.18420504  0.70633331  1  0  2.246735  0  1.590569  0  0  2.08974  0  2.069751  0  0  2.230584  0  1.859956  0  0  1.51243  2.050367  0  2.101773  0
Er  Er3  1  0.46785488  0.81552404  0.79367386  1  0  2.245371  0  1.591022  0  0  2.087773  0  2.070781  0  0  2.229013  0  1.860618  0  0  1.512499  2.050297  0  2.101304  0
H  H4  1  0.71022652  0.95026724  0.45146086  1  0  0.456304  0  0.83847  0  0  0.426115  0  0.899005  0  0  0.437943  0  0.882041  0  0  0.30263  0.418345  0  0.91009  0
H  H5  1  0.75994260  0.04999144  0.04859241  1  0  0.456511  0  0.837858  0  0  0.426201  0  0.898586  0  0  0.43802  0  0.881637  0  0  0.302956  0.418393  0  0.90975  0
H  H6  1  0.28977418  0.04974047  0.54854194  1  0  0.456282  0  0.838476  0  0  0.426116  0  0.898985  0  0  0.437944  0  0.882023  0  0  0.302619  0.418344  0  0.910075  0
H  H7  1  0.24005326  0.95000660  0.95140773  1  0  0.456511  0  0.837865  0  0  0.426198  0  0.898595  0  0  0.438024  0  0.881636  0  0  0.302963  0.418397  0  0.909749  0
H  H8  1  0.81106834  0.87561967  0.36006645  1  0  0.447514  0  0.850949  0  0  0.416617  0  0.91342  0  0  0.428478  0  0.896418  0  0  0.303165  0.408321  0  0.925458  0
H  H9  1  0.93556179  0.12487607  0.13996870  1  0  0.449237  0  0.848504  0  0  0.418823  0  0.910206  0  0  0.430657  0  0.893225  0  0  0.304399  0.410558  0  0.922233  0
H  H10  1  0.18893835  0.12439341  0.63993645  1  0  0.447492  0  0.850967  0  0  0.416589  0  0.913448  0  0  0.428452  0  0.896444  0  0  0.30314  0.408294  0  0.925484  0
H  H11  1  0.06443572  0.87512198  0.86003079  1  0  0.449238  0  0.848513  0  0  0.418825  0  0.910207  0  0  0.430661  0  0.893224  0  0  0.304402  0.410562  0  0.922233  0
H  H12  1  0.03541441  0.54703146  0.18514173  1  0  0.398127  0  0.885202  0  0  0.372136  0  0.95688  0  0  0.383819  0  0.945097  0  0  0.306387  0.363824  0  0.966069  0
H  H13  1  0.48889612  0.45324096  0.31487170  1  0  0.399858  0  0.883189  0  0  0.373183  0  0.955842  0  0  0.384892  0  0.94397  0  0  0.306365  0.364377  0  0.965601  0
H  H14  1  0.96458417  0.45296873  0.81485937  1  0  0.398168  0  0.885211  0  0  0.372189  0  0.956858  0  0  0.383872  0  0.945073  0  0  0.306416  0.36388  0  0.966044  0
H  H15  1  0.51111961  0.54675386  0.68513061  1  0  0.399855  0  0.883108  0  0  0.373159  0  0.955785  0  0  0.384866  0  0.943919  0  0  0.306389  0.36436  0  0.965537  0
H  H16  1  0.58736653  0.57713048  0.06700988  1  0  0.149479  0  0.917663  0  0  0.161676  0  0.976155  0  0  0.165185  0  0.973498  0  0  0.119887  0.159391  0  0.97751  0
H  H17  1  0.01112544  0.42311154  0.43302924  1  0  0.149523  0  0.919367  0  0  0.161762  0  0.977448  0  0  0.165309  0  0.974782  0  0  0.119398  0.159606  0  0.978799  0
H  H18  1  0.41263256  0.42287400  0.93299508  1  0  0.149514  0  0.917665  0  0  0.161741  0  0.976087  0  0  0.165254  0  0.973426  0  0  0.119916  0.159456  0  0.977443  0
H  H19  1  0.98888190  0.57689295  0.56696723  1  0  0.149558  0  0.919277  0  0  0.161753  0  0.97741  0  0  0.1653  0  0.974745  0  0  0.119382  0.159596  0  0.978765  0
H  H20  1  0.88450281  0.80116041  0.03458826  1  0  0.156649  0  0.895757  0  0  0.170375  0  0.948032  0  0  0.17414  0  0.945344  0  0  0.123613  0.167842  0  0.949497  0
H  H21  1  0.08409340  0.19913149  0.46541126  1  0  0.1576  0  0.894362  0  0  0.171169  0  0.946674  0  0  0.174886  0  0.944084  0  0  0.124055  0.168656  0  0.948219  0
H  H22  1  0.11549239  0.19884622  0.96541700  1  0  0.156654  0  0.895775  0  0  0.170323  0  0.948129  0  0  0.174084  0  0.945446  0  0  0.123592  0.167786  0  0.949597  0
H  H23  1  0.91590684  0.80086870  0.53459050  1  0  0.157606  0  0.894266  0  0  0.171193  0  0.946563  0  0  0.174912  0  0.94397  0  0  0.124077  0.168664  0  0.948132  0
H  H24  1  0.09202490  0.71202813  0.00698511  1  0  0.137926  0  0.912778  0  0  0.152386  0  0.968639  0  0  0.154995  0  0.967119  0  0  0.119135  0.150675  0  0.969382  0
H  H25  1  0.38087435  0.28820740  0.49306300  1  0  0.138026  0  0.913743  0  0  0.152408  0  0.969668  0  0  0.155018  0  0.968192  0  0  0.118747  0.150662  0  0.970596  0
H  H26  1  0.90796261  0.28797636  0.99301462  1  0  0.137877  0  0.912766  0  0  0.152387  0  0.96857  0  0  0.154995  0  0.967053  0  0  0.119137  0.150676  0  0.969313  0
H  H27  1  0.61912151  0.71179064  0.50693714  1  0  0.137993  0  0.913722  0  0  0.15237  0  0.969656  0  0  0.154982  0  0.968178  0  0  0.11874  0.150627  0  0.97058  0
H  H28  1  0.79517440  0.50175102  0.01472738  1  0  0.131875  0  0.913953  0  0  0.145627  0  0.973236  0  0  0.1485  0  0.971217  0  0  0.112241  0.143628  0  0.974547  0
H  H29  1  0.29438750  0.49849745  0.48529374  1  0  0.131938  0  0.914433  0  0  0.145337  0  0.973796  0  0  0.148245  0  0.971807  0  0  0.111547  0.143614  0  0.974977  0
H  H30  1  0.20481808  0.49825347  0.98527170  1  0  0.131908  0  0.913955  0  0  0.145644  0  0.973236  0  0  0.148522  0  0.97122  0  0  0.112233  0.143645  0  0.974548  0
H  H31  1  0.70561712  0.50150489  0.51469851  1  0  0.132023  0  0.914471  0  0  0.145369  0  0.973857  0  0  0.148273  0  0.971877  0  0  0.111541  0.143646  0  0.975039  0
C  C32  1  0.02722029  0.77414271  0.06365401  1  0  -0.341145  0  3.583051  0  0  -0.380039  0  3.819915  0  0  -0.385671  0  3.822565  0  0  -0.149024  -0.375443  0  3.81647  0
C  C33  1  0.25384721  0.22609505  0.43638612  1  0  -0.341705  0  3.58166  0  0  -0.380552  0  3.818537  0  0  -0.386313  0  3.821298  0  0  -0.148922  -0.376343  0  3.816006  0
C  C34  1  0.97277329  0.22586070  0.93634754  1  0  -0.341077  0  3.583118  0  0  -0.379982  0  3.81995  0  0  -0.385614  0  3.822604  0  0  -0.149  -0.375385  0  3.816503  0
C  C35  1  0.74614593  0.77390084  0.56361830  1  0  -0.34165  0  3.581607  0  0  -0.380464  0  3.818428  0  0  -0.386233  0  3.821191  0  0  -0.148898  -0.376258  0  3.815919  0
C  C36  1  0.93252277  0.67836296  0.12998574  1  0  0.260239  0  3.568775  0  0  0.257621  0  3.813974  0  0  0.26198  0  3.82632  0  0  0.074033  0.254684  0  3.806393  0
C  C37  1  0.25480734  0.32189748  0.37006683  1  0  0.262375  0  3.563165  0  0  0.258635  0  3.808989  0  0  0.263075  0  3.821367  0  0  0.074717  0.255554  0  3.802469  0
C  C38  1  0.06747636  0.32163831  0.87001747  1  0  0.260307  0  3.568849  0  0  0.25767  0  3.814107  0  0  0.262031  0  3.82645  0  0  0.074091  0.25474  0  3.806524  0
C  C39  1  0.74519298  0.67809627  0.62993533  1  0  0.262502  0  3.563312  0  0  0.258685  0  3.809212  0  0  0.263133  0  3.821579  0  0  0.074678  0.255598  0  3.802699  0
C  C40  1  0.83453657  0.76268965  0.20961352  1  0  0.657457  0  3.781499  0  0  0.613498  0  4.069456  0  0  0.647081  0  4.066696  0  0  0.235898  0.590814  0  4.075044  0
C  C41  1  0.07209678  0.23761680  0.29044533  1  0  0.657313  0  3.780421  0  0  0.614648  0  4.066738  0  0  0.648315  0  4.063786  0  0  0.236688  0.59222  0  4.071919  0
C  C42  1  0.16546909  0.23731806  0.79038862  1  0  0.657473  0  3.781526  0  0  0.613466  0  4.069562  0  0  0.647055  0  4.066797  0  0  0.235878  0.590769  0  4.075169  0
C  C43  1  0.92790185  0.76238017  0.70955662  1  0  0.657199  0  3.780618  0  0  0.61459  0  4.066831  0  0  0.648254  0  4.063884  0  0  0.236705  0.592166  0  4.07201  0
C  C44  1  0.73935732  0.54496559  0.08046452  1  0  -0.349658  0  3.622427  0  0  -0.393533  0  3.866855  0  0  -0.399025  0  3.870716  0  0  -0.159427  -0.388971  0  3.862681  0
C  C45  1  0.19529759  0.45530319  0.41955791  1  0  -0.351521  0  3.623574  0  0  -0.39433  0  3.86649  0  0  -0.399888  0  3.870336  0  0  -0.158996  -0.390056  0  3.862671  0
C  C46  1  0.26064012  0.45503889  0.91953914  1  0  -0.349824  0  3.622514  0  0  -0.393676  0  3.866871  0  0  -0.39918  0  3.870742  0  0  -0.159488  -0.389115  0  3.862699  0
C  C47  1  0.80470657  0.54469164  0.58043459  1  0  -0.351628  0  3.623703  0  0  -0.394317  0  3.866604  0  0  -0.399868  0  3.870428  0  0  -0.158959  -0.390046  0  3.8628  0
C  C48  1  0.66494532  0.42397347  0.12944039  1  0  0.703182  0  3.858728  0  0  0.658616  0  4.159405  0  0  0.690329  0  4.161891  0  0  0.200117  0.636124  0  4.163935  0
C  C49  1  0.24170178  0.57633406  0.37060685  1  0  0.704822  0  3.857961  0  0  0.660222  0  4.158224  0  0  0.691927  0  4.160704  0  0  0.200916  0.637913  0  4.162289  0
C  C50  1  0.33505384  0.57602457  0.87056106  1  0  0.703332  0  3.858622  0  0  0.658764  0  4.15928  0  0  0.690476  0  4.161769  0  0  0.200193  0.636279  0  4.163807  0
C  C51  1  0.75831068  0.42365754  0.62938390  1  0  0.704849  0  3.857641  0  0  0.660169  0  4.158011  0  0  0.691873  0  4.160496  0  0  0.200973  0.637859  0  4.162081  0
C  C52  1  0.22280830  0.91090032  0.10020831  1  0  0.762615  0  3.773955  0  0  0.712336  0  4.070796  0  0  0.747107  0  4.068788  0  0  0.228119  0.688659  0  4.077216  0
C  C53  1  0.31229496  0.08928739  0.39979546  1  0  0.759623  0  3.77383  0  0  0.709983  0  4.069749  0  0  0.744764  0  4.067743  0  0  0.227155  0.686426  0  4.076189  0
C  C54  1  0.77719305  0.08909879  0.89979199  1  0  0.76246  0  3.774202  0  0  0.712272  0  4.07089  0  0  0.74704  0  4.068888  0  0  0.228069  0.688592  0  4.077312  0
C  C55  1  0.68769875  0.91070636  0.60020605  1  0  0.759564  0  3.773773  0  0  0.709928  0  4.069681  0  0  0.744715  0  4.06767  0  0  0.227106  0.686377  0  4.076111  0
O  O56  1  0.47454994  0.32475624  0.10578807  1  0  -0.668542  0  1.928635  0  0  -0.627294  0  2.166809  0  0  -0.661036  0  2.156744  0  0  -0.374287  -0.610968  0  2.172389  0
O  O57  1  0.15059784  0.67550913  0.39431193  1  0  -0.670315  0  1.92622  0  0  -0.629377  0  2.16446  0  0  -0.662989  0  2.15433  0  0  -0.375444  -0.613088  0  2.171032  0
O  O58  1  0.52544811  0.67524288  0.89421157  1  0  -0.668576  0  1.928534  0  0  -0.62734  0  2.166721  0  0  -0.661083  0  2.156656  0  0  -0.374314  -0.611014  0  2.172297  0
O  O59  1  0.84939925  0.32447818  0.60567168  1  0  -0.670287  0  1.926053  0  0  -0.629298  0  2.16429  0  0  -0.662912  0  2.154167  0  0  -0.375406  -0.613016  0  2.170885  0
O  O60  1  0.96850637  0.81851418  0.28126326  1  0  -0.710742  0  2.130094  0  0  -0.653548  0  2.370417  0  0  -0.691045  0  2.357936  0  0  -0.37548  -0.635252  0  2.3766  0
O  O61  1  0.14991180  0.18168379  0.21878834  1  0  -0.710797  0  2.129822  0  0  -0.654209  0  2.369504  0  0  -0.691764  0  2.357045  0  0  -0.376399  -0.635751  0  2.375137  0
O  O62  1  0.03149929  0.18149353  0.71873692  1  0  -0.710811  0  2.130005  0  0  -0.653595  0  2.370346  0  0  -0.691094  0  2.357862  0  0  -0.375473  -0.635287  0  2.376535  0
O  O63  1  0.85008130  0.81831532  0.78121130  1  0  -0.710778  0  2.129912  0  0  -0.654209  0  2.369562  0  0  -0.691769  0  2.357105  0  0  -0.376432  -0.635754  0  2.375196  0
O  O64  1  0.27258620  0.01294376  0.05968694  1  0  -0.645116  0  1.944393  0  0  -0.587331  0  2.164873  0  0  -0.618191  0  2.15462  0  0  -0.311474  -0.570505  0  2.171216  0
O  O65  1  0.25996735  0.98723078  0.44030106  1  0  -0.643663  0  1.942425  0  0  -0.586257  0  2.162618  0  0  -0.616981  0  2.152263  0  0  -0.311111  -0.56928  0  2.169838  0
O  O66  1  0.72741073  0.98705643  0.94031285  1  0  -0.645  0  1.944584  0  0  -0.587272  0  2.165036  0  0  -0.618131  0  2.154782  0  0  -0.311422  -0.570449  0  2.171382  0
O  O67  1  0.74003235  0.01276833  0.55970250  1  0  -0.643654  0  1.942381  0  0  -0.586219  0  2.162542  0  0  -0.616956  0  2.152202  0  0  -0.311036  -0.569241  0  2.169758  0
O  O68  1  0.67170096  0.89636157  0.38747110  1  0  -0.972142  0  1.879587  0  0  -0.923368  0  2.090263  0  0  -0.957758  0  2.047792  0  0  -0.675825  -0.908029  0  2.112973  0
O  O69  1  0.77552930  0.10436394  0.11246574  1  0  -0.973405  0  1.877305  0  0  -0.924869  0  2.087805  0  0  -0.959188  0  2.045254  0  0  -0.677087  -0.909885  0  2.110813  0
O  O70  1  0.32830358  0.10364721  0.61253185  1  0  -0.972089  0  1.879568  0  0  -0.923346  0  2.090242  0  0  -0.957732  0  2.047754  0  0  -0.675805  -0.908004  0  2.112951  0
O  O71  1  0.22446603  0.89563303  0.88753425  1  0  -0.973404  0  1.877328  0  0  -0.924866  0  2.08783  0  0  -0.959196  0  2.045274  0  0  -0.677094  -0.909891  0  2.110832  0
O  O72  1  0.11939308  0.63826194  0.16502054  1  0  -0.657179  0  2.085468  0  0  -0.610748  0  2.318314  0  0  -0.637565  0  2.304601  0  0  -0.432223  -0.598594  0  2.326147  0
O  O73  1  0.48166153  0.36201581  0.33499696  1  0  -0.65731  0  2.082044  0  0  -0.610674  0  2.316494  0  0  -0.637587  0  2.302752  0  0  -0.431861  -0.598328  0  2.32535  0
O  O74  1  0.88061096  0.36174254  0.83498116  1  0  -0.657187  0  2.085458  0  0  -0.610783  0  2.318354  0  0  -0.637594  0  2.30463  0  0  -0.432255  -0.598629  0  2.326188  0
O  O75  1  0.51833718  0.63797471  0.66500345  1  0  -0.657302  0  2.081825  0  0  -0.610667  0  2.316381  0  0  -0.637578  0  2.302634  0  0  -0.431844  -0.598309  0  2.325215  0
O  O76  1  0.63446619  0.77294779  0.19972209  1  0  -0.658438  0  2.030226  0  0  -0.61386  0  2.282851  0  0  -0.649729  0  2.268829  0  0  -0.368205  -0.597065  0  2.289305  0
O  O77  1  0.86183153  0.22742335  0.30033516  1  0  -0.659572  0  2.03107  0  0  -0.614996  0  2.282741  0  0  -0.650942  0  2.268652  0  0  -0.368491  -0.598294  0  2.288941  0
O  O78  1  0.36553893  0.22705885  0.80027664  1  0  -0.658404  0  2.030221  0  0  -0.6138  0  2.282869  0  0  -0.649676  0  2.268853  0  0  -0.368212  -0.597003  0  2.289332  0
O  O79  1  0.13816875  0.77257361  0.69966614  1  0  -0.659575  0  2.03117  0  0  -0.614951  0  2.282756  0  0  -0.650896  0  2.268669  0  0  -0.368487  -0.598252  0  2.288961  0
O  O80  1  0.33905229  0.92606506  0.17358746  1  0  -0.806239  0  2.196392  0  0  -0.744776  0  2.461359  0  0  -0.793613  0  2.452586  0  0  -0.433228  -0.725211  0  2.466718  0
O  O81  1  0.41302771  0.07412969  0.32637000  1  0  -0.805793  0  2.196675  0  0  -0.744364  0  2.460884  0  0  -0.793167  0  2.452147  0  0  -0.432762  -0.724356  0  2.466624  0
O  O82  1  0.66094465  0.07393513  0.82641168  1  0  -0.806239  0  2.196305  0  0  -0.744787  0  2.46121  0  0  -0.793632  0  2.452449  0  0  -0.433237  -0.725223  0  2.466582  0
O  O83  1  0.58695769  0.92586728  0.67363065  1  0  -0.805788  0  2.196599  0  0  -0.744377  0  2.460825  0  0  -0.793179  0  2.452088  0  0  -0.432813  -0.724373  0  2.466573  0
O  O84  1  0.80000556  0.41978154  0.19351962  1  0  -0.697964  0  1.964074  0  0  -0.640837  0  2.191172  0  0  -0.675436  0  2.181961  0  0  -0.358611  -0.622876  0  2.196824  0
O  O85  1  0.38071241  0.58058986  0.30649758  1  0  -0.699028  0  1.96318  0  0  -0.641918  0  2.190677  0  0  -0.676346  0  2.18131  0  0  -0.358222  -0.62264  0  2.196039  0
O  O86  1  0.19999745  0.58021758  0.80648002  1  0  -0.698027  0  1.96407  0  0  -0.640909  0  2.191189  0  0  -0.675508  0  2.181974  0  0  -0.35865  -0.622951  0  2.19684  0
O  O87  1  0.61931650  0.41940818  0.69350061  1  0  -0.699156  0  1.963018  0  0  -0.642039  0  2.190612  0  0  -0.676475  0  2.181251  0  0  -0.358338  -0.622761  0  2.195974  0
