# generated using pymatgen
data_ZnH27C28N4O5
_symmetry_space_group_name_H-M   'P 1'
_cell_length_a   9.28743651
_cell_length_b   16.32715905
_cell_length_c   19.94650605
_cell_angle_alpha   90.00032120
_cell_angle_beta   90.00044704
_cell_angle_gamma   96.25954091
_symmetry_Int_Tables_number   1
_chemical_formula_structural   ZnH27C28N4O5
_chemical_formula_sum   'Zn4 H108 C112 N16 O20'
_cell_volume   3006.60508017
_cell_formula_units_Z   4
loop_
 _symmetry_equiv_pos_site_id
 _symmetry_equiv_pos_as_xyz
  1  'x, y, z'
loop_
 _atom_site_type_symbol
 _atom_site_label
 _atom_site_symmetry_multiplicity
 _atom_site_fract_x
 _atom_site_fract_y
 _atom_site_fract_z
 _atom_site_occupancy
 _atom_site_pbe_bader_charge
 _atom_site_pbe_bader_spin_density
 _atom_site_pbe_cm5_charge
 _atom_site_pbe_ddec_charge
 _atom_site_pbe_ddec_spin_density
 _atom_site_pbe_ddec_sum_bond_order
 _atom_site_pbe_magmom
Zn  Zn0  1  0.93400526  0.72336768  0.17432913  1  1.24902  0  0.690654  0.756176  0  2.381196  0
Zn  Zn1  1  0.56599349  0.77662443  0.67432493  1  1.248705  0  0.690632  0.756192  0  2.381096  0
Zn  Zn2  1  0.06600283  0.27662434  0.82567068  1  1.248887  0  0.690681  0.75621  0  2.381117  0
Zn  Zn3  1  0.43400105  0.22337347  0.32567538  1  1.248527  0  0.690647  0.756294  0  2.380928  0
H  H4  1  0.19988617  0.94005222  0.23639932  1  0.127392  0  0.102646  0.110106  0  1.029793  0
H  H5  1  0.30011664  0.55995808  0.73639146  1  0.127608  0  0.102671  0.11014  0  1.029738  0
H  H6  1  0.80009331  0.05995407  0.76359397  1  0.12758  0  0.102673  0.110289  0  1.029832  0
H  H7  1  0.69988762  0.44006066  0.26360233  1  0.12751  0  0.102647  0.110219  0  1.029678  0
H  H8  1  0.62485529  0.05848567  0.19640759  1  0.090814  0  0.103533  0.115796  0  1.048631  0
H  H9  1  0.87513518  0.44152023  0.69642081  1  0.090401  0  0.103575  0.115818  0  1.048513  0
H  H10  1  0.37512140  0.94151820  0.80357918  1  0.090254  0  0.1036  0.115876  0  1.04866  0
H  H11  1  0.12486771  0.55848491  0.30358852  1  0.090704  0  0.103569  0.115873  0  1.048571  0
H  H12  1  0.47024528  0.83294380  0.09215124  1  0.096031  0  0.106686  0.123636  0  1.019618  0
H  H13  1  0.02971623  0.66705754  0.59215693  1  0.096113  0  0.106718  0.123724  0  1.019693  0
H  H14  1  0.52973294  0.16704518  0.90785107  1  0.096088  0  0.106705  0.12367  0  1.019682  0
H  H15  1  0.97025789  0.33294886  0.40784538  1  0.096276  0  0.10671  0.123657  0  1.019647  0
H  H16  1  0.83975331  0.02134874  0.15486579  1  0.057271  0  0.102892  0.072763  0  0.971025  0
H  H17  1  0.66022856  0.47862666  0.65485584  1  0.056989  0  0.102795  0.072578  0  0.97103  0
H  H18  1  0.16022813  0.97862777  0.84514655  1  0.057066  0  0.102789  0.07254  0  0.970967  0
H  H19  1  0.33975312  0.52137153  0.34513946  1  0.056986  0  0.102839  0.072638  0  0.97098  0
H  H20  1  0.73434797  0.07445555  0.09754089  1  0.049918  0  0.0999  0.063184  0  1.016277  0
H  H21  1  0.76567047  0.42554394  0.59753409  1  0.049727  0  0.099866  0.063115  0  1.01634  0
H  H22  1  0.26568374  0.92554028  0.90246192  1  0.049547  0  0.099878  0.063071  0  1.016489  0
H  H23  1  0.23432074  0.57445774  0.40246371  1  0.049613  0  0.099876  0.063134  0  1.016456  0
H  H24  1  0.06293419  0.97477552  0.11892896  1  0.099563  0  0.102204  0.106328  0  1.023814  0
H  H25  1  0.43708340  0.52522851  0.61891742  1  0.099919  0  0.102165  0.106217  0  1.023812  0
H  H26  1  0.93708934  0.02521368  0.88108589  1  0.100067  0  0.102175  0.10617  0  1.023684  0
H  H27  1  0.56290749  0.47477195  0.38107888  1  0.099803  0  0.102196  0.106344  0  1.023822  0
H  H28  1  0.75911807  0.04353687  0.97098958  1  0.10261  0  0.103545  0.10673  0  1.00541  0
H  H29  1  0.74087881  0.45644331  0.47098012  1  0.102151  0  0.103523  0.106687  0  1.005505  0
H  H30  1  0.24090445  0.95644430  0.02902577  1  0.102081  0  0.103503  0.106624  0  1.005522  0
H  H31  1  0.25911235  0.54355404  0.52901367  1  0.102233  0  0.103515  0.10668  0  1.005521  0
H  H32  1  0.89872870  0.88556657  0.23928819  1  0.083587  0  0.121115  0.096874  0  0.996129  0
H  H33  1  0.60129411  0.61443112  0.73927684  1  0.083493  0  0.121122  0.096928  0  0.996087  0
H  H34  1  0.10128460  0.11442471  0.76071062  1  0.08355  0  0.121126  0.096885  0  0.996169  0
H  H35  1  0.39872737  0.38556680  0.26071494  1  0.08366  0  0.121129  0.096928  0  0.996079  0
H  H36  1  0.74793048  0.94189109  0.32898646  1  0.077672  0  0.115801  0.127992  0  0.973161  0
H  H37  1  0.75208980  0.55810369  0.82897640  1  0.077472  0  0.115731  0.128033  0  0.973094  0
H  H38  1  0.25206823  0.05811043  0.67100131  1  0.077954  0  0.115775  0.127992  0  0.973054  0
H  H39  1  0.24793383  0.44189418  0.17101538  1  0.07764  0  0.115772  0.12799  0  0.973154  0
H  H40  1  0.50124954  0.70321907  0.33974323  1  0.09884  0  0.109549  0.116259  0  1.014908  0
H  H41  1  0.99875261  0.79677992  0.83975122  1  0.098761  0  0.10952  0.116214  0  1.014864  0
H  H42  1  0.49874751  0.29678434  0.66025807  1  0.098816  0  0.109579  0.116322  0  1.014798  0
H  H43  1  0.00124444  0.20322350  0.16025360  1  0.099209  0  0.109558  0.116303  0  1.01481  0
H  H44  1  0.65917802  0.65682964  0.24699033  1  0.113093  0  0.117932  0.099679  0  1.022413  0
H  H45  1  0.84083438  0.84316896  0.74699394  1  0.113299  0  0.117988  0.099737  0  1.022383  0
H  H46  1  0.34083019  0.34315866  0.75302151  1  0.112876  0  0.118025  0.099775  0  1.022392  0
H  H47  1  0.15916299  0.15683568  0.25301037  1  0.113275  0  0.117995  0.099756  0  1.022475  0
H  H48  1  0.58197378  0.84551724  0.44662308  1  0.056703  0  0.108915  0.093026  0  0.999791  0
H  H49  1  0.91802857  0.65447582  0.94662610  1  0.056666  0  0.108887  0.092939  0  0.999823  0
H  H50  1  0.41802810  0.15447987  0.55337121  1  0.056534  0  0.108937  0.093019  0  0.999756  0
H  H51  1  0.08197422  0.34552065  0.05337320  1  0.056605  0  0.108921  0.092981  0  0.999771  0
H  H52  1  0.51663337  0.92140927  0.39454434  1  0.054062  0  0.098339  0.074901  0  0.966861  0
H  H53  1  0.98336513  0.57858468  0.89454324  1  0.053935  0  0.098313  0.074845  0  0.966902  0
H  H54  1  0.48336427  0.07859227  0.60545697  1  0.054099  0  0.098343  0.074918  0  0.966845  0
H  H55  1  0.01663905  0.42141300  0.10545305  1  0.05401  0  0.098316  0.074879  0  0.966873  0
H  H56  1  0.28930308  0.87908055  0.47725155  1  0.030541  0  0.087474  0.054717  0  0.974642  0
H  H57  1  0.21070712  0.62090992  0.97725317  1  0.030668  0  0.087469  0.05464  0  0.974716  0
H  H58  1  0.71071074  0.12091692  0.52275227  1  0.030367  0  0.087494  0.054741  0  0.974656  0
H  H59  1  0.78929642  0.37908530  0.02274764  1  0.030601  0  0.087484  0.054733  0  0.974727  0
H  H60  1  0.38100372  0.79658043  0.50850161  1  0.050869  0  0.100787  0.08607  0  1.01061  0
H  H61  1  0.11900897  0.70341164  0.00850608  1  0.051357  0  0.100811  0.08611  0  1.010572  0
H  H62  1  0.61900700  0.20341339  0.49149569  1  0.051076  0  0.100804  0.086125  0  1.01051  0
H  H63  1  0.88099966  0.29658656  0.99149522  1  0.051009  0  0.100789  0.086125  0  1.010621  0
H  H64  1  0.19214241  0.69344178  0.46540025  1  0.009375  0  0.083624  0.044628  0  1.005754  0
H  H65  1  0.30786377  0.80655054  0.96540608  1  0.009668  0  0.08366  0.044735  0  1.005724  0
H  H66  1  0.80784757  0.30655932  0.53459956  1  0.009985  0  0.083627  0.044621  0  1.005733  0
H  H67  1  0.69215017  0.19344321  0.03459372  1  0.009396  0  0.083626  0.044658  0  1.0057  0
H  H68  1  0.11782530  0.76572963  0.51831631  1  0.075167  0  0.101994  0.086529  0  1.019465  0
H  H69  1  0.38218999  0.73425937  0.01831637  1  0.075111  0  0.101981  0.086479  0  1.019424  0
H  H70  1  0.88218568  0.23427348  0.48168750  1  0.074843  0  0.101991  0.08649  0  1.019408  0
H  H71  1  0.61782422  0.26573128  0.98168243  1  0.075209  0  0.101962  0.086486  0  1.019495  0
H  H72  1  0.07472998  0.79182811  0.31042274  1  0.049948  0  0.101623  0.083367  0  1.007318  0
H  H73  1  0.42526295  0.70817683  0.81041852  1  0.049794  0  0.101608  0.083325  0  1.007268  0
H  H74  1  0.92525532  0.20819229  0.68958709  1  0.049769  0  0.10155  0.083199  0  1.007235  0
H  H75  1  0.57473936  0.29181780  0.18957777  1  0.049962  0  0.101589  0.083304  0  1.007207  0
H  H76  1  0.16503507  0.70833989  0.33992763  1  0.007566  0  0.086837  0.055439  0  0.995337  0
H  H77  1  0.33494470  0.79165817  0.83993400  1  0.007879  0  0.086839  0.055422  0  0.995354  0
H  H78  1  0.83493652  0.29167339  0.66006967  1  0.007612  0  0.086824  0.055351  0  0.99558  0
H  H79  1  0.66505392  0.20833469  0.16006631  1  0.007708  0  0.086877  0.055534  0  0.995438  0
H  H80  1  0.34164354  0.81946442  0.30059099  1  0.08138  0  0.100855  0.083558  0  0.99865  0
H  H81  1  0.15834832  0.68052870  0.80059370  1  0.081406  0  0.100868  0.08356  0  0.998636  0
H  H82  1  0.65834349  0.18054603  0.69940731  1  0.081224  0  0.100922  0.083578  0  0.99872  0
H  H83  1  0.84165426  0.31946283  0.19940661  1  0.081341  0  0.100866  0.083556  0  0.998708  0
H  H84  1  0.26771352  0.89348372  0.35212587  1  0.043488  0  0.091347  0.064892  0  0.993989  0
H  H85  1  0.23229015  0.60651018  0.85212449  1  0.043357  0  0.091326  0.064889  0  0.993925  0
H  H86  1  0.73228282  0.10652528  0.64788196  1  0.043686  0  0.091243  0.064676  0  0.994106  0
H  H87  1  0.76771168  0.39348260  0.14787632  1  0.043485  0  0.091315  0.064828  0  0.993976  0
H  H88  1  0.94603532  0.66259006  0.41835771  1  0.004048  0  0.095622  0.071293  0  0.970408  0
H  H89  1  0.55397347  0.83740882  0.91835325  1  0.004049  0  0.095588  0.071239  0  0.9704  0
H  H90  1  0.05396611  0.33742192  0.58165362  1  0.003943  0  0.09567  0.071446  0  0.970429  0
H  H91  1  0.44603317  0.16259005  0.08163653  1  0.004177  0  0.095627  0.071305  0  0.970499  0
H  H92  1  0.87831637  0.73940163  0.36898722  1  0.074229  0  0.108524  0.090735  0  1.014857  0
H  H93  1  0.62168702  0.76059200  0.86898164  1  0.07403  0  0.108516  0.090694  0  1.014792  0
H  H94  1  0.12168469  0.26060479  0.63102061  1  0.07417  0  0.108568  0.090924  0  1.014572  0
H  H95  1  0.37831680  0.23940012  0.13100864  1  0.074275  0  0.108526  0.090752  0  1.01485  0
H  H96  1  0.95867524  0.86575163  0.50031241  1  0.096178  0  0.113769  0.124131  0  1.001158  0
H  H97  1  0.54133441  0.63423940  0.00029573  1  0.095966  0  0.113878  0.124254  0  1.001111  0
H  H98  1  0.04132228  0.13425363  0.49970494  1  0.096076  0  0.113848  0.124184  0  1.001178  0
H  H99  1  0.45870948  0.36574934  0.99967901  1  0.09606  0  0.113857  0.124125  0  1.001263  0
H  H100  1  0.79914586  0.88642254  0.60078691  1  0.136705  0  0.119968  0.107567  0  1.019407  0
H  H101  1  0.70083768  0.61356125  0.10077773  1  0.136761  0  0.120002  0.107595  0  1.019206  0
H  H102  1  0.20083791  0.11357127  0.39922894  1  0.137018  0  0.119938  0.107506  0  1.019491  0
H  H103  1  0.29919068  0.38642165  0.89919952  1  0.136821  0  0.119943  0.107549  0  1.019362  0
H  H104  1  0.53615009  0.67169215  0.55866227  1  0.133691  0  0.115093  0.083257  0  1.034917  0
H  H105  1  0.96384039  0.82829608  0.05867709  1  0.133681  0  0.115  0.083196  0  1.034997  0
H  H106  1  0.46382799  0.32831293  0.44132551  1  0.133642  0  0.115015  0.083301  0  1.03481  0
H  H107  1  0.03614214  0.17170952  0.94133475  1  0.133657  0  0.115029  0.08316  0  1.034931  0
H  H108  1  0.68562753  0.64020464  0.46048888  1  0.086187  0  0.105292  0.11408  0  1.023882  0
H  H109  1  0.81437989  0.85979462  0.96050250  1  0.085697  0  0.105193  0.114009  0  1.023837  0
H  H110  1  0.31437073  0.35981175  0.53950190  1  0.085589  0  0.105239  0.11405  0  1.023824  0
H  H111  1  0.18561801  0.14021620  0.03950733  1  0.085955  0  0.105205  0.113953  0  1.02378  0
C  C112  1  0.20372569  0.80979842  0.15122571  1  1.568208  0  0.197329  0.561915  0  4.217886  0
C  C113  1  0.29626229  0.69020158  0.65120891  1  1.568075  0  0.197384  0.562119  0  4.217057  0
C  C114  1  0.79626147  0.19019593  0.84879214  1  1.568236  0  0.197537  0.562125  0  4.217565  0
C  C115  1  0.70372842  0.30981064  0.34878438  1  1.56797  0  0.19733  0.562048  0  4.217471  0
C  C116  1  0.32201798  0.87914346  0.16266519  1  -0.051805  0  -0.021615  -0.018742  0  4.001266  0
C  C117  1  0.17796704  0.62086104  0.66265666  1  -0.051721  0  -0.021642  -0.01884  0  4.001272  0
C  C118  1  0.67796429  0.12085286  0.83733612  1  -0.05214  0  -0.021591  -0.018627  0  4.001127  0
C  C119  1  0.82202384  0.37915180  0.33734014  1  -0.051388  0  -0.021574  -0.018664  0  4.00128  0
C  C120  1  0.30115080  0.94130949  0.20890948  1  -0.027692  0  -0.09336  -0.145275  0  3.983836  0
C  C121  1  0.19884921  0.55870002  0.70890525  1  -0.028204  0  -0.093372  -0.145188  0  3.983712  0
C  C122  1  0.69882879  0.05869308  0.79108431  1  -0.027487  0  -0.093376  -0.145742  0  3.984255  0
C  C123  1  0.80115795  0.44131741  0.29109205  1  -0.028122  0  -0.093285  -0.145414  0  3.983767  0
C  C124  1  0.41158987  0.00430232  0.22116480  1  -0.014496  0  -0.023814  -0.01043  0  4.017105  0
C  C125  1  0.08841240  0.49570827  0.72116670  1  -0.014169  0  -0.023833  -0.010389  0  4.017014  0
C  C126  1  0.58838821  0.99570276  0.77882748  1  -0.016427  0  -0.023791  -0.010251  0  4.016863  0
C  C127  1  0.91160435  0.50430461  0.27883561  1  -0.014927  0  -0.023878  -0.010446  0  4.017152  0
C  C128  1  0.38837707  0.06970566  0.27145743  1  1.557098  0  0.195002  0.556958  0  4.229452  0
C  C129  1  0.11163517  0.43030699  0.77146112  1  1.558124  0  0.194728  0.556581  0  4.230345  0
C  C130  1  0.61159828  0.93030133  0.72853435  1  1.556325  0  0.194719  0.556906  0  4.230227  0
C  C131  1  0.88840300  0.56970542  0.22854069  1  1.556746  0  0.194765  0.556939  0  4.230062  0
C  C132  1  0.54226319  0.00779018  0.18565758  1  -0.061013  0  -0.107538  -0.243544  0  3.994371  0
C  C133  1  0.95772896  0.49221869  0.68566431  1  -0.060744  0  -0.10749  -0.24353  0  3.994557  0
C  C134  1  0.45771169  0.99221497  0.81433521  1  -0.058085  0  -0.107523  -0.243531  0  3.994583  0
C  C135  1  0.04227242  0.50778897  0.31434302  1  -0.061039  0  -0.107483  -0.243617  0  3.994694  0
C  C136  1  0.56181540  0.94683716  0.13834021  1  0.438189  0  0.074143  0.247162  0  4.089865  0
C  C137  1  0.93816795  0.55316428  0.63834886  1  0.438232  0  0.074125  0.24726  0  4.090202  0
C  C138  1  0.43816034  0.05316301  0.86165207  1  0.437344  0  0.074219  0.247182  0  4.090164  0
C  C139  1  0.06182636  0.44684105  0.36165646  1  0.438389  0  0.074204  0.247326  0  4.089986  0
C  C140  1  0.45301062  0.88149156  0.12779466  1  -0.002439  0  -0.092906  -0.201717  0  3.92445  0
C  C141  1  0.04695813  0.61851054  0.62779617  1  -0.002304  0  -0.092942  -0.201882  0  3.924513  0
C  C142  1  0.54696920  0.11850357  0.87220715  1  -0.0023  0  -0.093006  -0.201795  0  3.924422  0
C  C143  1  0.95302622  0.38149378  0.37220413  1  -0.002358  0  -0.093004  -0.201892  0  3.924356  0
C  C144  1  0.78922671  0.01842157  0.10471956  1  0.38983  0  -0.060938  -0.013126  0  3.922603  0
C  C145  1  0.71076820  0.48156984  0.60471282  1  0.390401  0  -0.060953  -0.013043  0  3.922602  0
C  C146  1  0.21077797  0.98156557  0.89528726  1  0.390391  0  -0.060865  -0.012823  0  3.922334  0
C  C147  1  0.28922301  0.51843185  0.39528448  1  0.390257  0  -0.060952  -0.013109  0  3.922651  0
C  C148  1  0.89972110  0.01092225  0.05097900  1  0.027086  0  -0.014046  0.0757  0  3.991241  0
C  C149  1  0.60028017  0.48906795  0.55096889  1  0.027759  0  -0.013821  0.076025  0  3.990987  0
C  C150  1  0.10029456  0.98906156  0.94903384  1  0.02775  0  -0.013711  0.076054  0  3.990835  0
C  C151  1  0.39971704  0.51093608  0.44902541  1  0.027583  0  -0.013799  0.076058  0  3.990986  0
C  C152  1  0.03570258  0.98663244  0.06682407  1  -0.088801  0  -0.0882  -0.133124  0  3.98377  0
C  C153  1  0.46430084  0.51336590  0.56681408  1  -0.089705  0  -0.088146  -0.132983  0  3.983789  0
C  C154  1  0.96431324  0.01335198  0.93318927  1  -0.089731  0  -0.088343  -0.133143  0  3.9835  0
C  C155  1  0.53569391  0.48663695  0.43317921  1  -0.089299  0  -0.088288  -0.13325  0  3.983823  0
C  C156  1  0.86478078  0.02445797  0.98383658  1  -0.098719  0  -0.085519  -0.120382  0  3.965365  0
C  C157  1  0.63522114  0.47552840  0.48382733  1  -0.098867  0  -0.085631  -0.120527  0  3.96576  0
C  C158  1  0.13523702  0.97552578  0.01617626  1  -0.098924  0  -0.085642  -0.120433  0  3.965449  0
C  C159  1  0.36477296  0.52447198  0.51616595  1  -0.098568  0  -0.085671  -0.12058  0  3.965912  0
C  C160  1  0.80832199  0.84767884  0.26252509  1  0.487404  0  0.048156  0.096287  0  3.945693  0
C  C161  1  0.69168807  0.65231809  0.76252026  1  0.487518  0  0.048132  0.096185  0  3.945777  0
C  C162  1  0.19168214  0.15231450  0.73747422  1  0.488016  0  0.048056  0.096135  0  3.946037  0
C  C163  1  0.30832286  0.34768068  0.23747553  1  0.487276  0  0.048162  0.096325  0  3.94561  0
C  C164  1  0.72509033  0.87791399  0.31292531  1  -0.029373  0  -0.079523  -0.179283  0  3.935602  0
C  C165  1  0.77492541  0.62208510  0.81292065  1  -0.029336  0  -0.079421  -0.179248  0  3.935762  0
C  C166  1  0.27491020  0.12208625  0.68706798  1  -0.029712  0  -0.079468  -0.179201  0  3.935776  0
C  C167  1  0.22509318  0.37791412  0.18707364  1  -0.02941  0  -0.07958  -0.179419  0  3.93588  0
C  C168  1  0.61328407  0.82574847  0.34247302  1  0.058747  0  0.021066  0.154443  0  3.928882  0
C  C169  1  0.88671979  0.67424864  0.84247352  1  0.058615  0  0.021118  0.154306  0  3.92911  0
C  C170  1  0.38670687  0.17425632  0.65752328  1  0.058667  0  0.021088  0.154456  0  3.929082  0
C  C171  1  0.11329038  0.32575138  0.15752428  1  0.058335  0  0.021178  0.154449  0  3.928969  0
C  C172  1  0.58856228  0.74501849  0.31814622  1  -0.088809  0  -0.08217  -0.175514  0  3.949045  0
C  C173  1  0.91143685  0.75497853  0.81815119  1  -0.08841  0  -0.082178  -0.175416  0  3.949082  0
C  C174  1  0.41143579  0.25498056  0.68185458  1  -0.088595  0  -0.082211  -0.175671  0  3.949051  0
C  C175  1  0.08856079  0.24502302  0.18185112  1  -0.088963  0  -0.08219  -0.175497  0  3.948964  0
C  C176  1  0.67465526  0.71935390  0.26706269  1  0.486541  0  0.045115  0.090091  0  3.93668  0
C  C177  1  0.82535140  0.78064624  0.76706495  1  0.486248  0  0.045051  0.089992  0  3.936657  0
C  C178  1  0.32534705  0.28064073  0.73294464  1  0.486716  0  0.045012  0.090047  0  3.936641  0
C  C179  1  0.17464946  0.21935523  0.23293585  1  0.486502  0  0.044986  0.089901  0  3.936739  0
C  C180  1  0.52371399  0.85401928  0.39934855  1  0.296478  0  -0.056206  -0.112584  0  3.971654  0
C  C181  1  0.97628873  0.64597401  0.89935074  1  0.296615  0  -0.056109  -0.112211  0  3.97145  0
C  C182  1  0.47628564  0.14598161  0.60064875  1  0.296619  0  -0.056256  -0.1126  0  3.971641  0
C  C183  1  0.02371545  0.35402367  0.10064806  1  0.296716  0  -0.056187  -0.112357  0  3.97149  0
C  C184  1  0.31140468  0.81445091  0.46779515  1  0.295172  0  -0.068451  -0.067784  0  3.946833  0
C  C185  1  0.18860567  0.68554072  0.96779799  1  0.295023  0  -0.068503  -0.067694  0  3.94669  0
C  C186  1  0.68860058  0.18554675  0.53220666  1  0.295251  0  -0.06855  -0.067929  0  3.94654  0
C  C187  1  0.81140231  0.31445502  0.03220232  1  0.294861  0  -0.06852  -0.067867  0  3.946945  0
C  C188  1  0.16914523  0.75887603  0.46943465  1  0.27377  0  -0.07219  -0.0808  0  3.949002  0
C  C189  1  0.33086804  0.74111431  0.96943475  1  0.273624  0  -0.072108  -0.080821  0  3.949117  0
C  C190  1  0.83085702  0.24112665  0.53056716  1  0.273481  0  -0.072125  -0.080581  0  3.948626  0
C  C191  1  0.66914755  0.25887755  0.03056305  1  0.273645  0  -0.072186  -0.080833  0  3.948883  0
C  C192  1  0.14522185  0.77305956  0.35049802  1  0.311187  0  -0.069364  -0.070099  0  3.945888  0
C  C193  1  0.35477236  0.72693950  0.85049814  1  0.31079  0  -0.069342  -0.070025  0  3.945802  0
C  C194  1  0.85476121  0.22695222  0.64950730  1  0.311256  0  -0.069257  -0.069682  0  3.945304  0
C  C195  1  0.64523408  0.27305442  0.14950167  1  0.310778  0  -0.069338  -0.070069  0  3.945822  0
C  C196  1  0.28804986  0.82776157  0.34883195  1  0.242592  0  -0.072633  -0.080824  0  3.939196  0
C  C197  1  0.21195054  0.67223238  0.84883280  1  0.24299  0  -0.072564  -0.080705  0  3.93927  0
C  C198  1  0.71193910  0.17224388  0.65117087  1  0.242695  0  -0.072608  -0.080621  0  3.939264  0
C  C199  1  0.78805697  0.32776152  0.15116700  1  0.2427  0  -0.072618  -0.080712  0  3.939317  0
C  C200  1  0.93463101  0.72990708  0.41651743  1  0.342916  0  -0.056805  -0.107148  0  3.97349  0
C  C201  1  0.56537539  0.77008689  0.91651620  1  0.34316  0  -0.056705  -0.107004  0  3.973406  0
C  C202  1  0.06536871  0.27010247  0.58348940  1  0.342771  0  -0.05699  -0.107657  0  3.973782  0
C  C203  1  0.43463961  0.22990684  0.08348010  1  0.342822  0  -0.056847  -0.107217  0  3.973591  0
C  C204  1  0.83783128  0.74997645  0.47340997  1  -0.08137  0  0.018765  0.150472  0  3.926446  0
C  C205  1  0.66217387  0.75001740  0.97340749  1  -0.080873  0  0.018775  0.150529  0  3.926543  0
C  C206  1  0.16216443  0.25003009  0.52659385  1  -0.081479  0  0.018867  0.15062  0  3.926724  0
C  C207  1  0.33784333  0.24998061  0.02658229  1  -0.080689  0  0.01868  0.150372  0  3.926645  0
C  C208  1  0.86617528  0.82130937  0.51231374  1  0.022561  0  -0.081454  -0.178276  0  3.941729  0
C  C209  1  0.63382907  0.67868127  0.01230462  1  0.021691  0  -0.081684  -0.178598  0  3.941837  0
C  C210  1  0.13382380  0.17869772  0.48769710  1  0.022759  0  -0.081742  -0.178579  0  3.942249  0
C  C211  1  0.36619719  0.32130601  0.98767814  1  0.02238  0  -0.081514  -0.178358  0  3.942188  0
C  C212  1  0.77883182  0.83363895  0.56720894  1  0.460442  0  0.047708  0.091597  0  3.929348  0
C  C213  1  0.72116277  0.66634802  0.06720409  1  0.461027  0  0.047811  0.091703  0  3.929168  0
C  C214  1  0.22115275  0.16635793  0.43279889  1  0.460101  0  0.047926  0.09188  0  3.929397  0
C  C215  1  0.27886488  0.33364046  0.93278268  1  0.460329  0  0.047875  0.09198  0  3.92925  0
C  C216  1  0.63077964  0.71303199  0.54397926  1  0.440537  0  0.046501  0.098502  0  3.945481  0
C  C217  1  0.86921351  0.78695916  0.04398804  1  0.439599  0  0.046751  0.098698  0  3.945623  0
C  C218  1  0.36920428  0.28697482  0.45601503  1  0.440569  0  0.046669  0.098564  0  3.945119  0
C  C219  1  0.13078766  0.21304354  0.95601478  1  0.439848  0  0.04668  0.098778  0  3.945579  0
C  C220  1  0.71463680  0.69631860  0.48921540  1  -0.000731  0  -0.081524  -0.171743  0  3.934609  0
C  C221  1  0.78536403  0.80367424  0.98922114  1  -0.000419  0  -0.08146  -0.171743  0  3.934477  0
C  C222  1  0.28534926  0.30368816  0.51078190  1  -0.000105  0  -0.081535  -0.171768  0  3.934287  0
C  C223  1  0.21464239  0.19633206  0.01077917  1  -0.000805  0  -0.081377  -0.17156  0  3.934565  0
N  N224  1  0.78463426  0.76949939  0.23988782  1  -1.262054  0  -0.329847  -0.243848  0  3.54885  0
N  N225  1  0.71537511  0.73050047  0.73988494  1  -1.262108  0  -0.329869  -0.243838  0  3.548671  0
N  N226  1  0.21537304  0.23048956  0.76011700  1  -1.262794  0  -0.329772  -0.243771  0  3.548884  0
N  N227  1  0.28462880  0.26950032  0.26011236  1  -1.262112  0  -0.329851  -0.243851  0  3.548544  0
N  N228  1  0.38266022  0.80651921  0.40332883  1  -1.042416  0  -0.347223  -0.152504  0  3.523639  0
N  N229  1  0.11734696  0.69347257  0.90333094  1  -1.042882  0  -0.347284  -0.152784  0  3.523737  0
N  N230  1  0.61733956  0.19348229  0.59667298  1  -1.042453  0  -0.3472  -0.152535  0  3.523674  0
N  N231  1  0.88266209  0.30652315  0.09666886  1  -1.042201  0  -0.347191  -0.152669  0  3.523864  0
N  N232  1  0.07358663  0.77967020  0.41515835  1  -1.043514  0  -0.346629  -0.150448  0  3.509236  0
N  N233  1  0.42641455  0.72032676  0.91515670  1  -1.04372  0  -0.346746  -0.150519  0  3.509284  0
N  N234  1  0.92640928  0.22034129  0.58484697  1  -1.043645  0  -0.346594  -0.15057  0  3.508788  0
N  N235  1  0.57359526  0.27966770  0.08484060  1  -1.043426  0  -0.346619  -0.150412  0  3.509179  0
N  N236  1  0.66400661  0.77937534  0.58357588  1  -1.263721  0  -0.337659  -0.246314  0  3.611858  0
N  N237  1  0.83598583  0.72061058  0.08358072  1  -1.262896  0  -0.33776  -0.24633  0  3.612006  0
N  N238  1  0.33597920  0.22062213  0.41642392  1  -1.263181  0  -0.337678  -0.246369  0  3.611709  0
N  N239  1  0.16402720  0.27938381  0.91641507  1  -1.263067  0  -0.337798  -0.246657  0  3.612049  0
O  O240  1  0.07926953  0.82104115  0.17853155  1  -1.179081  0  -0.345122  -0.576852  0  2.339509  0
O  O241  1  0.42073712  0.67895434  0.67849710  1  -1.178754  0  -0.345192  -0.576983  0  2.339123  0
O  O242  1  0.92070083  0.17897153  0.82145722  1  -1.178752  0  -0.345187  -0.576895  0  2.339054  0
O  O243  1  0.57926180  0.32105213  0.32149068  1  -1.179079  0  -0.345056  -0.576903  0  2.339425  0
O  O244  1  0.22632249  0.74778203  0.11817321  1  -1.168686  0  -0.322935  -0.536947  0  2.114496  0
O  O245  1  0.27364549  0.75222187  0.61816663  1  -1.168838  0  -0.322943  -0.537027  0  2.114312  0
O  O246  1  0.77368817  0.25217836  0.88188124  1  -1.168931  0  -0.323069  -0.537073  0  2.114987  0
O  O247  1  0.72634197  0.24778610  0.38182966  1  -1.168689  0  -0.323067  -0.537143  0  2.114292  0
O  O248  1  0.27320526  0.06527606  0.30479438  1  -1.199682  0  -0.330189  -0.568904  0  2.152467  0
O  O249  1  0.22678893  0.43475213  0.80481054  1  -1.199279  0  -0.329893  -0.568639  0  2.153099  0
O  O250  1  0.72676061  0.93473177  0.69518788  1  -1.198882  0  -0.330001  -0.568898  0  2.152805  0
O  O251  1  0.77323706  0.56527974  0.19519629  1  -1.199343  0  -0.330063  -0.568906  0  2.152826  0
O  O252  1  0.49203987  0.12970683  0.27557276  1  -1.16945  0  -0.337608  -0.542424  0  2.3203  0
O  O253  1  0.00798779  0.37029436  0.77556226  1  -1.170938  0  -0.337644  -0.542395  0  2.320367  0
O  O254  1  0.50795054  0.87029178  0.72442955  1  -1.168916  0  -0.337553  -0.542398  0  2.320566  0
O  O255  1  0.99206679  0.62970653  0.22443253  1  -1.169134  0  -0.337537  -0.542368  0  2.320572  0
O  O256  1  0.68432859  0.94666126  0.09991967  1  -1.06029  0  -0.184873  -0.208265  0  2.525261  0
O  O257  1  0.81564672  0.55334066  0.59993188  1  -1.060526  0  -0.184823  -0.208267  0  2.525536  0
O  O258  1  0.31565207  0.05334128  0.90007612  1  -1.060548  0  -0.184913  -0.208318  0  2.525493  0
O  O259  1  0.18434294  0.44665920  0.40007193  1  -1.060511  0  -0.184856  -0.208236  0  2.525552  0
