# generated using pymatgen
data_ZnH13C12N4ClO4
_symmetry_space_group_name_H-M   'P 1'
_cell_length_a   9.07544368
_cell_length_b   11.81156809
_cell_length_c   14.68974671
_cell_angle_alpha   110.11630178
_cell_angle_beta   90.00020659
_cell_angle_gamma   89.99982062
_symmetry_Int_Tables_number   1
_chemical_formula_structural   ZnH13C12N4ClO4
_chemical_formula_sum   'Zn4 H52 C48 N16 Cl4 O16'
_cell_volume   1478.61012247
_cell_formula_units_Z   4
loop_
 _symmetry_equiv_pos_site_id
 _symmetry_equiv_pos_as_xyz
  1  'x, y, z'
loop_
 _atom_site_type_symbol
 _atom_site_label
 _atom_site_symmetry_multiplicity
 _atom_site_fract_x
 _atom_site_fract_y
 _atom_site_fract_z
 _atom_site_occupancy
 _atom_site_pbe_bader_spin_density
 _atom_site_pbe_cm5_charge
 _atom_site_pbe_ddec_charge
 _atom_site_pbe_ddec_spin_density
 _atom_site_pbe_ddec_sum_bond_order
 _atom_site_pbe_magmom
Zn  Zn0  1  0.56494775  0.42001017  0.34939915  1  0  0.627177  0.716837  0  2.587887  0
Zn  Zn1  1  0.06494476  0.07998802  0.15060072  1  0  0.627182  0.716834  0  2.587898  0
Zn  Zn2  1  0.43505163  0.57998913  0.65060110  1  0  0.627169  0.716813  0  2.587956  0
Zn  Zn3  1  0.93505572  0.92001038  0.84939860  1  0  0.627194  0.716883  0  2.587864  0
H  H4  1  0.05709216  0.03531045  0.65228304  1  0  0.305147  0.379303  0  0.961977  0
H  H5  1  0.55709055  0.46468915  0.84770910  1  0  0.305121  0.379258  0  0.962033  0
H  H6  1  0.94290392  0.96468798  0.34771152  1  0  0.305122  0.379322  0  0.961956  0
H  H7  1  0.44291324  0.53531557  0.15229062  1  0  0.305151  0.379301  0  0.961978  0
H  H8  1  0.37559207  0.18967494  0.30988915  1  0  0.120999  0.117654  0  1.012589  0
H  H9  1  0.87559238  0.31032275  0.19010786  1  0  0.121012  0.117673  0  1.012606  0
H  H10  1  0.62440841  0.81032347  0.69011085  1  0  0.121021  0.11766  0  1.012594  0
H  H11  1  0.12440590  0.68967566  0.80989078  1  0  0.121021  0.117665  0  1.01264  0
H  H12  1  0.32336384  0.08290064  0.44805328  1  0  0.128443  0.135806  0  1.01478  0
H  H13  1  0.82336621  0.41709984  0.05194440  1  0  0.128451  0.135792  0  1.014809  0
H  H14  1  0.67663553  0.91710047  0.55194748  1  0  0.128451  0.135821  0  1.014764  0
H  H15  1  0.17663537  0.58290037  0.94805475  1  0  0.128446  0.135793  0  1.014779  0
H  H16  1  0.57763600  0.25043362  0.66312731  1  0  0.113099  0.096297  0  1.010497  0
H  H17  1  0.07763891  0.24956682  0.83687056  1  0  0.113117  0.096279  0  1.010472  0
H  H18  1  0.42235897  0.74956658  0.33687387  1  0  0.113085  0.096273  0  1.010515  0
H  H19  1  0.92236377  0.75043519  0.16313044  1  0  0.113126  0.096307  0  1.010454  0
H  H20  1  0.53908925  0.09483653  0.59995417  1  0  0.11391  0.095979  0  0.996101  0
H  H21  1  0.03909080  0.40516308  0.90004474  1  0  0.113927  0.096014  0  0.99602  0
H  H22  1  0.46090682  0.90516278  0.40004608  1  0  0.113923  0.096018  0  0.996047  0
H  H23  1  0.96091629  0.59483803  0.09995669  1  0  0.113921  0.095997  0  0.996097  0
H  H24  1  0.37279233  0.21739122  0.74753569  1  0  0.110179  0.134344  0  0.977777  0
H  H25  1  0.87279752  0.28260514  0.75246034  1  0  0.110146  0.134324  0  0.977822  0
H  H26  1  0.62720154  0.78260539  0.25246245  1  0  0.110149  0.134331  0  0.977801  0
H  H27  1  0.12721067  0.71739958  0.24753938  1  0  0.110129  0.13426  0  0.977821  0
H  H28  1  0.29270332  0.28319038  0.66866178  1  0  0.098616  0.131908  0  1.010676  0
H  H29  1  0.79270593  0.21681333  0.83133543  1  0  0.0986  0.131897  0  1.010755  0
H  H30  1  0.70729385  0.71681164  0.33133718  1  0  0.098636  0.131941  0  1.010645  0
H  H31  1  0.20729896  0.78319230  0.16866318  1  0  0.098596  0.131849  0  1.010786  0
H  H32  1  0.76043643  0.63123606  0.73972720  1  0  0.12406  0.126385  0  0.995574  0
H  H33  1  0.26044392  0.86876374  0.76027288  1  0  0.124057  0.12636  0  0.995588  0
H  H34  1  0.23956075  0.36876505  0.26027288  1  0  0.124065  0.12641  0  0.99557  0
H  H35  1  0.73955546  0.13123466  0.23972916  1  0  0.124047  0.126329  0  0.995666  0
H  H36  1  0.98592306  0.46483488  0.67238101  1  0  0.116018  0.129924  0  1.035038  0
H  H37  1  0.48592680  0.03516670  0.82761740  1  0  0.116036  0.129981  0  1.035004  0
H  H38  1  0.01407521  0.53516714  0.32761727  1  0  0.116007  0.129931  0  1.03499  0
H  H39  1  0.51407368  0.96483080  0.17238371  1  0  0.116044  0.130015  0  1.03499  0
H  H40  1  0.81756661  0.17942300  0.49336472  1  0  0.110522  0.102269  0  1.026881  0
H  H41  1  0.31756841  0.32057569  0.00663449  1  0  0.110513  0.10226  0  1.026926  0
H  H42  1  0.18243056  0.82057541  0.50663596  1  0  0.11047  0.102178  0  1.027027  0
H  H43  1  0.68243207  0.67942272  0.99336619  1  0  0.110512  0.102233  0  1.026928  0
H  H44  1  0.97446374  0.23039713  0.56792355  1  0  0.110562  0.09824  0  0.978992  0
H  H45  1  0.47446603  0.26960355  0.93207731  1  0  0.110605  0.098328  0  0.978889  0
H  H46  1  0.02553453  0.76960307  0.43207831  1  0  0.11058  0.098256  0  0.97897  0
H  H47  1  0.52553335  0.73039665  0.06792319  1  0  0.110592  0.098284  0  0.978932  0
H  H48  1  0.89014102  0.33537160  0.41012699  1  0  0.091162  0.112651  0  1.030792  0
H  H49  1  0.39014063  0.16462786  0.08987327  1  0  0.091169  0.112657  0  1.030778  0
H  H50  1  0.10985946  0.66462500  0.58987183  1  0  0.091154  0.112631  0  1.030784  0
H  H51  1  0.60986095  0.83537144  0.91012766  1  0  0.09115  0.112617  0  1.03082  0
H  H52  1  0.06077675  0.34888418  0.46857617  1  0  0.093331  0.131962  0  1.014565  0
H  H53  1  0.56077678  0.15111402  0.03142505  1  0  0.093325  0.131978  0  1.014555  0
H  H54  1  0.93922373  0.65111242  0.53142401  1  0  0.093298  0.131916  0  1.014634  0
H  H55  1  0.43922481  0.84888529  0.96857588  1  0  0.093327  0.131966  0  1.014566  0
C  C56  1  0.56342016  0.29977715  0.50626391  1  0  0.217148  0.169868  0  4.023238  0
C  C57  1  0.06342088  0.20022062  0.99373387  1  0  0.217105  0.169752  0  4.023264  0
C  C58  1  0.43657922  0.70022216  0.49373635  1  0  0.217166  0.169904  0  4.023337  0
C  C59  1  0.93657850  0.79977960  0.00626528  1  0  0.217127  0.169727  0  4.023433  0
C  C60  1  0.42344996  0.20926817  0.38127242  1  0  0.006292  -0.00856  0  3.958725  0
C  C61  1  0.92344882  0.29072945  0.11872468  1  0  0.00627  -0.008557  0  3.958777  0
C  C62  1  0.57655162  0.79072934  0.61872665  1  0  0.006264  -0.008568  0  3.958772  0
C  C63  1  0.07654835  0.70926986  0.88127421  1  0  0.006253  -0.00859  0  3.958804  0
C  C64  1  0.39752977  0.15495113  0.44872042  1  0  0.014641  -0.075729  0  3.885448  0
C  C65  1  0.89753022  0.34504923  0.05127874  1  0  0.014679  -0.075702  0  3.885455  0
C  C66  1  0.60246961  0.84504998  0.55128101  1  0  0.014659  -0.075685  0  3.885414  0
C  C67  1  0.10247026  0.65495098  0.94872040  1  0  0.014671  -0.075668  0  3.885433  0
C  C68  1  0.49735562  0.18702760  0.61719176  1  0  -0.050329  -0.035869  0  3.861879  0
C  C69  1  0.99735814  0.31297306  0.88280642  1  0  -0.050331  -0.035897  0  3.861801  0
C  C70  1  0.50264045  0.81297170  0.38280917  1  0  -0.050261  -0.035798  0  3.861783  0
C  C71  1  0.00264675  0.68702986  0.11719416  1  0  -0.050356  -0.035932  0  3.86184  0
C  C72  1  0.35081084  0.20221746  0.67052663  1  0  -0.161051  -0.328013  0  3.910174  0
C  C73  1  0.85081422  0.29778254  0.82946968  1  0  -0.161054  -0.32804  0  3.910139  0
C  C74  1  0.64918413  0.79778275  0.32947251  1  0  -0.161082  -0.328115  0  3.910082  0
C  C75  1  0.14919288  0.70222308  0.17053028  1  0  -0.161034  -0.327888  0  3.910002  0
C  C76  1  0.25175905  0.09283348  0.63325449  1  0  0.228992  0.626079  0  4.100116  0
C  C77  1  0.75176219  0.40717750  0.86674602  1  0  0.228976  0.626091  0  4.100393  0
C  C78  1  0.74823592  0.90717124  0.36674455  1  0  0.229061  0.626282  0  4.100255  0
C  C79  1  0.24824269  0.59282903  0.13325420  1  0  0.228974  0.6261  0  4.100098  0
C  C80  1  0.66530170  0.38295177  0.57385582  1  0  0.215628  0.164005  0  4.023881  0
C  C81  1  0.16530458  0.11704672  0.92614306  1  0  0.215679  0.16411  0  4.023848  0
C  C82  1  0.33469767  0.61704753  0.42614511  1  0  0.215619  0.163987  0  4.024001  0
C  C83  1  0.83469700  0.88295259  0.07385651  1  0  0.215627  0.164074  0  4.023946  0
C  C84  1  0.75700411  0.54155045  0.68587878  1  0  0.007773  -0.006851  0  3.964642  0
C  C85  1  0.25701045  0.95844846  0.81412104  1  0  0.007833  -0.006708  0  3.96455  0
C  C86  1  0.24299306  0.45844976  0.31412172  1  0  0.007772  -0.006887  0  3.964721  0
C  C87  1  0.74298783  0.04154904  0.18588007  1  0  0.007855  -0.006655  0  3.964634  0
C  C88  1  0.86967196  0.45970569  0.65411560  1  0  0.012838  -0.077746  0  3.879359  0
C  C89  1  0.36967578  0.04029518  0.84588303  1  0  0.012764  -0.077932  0  3.879484  0
C  C90  1  0.13032742  0.54029633  0.34588404  1  0  0.012854  -0.077759  0  3.879403  0
C  C91  1  0.63032360  0.95970232  0.15411604  1  0  0.01275  -0.077984  0  3.879495  0
C  C92  1  0.89395510  0.25540623  0.52239645  1  0  -0.057624  -0.047967  0  3.864803  0
C  C93  1  0.39395665  0.24459459  0.97760495  1  0  -0.057641  -0.048074  0  3.864748  0
C  C94  1  0.10604649  0.74459308  0.47760312  1  0  -0.057615  -0.047876  0  3.86488  0
C  C95  1  0.60604603  0.75540561  0.02239759  1  0  -0.057667  -0.048025  0  3.864945  0
C  C96  1  0.96783879  0.28656787  0.44069094  1  0  -0.171924  -0.329289  0  3.907778  0
C  C97  1  0.46784023  0.21343146  0.05931014  1  0  -0.171901  -0.329271  0  3.907824  0
C  C98  1  0.03216169  0.71342963  0.55930881  1  0  -0.171902  -0.329266  0  3.907778  0
C  C99  1  0.53216136  0.78656784  0.94069079  1  0  -0.171908  -0.329258  0  3.907836  0
C  C100  1  0.02536253  0.17868249  0.35863955  1  0  0.21654  0.6531  0  4.136694  0
C  C101  1  0.52536250  0.32131577  0.14136092  1  0  0.216582  0.653136  0  4.136786  0
C  C102  1  0.97463905  0.82131592  0.64136113  1  0  0.21666  0.653323  0  4.13678  0
C  C103  1  0.47463908  0.67868263  0.85863908  1  0  0.216571  0.653133  0  4.136643  0
N  N104  1  0.52684978  0.29902576  0.41754635  1  0  -0.351879  -0.312352  0  3.566921  0
N  N105  1  0.02685031  0.20097431  0.08245123  1  0  -0.351867  -0.312349  0  3.567127  0
N  N106  1  0.47314959  0.70097355  0.58245390  1  0  -0.351897  -0.312383  0  3.567016  0
N  N107  1  0.97314686  0.79902590  0.91754859  1  0  -0.351849  -0.312275  0  3.567118  0
N  N108  1  0.48660982  0.21233656  0.52673439  1  0  -0.227703  0.029943  0  3.735029  0
N  N109  1  0.98660967  0.28766502  0.97326403  1  0  -0.22775  0.029966  0  3.734978  0
N  N110  1  0.51338845  0.78766365  0.47326611  1  0  -0.22774  0.029869  0  3.735081  0
N  N111  1  0.01339081  0.71233610  0.02673605  1  0  -0.227717  0.029938  0  3.73494  0
N  N112  1  0.63056176  0.49284816  0.63604364  1  0  -0.350986  -0.315186  0  3.598972  0
N  N113  1  0.13056582  0.00715040  0.86395450  1  0  -0.350994  -0.315256  0  3.598988  0
N  N114  1  0.36943651  0.50715205  0.36395686  1  0  -0.350977  -0.315193  0  3.599018  0
N  N115  1  0.86943245  0.99285071  0.13604626  1  0  -0.350971  -0.315223  0  3.598993  0
N  N116  1  0.81057071  0.36007033  0.58424772  1  0  -0.230039  0.022579  0  3.731627  0
N  N117  1  0.31057453  0.13992793  0.91575006  1  0  -0.230083  0.022582  0  3.731677  0
N  N118  1  0.18942867  0.63992808  0.41575024  1  0  -0.230047  0.022579  0  3.731762  0
N  N119  1  0.68942705  0.86007047  0.08425062  1  0  -0.23003  0.02264  0  3.731801  0
Cl  Cl120  1  0.75865609  0.53818926  0.39825006  1  0  -0.288962  -0.485818  0  1.287592  0
Cl  Cl121  1  0.25865456  0.96180915  0.10175840  1  0  -0.288945  -0.485809  0  1.28761  0
Cl  Cl122  1  0.24134329  0.46181093  0.60175588  1  0  -0.288948  -0.485812  0  1.28761  0
Cl  Cl123  1  0.74134371  0.03818474  0.89824034  1  0  -0.288959  -0.485851  0  1.287643  0
O  O124  1  0.29203165  0.99569346  0.57447859  1  0  -0.29127  -0.510467  0  2.16313  0
O  O125  1  0.79202466  0.50429820  0.92551112  1  0  -0.291168  -0.510274  0  2.163737  0
O  O126  1  0.70796662  0.00430315  0.42551818  1  0  -0.29129  -0.510502  0  2.163381  0
O  O127  1  0.20797912  0.49570561  0.07448971  1  0  -0.291173  -0.510327  0  2.163539  0
O  O128  1  0.11739765  0.11343552  0.67269997  1  0  -0.334775  -0.501856  0  2.292462  0
O  O129  1  0.61740065  0.38656399  0.82728956  1  0  -0.334768  -0.501918  0  2.292415  0
O  O130  1  0.88259622  0.88656381  0.32729212  1  0  -0.33474  -0.501964  0  2.292524  0
O  O131  1  0.38260424  0.61343894  0.17270694  1  0  -0.33483  -0.501973  0  2.292299  0
O  O132  1  0.05535308  0.20231479  0.28120982  1  0  -0.338038  -0.561629  0  2.361351  0
O  O133  1  0.55535580  0.29768522  0.21879189  1  0  -0.338051  -0.561638  0  2.361361  0
O  O134  1  0.94464630  0.79768361  0.71879154  1  0  -0.338068  -0.561704  0  2.361332  0
O  O135  1  0.44464798  0.70231499  0.78120793  1  0  -0.338057  -0.561655  0  2.361344  0
O  O136  1  0.04204404  0.07769404  0.36837685  1  0  -0.328531  -0.577794  0  2.176685  0
O  O137  1  0.54204134  0.42230599  0.13162483  1  0  -0.328557  -0.577828  0  2.176793  0
O  O138  1  0.95796195  0.92230346  0.63162289  1  0  -0.328603  -0.577955  0  2.17692  0
O  O139  1  0.45795583  0.57769421  0.86837703  1  0  -0.328551  -0.57781  0  2.176686  0
