# generated using pymatgen
data_FeH8C9N7O
_symmetry_space_group_name_H-M   'P 1'
_cell_length_a   16.76095966
_cell_length_b   16.76128610
_cell_length_c   16.76104876
_cell_angle_alpha   110.97961369
_cell_angle_beta   108.72096535
_cell_angle_gamma   108.72443248
_symmetry_Int_Tables_number   1
_chemical_formula_structural   FeH8C9N7O
_chemical_formula_sum   'Fe8 H64 C72 N56 O8'
_cell_volume   3622.88989533
_cell_formula_units_Z   8
loop_
 _symmetry_equiv_pos_site_id
 _symmetry_equiv_pos_as_xyz
  1  'x, y, z'
loop_
 _atom_site_type_symbol
 _atom_site_label
 _atom_site_symmetry_multiplicity
 _atom_site_fract_x
 _atom_site_fract_y
 _atom_site_fract_z
 _atom_site_occupancy
 _atom_site_pbe_bader_charge
 _atom_site_pbe_bader_spin_density
 _atom_site_pbe_cm5_charge
 _atom_site_pbe_ddec_charge
 _atom_site_pbe_ddec_spin_density
 _atom_site_pbe_ddec_sum_bond_order
 _atom_site_pbe_magmom
Fe  Fe0  1  0.09129162  0.58060856  0.46102361  1  1.259808  3.367122  0.65353  0.545636  3.503982  2.904085  3.338
Fe  Fe1  1  0.40869367  0.36973457  0.98928965  1  1.25386  3.367137  0.653526  0.545659  3.503846  2.904318  3.337
Fe  Fe2  1  0.11959969  0.48935336  0.08062223  1  1.256445  3.366373  0.653713  0.545297  3.503359  2.905217  3.337
Fe  Fe3  1  0.38042308  0.96103137  0.86975409  1  1.259315  3.366458  0.653528  0.545357  3.503586  2.904321  3.337
Fe  Fe4  1  0.90869951  0.41936640  0.53896754  1  1.260135  3.36696  0.653309  0.545289  3.503701  2.903905  3.337
Fe  Fe5  1  0.59130365  0.63027004  0.01067766  1  1.25398  3.366897  0.65361  0.54547  3.503521  2.904733  3.337
Fe  Fe6  1  0.88044448  0.51069380  0.91940993  1  1.256074  3.366589  0.653755  0.545769  3.503689  2.904606  3.337
Fe  Fe7  1  0.61955054  0.03896206  0.13023979  1  1.259548  3.366508  0.653676  0.545547  3.503757  2.904631  3.337
H  H8  1  0.28143799  0.51146910  0.28809674  1  0.482689  0.00028  0.353257  0.289376  -0.002615  0.901237  0.0
H  H9  1  0.19856959  0.55645315  0.63576830  1  0.051828  0.001523  0.110202  0.071218  0.000465  1.025349  0.001
H  H10  1  0.33486687  0.52204727  0.69201483  1  0.073882  0.000316  0.097585  0.101879  -0.001032  1.043828  0.001
H  H11  1  0.42057457  0.50011569  0.59415796  1  0.070277  -0.001583  0.103838  0.101365  -0.00155  0.989573  0.0
H  H12  1  0.36505704  0.51020192  0.44235487  1  0.04618  -0.000279  0.099222  0.100239  -0.000135  1.009088  0.001
H  H13  1  0.84715724  0.57563022  0.11448665  1  0.111159  -0.000416  0.121993  0.082013  -0.001142  1.032571  0.0
H  H14  1  0.92224119  0.57410060  0.38487103  1  0.596879  0.000527  0.300026  0.363226  4e-05  0.938785  0.001
H  H15  1  0.96943789  0.60757393  0.32556040  1  0.628695  0.000366  0.269585  0.33117  0.000105  1.037746  0.0
H  H16  1  0.21856582  0.00665227  0.73002838  1  0.487003  0.000324  0.353284  0.289503  -0.002614  0.901113  0.0
H  H17  1  0.30140081  0.43716808  0.85785475  1  0.047612  0.001543  0.110296  0.071288  0.000465  1.025211  0.001
H  H18  1  0.16508607  0.35709242  0.68715254  1  0.081083  0.000396  0.097752  0.102047  -0.001031  1.043822  0.001
H  H19  1  0.07940065  0.17352355  0.57951955  1  0.073583  -0.001612  0.103841  0.101455  -0.001554  0.989513  0.0
H  H20  1  0.13495666  0.07726583  0.64514251  1  0.051928  -0.000274  0.099262  0.100333  -0.000136  1.00912  0.001
H  H21  1  0.65285169  0.26734305  0.22848818  1  0.125923  -0.000409  0.12197  0.081942  -0.001141  1.032499  0.0
H  H22  1  0.57773914  0.46263832  0.15184885  1  0.584861  0.000554  0.300075  0.3632  3.9e-05  0.938935  0.001
H  H23  1  0.53055570  0.35613345  0.13813674  1  0.637662  0.000361  0.269536  0.331033  0.000104  1.037894  0.0
H  H24  1  0.22333621  0.23003251  0.01142178  1  0.481313  0.000282  0.353262  0.289346  -0.002617  0.901015  0.0
H  H25  1  0.92069297  0.35797922  0.05643797  1  0.064139  0.001535  0.110268  0.071257  0.000463  1.025452  0.001
H  H26  1  0.82998937  0.18729866  0.02203752  1  0.078655  0.00036  0.097731  0.102111  -0.001031  1.043482  0.001
H  H27  1  0.90587685  0.07960957  0.00009678  1  0.069015  -0.001567  0.103759  0.101254  -0.001553  0.990063  0.0
H  H28  1  0.06775936  0.14516785  0.01017997  1  0.048397  -0.000269  0.099242  0.100154  -0.000135  1.009008  0.001
H  H29  1  0.46114566  0.72846915  0.07561353  1  0.121609  -0.000409  0.121942  0.081843  -0.001143  1.03268  0.0
H  H30  1  0.18924987  0.65189056  0.07410491  1  0.584108  0.000535  0.300065  0.363191  3.9e-05  0.938852  0.001
H  H31  1  0.28203196  0.63817927  0.10758664  1  0.636205  0.000353  0.26965  0.33127  0.000103  1.03759  0.0
H  H32  1  0.27665577  0.78807880  0.50667186  1  0.48244  0.000293  0.35331  0.28935  -0.00262  0.901317  0.0
H  H33  1  0.57931813  0.13576199  0.93726355  1  0.062984  0.001537  0.110232  0.071211  0.000464  1.025601  0.001
H  H34  1  0.67002827  0.19203799  0.85727629  1  0.093504  0.000401  0.09764  0.10199  -0.001034  1.043593  0.001
H  H35  1  0.59414123  0.09418492  0.67369455  1  0.057901  -0.001668  0.103754  0.101291  -0.001551  0.989777  0.0
H  H36  1  0.43225564  0.94239126  0.57738360  1  0.048679  -0.000274  0.099186  0.100164  -0.000135  1.008757  0.001
H  H37  1  0.03887830  0.61448328  0.76733669  1  0.127432  -0.00042  0.12208  0.08208  -0.001142  1.032564  0.0
H  H38  1  0.31076582  0.88485014  0.96263539  1  0.578307  0.00055  0.29999  0.363153  3.8e-05  0.939047  0.001
H  H39  1  0.21797151  0.82555805  0.85614769  1  0.627788  0.000372  0.269616  0.331245  0.000103  1.037674  0.0
H  H40  1  0.71857465  0.48855827  0.71193313  1  0.479907  0.000274  0.35348  0.28962  -0.002619  0.901309  0.0
H  H41  1  0.80143827  0.44353783  0.36423752  1  0.051548  0.00152  0.110153  0.071172  0.000464  1.025303  0.001
H  H42  1  0.66515545  0.47795303  0.30798823  1  0.075406  0.000326  0.097631  0.101997  -0.001031  1.043749  0.001
H  H43  1  0.57944942  0.49990097  0.40584968  1  0.070284  -0.001586  0.103839  0.101413  -0.001552  0.989755  0.0
H  H44  1  0.63495984  0.48980541  0.55764715  1  0.046392  -0.000277  0.099159  0.100103  -0.000134  1.008966  0.001
H  H45  1  0.15283530  0.42436525  0.88551465  1  0.111135  -0.000416  0.121992  0.081905  -0.001141  1.032641  0.0
H  H46  1  0.07778292  0.42589781  0.61513253  1  0.596561  0.000523  0.30005  0.363189  3.7e-05  0.938948  0.001
H  H47  1  0.03059077  0.39241581  0.67444213  1  0.628591  0.000362  0.269635  0.331252  0.000103  1.037623  0.0
H  H48  1  0.78143223  0.99335680  0.26997596  1  0.486614  0.000323  0.353446  0.289554  -0.002618  0.901336  0.0
H  H49  1  0.69855616  0.56280794  0.14211863  1  0.047152  0.00154  0.11018  0.071289  0.000464  1.025346  0.001
H  H50  1  0.83486347  0.64285779  0.31281402  1  0.080283  0.000385  0.097643  0.101952  -0.001031  1.043667  0.001
H  H51  1  0.92057695  0.82642684  0.42045371  1  0.070093  -0.001629  0.103849  0.101286  -0.001554  0.989734  0.0
H  H52  1  0.86505187  0.92270891  0.35484998  1  0.052396  -0.000273  0.099235  0.100271  -0.000136  1.009072  0.001
H  H53  1  0.34714275  0.73265949  0.77152819  1  0.125941  -0.000409  0.121965  0.081939  -0.001141  1.032662  0.0
H  H54  1  0.42224263  0.53735300  0.84815586  1  0.584845  0.000554  0.300039  0.363132  3.9e-05  0.939101  0.001
H  H55  1  0.46940932  0.64383665  0.86182757  1  0.637727  0.00036  0.269653  0.331274  0.000104  1.037573  0.0
H  H56  1  0.77665561  0.76996372  0.98857777  1  0.481304  0.000282  0.353172  0.28934  -0.002615  0.901095  0.0
H  H57  1  0.07931173  0.64206290  0.94354628  1  0.064289  0.001538  0.110164  0.071081  0.000465  1.025473  0.001
H  H58  1  0.17001406  0.81276944  0.97798959  1  0.078743  0.000358  0.097611  0.101945  -0.001032  1.043804  0.001
H  H59  1  0.09412556  0.92044800  0.99995371  1  0.068063  -0.001576  0.103739  0.101221  -0.001552  0.989903  0.0
H  H60  1  0.93224669  0.85487942  0.98987219  1  0.047803  -0.00027  0.09909  0.100059  -0.000135  1.008805  0.001
H  H61  1  0.53884129  0.27151410  0.92437624  1  0.121703  -0.00041  0.121949  0.081895  -0.001143  1.032489  0.0
H  H62  1  0.81075928  0.34813916  0.92590499  1  0.58469  0.000537  0.300028  0.36323  4e-05  0.938755  0.001
H  H63  1  0.71798106  0.36185799  0.89241706  1  0.636148  0.000355  0.269551  0.331099  0.000105  1.037833  0.0
H  H64  1  0.72333291  0.21188706  0.49329676  1  0.482393  0.000293  0.353317  0.289317  -0.00262  0.901417  0.0
H  H65  1  0.42067060  0.86421937  0.06272494  1  0.063178  0.001538  0.110228  0.071241  0.000463  1.025569  0.001
H  H66  1  0.32996972  0.80795046  0.14272844  1  0.093479  0.000401  0.097647  0.102057  -0.001032  1.043527  0.001
H  H67  1  0.40585254  0.90580150  0.32630452  1  0.058233  -0.001666  0.10375  0.101269  -0.001551  0.989769  0.0
H  H68  1  0.56774594  0.05759857  0.42261920  1  0.048645  -0.000273  0.099184  0.10011  -0.000135  1.008818  0.001
H  H69  1  0.96112740  0.38550477  0.23265128  1  0.126966  -0.000422  0.121985  0.081953  -0.001144  1.032583  0.0
H  H70  1  0.68923618  0.11513278  0.03736687  1  0.578579  0.000552  0.299958  0.363082  3.9e-05  0.938935  0.001
H  H71  1  0.78201301  0.17442650  0.14386742  1  0.627526  0.000373  0.269505  0.330983  0.000104  1.038043  0.0
C  C72  1  0.23621918  0.54404031  0.59400760  1  0.420122  -0.012766  0.031212  0.077133  -0.014314  4.000409  0.0
C  C73  1  0.31175650  0.52518783  0.62522003  1  0.034627  -0.065347  -0.106649  -0.155086  -0.068624  4.015908  -0.035
C  C74  1  0.35978661  0.51298607  0.57017491  1  -0.099875  -0.058971  -0.090577  -0.055568  -0.061211  4.032615  -0.031
C  C75  1  0.32903296  0.51877675  0.48624383  1  0.011589  -0.019435  -0.100775  -0.175933  -0.022296  4.035852  -0.005
C  C76  1  0.25080228  0.53668538  0.45807094  1  0.466064  -0.083183  0.082508  0.101302  -0.091526  4.079453  -0.047
C  C77  1  0.21122170  0.54403112  0.37388402  1  0.865237  -0.079324  0.197549  0.20782  -0.084001  4.071268  -0.041
C  C78  1  0.11709330  0.56254839  0.26791496  1  0.946237  -0.034589  0.208539  0.214416  -0.039113  4.059576  -0.018
C  C79  1  0.03803273  0.56528501  0.20463592  1  0.977433  -0.009644  0.196614  0.197101  -0.01247  4.106472  -0.002
C  C80  1  0.91137122  0.56782044  0.13137852  1  0.969066  0.010601  0.125227  0.128402  0.004166  4.015182  0.009
C  C81  1  0.26375060  0.35775876  0.80779807  1  0.484849  -0.012532  0.031148  0.077061  -0.014356  4.000412  0.0
C  C82  1  0.18821531  0.31342102  0.71340692  1  -0.044027  -0.065723  -0.107053  -0.155548  -0.06858  4.016181  -0.035
C  C83  1  0.14019370  0.21035208  0.65317626  1  -0.066891  -0.058888  -0.090523  -0.055479  -0.061266  4.032321  -0.031
C  C84  1  0.17096252  0.15717797  0.68973039  1  -0.01104  -0.01959  -0.100628  -0.175821  -0.022292  4.035963  -0.005
C  C85  1  0.24918868  0.20725644  0.78587527  1  0.454067  -0.08326  0.082337  0.101021  -0.091514  4.080036  -0.047
C  C86  1  0.28877873  0.16265808  0.83280965  1  0.882902  -0.079151  0.197588  0.207873  -0.084012  4.071212  -0.041
C  C87  1  0.38291557  0.15083557  0.94546743  1  0.935225  -0.034696  0.208615  0.214493  -0.039105  4.059773  -0.018
C  C88  1  0.46198343  0.16662847  0.02726611  1  0.990698  -0.009637  0.196691  0.197105  -0.012484  4.106916  -0.002
C  C89  1  0.58863580  0.22002281  0.15645840  1  0.954879  0.010585  0.125335  0.128667  0.004161  4.015364  0.009
C  C90  1  0.95003202  0.30791762  0.04404513  1  0.402766  -0.012945  0.030944  0.076807  -0.014346  4.000477  0.0
C  C91  1  0.89993354  0.21352821  0.02519525  1  0.024212  -0.065266  -0.107099  -0.156034  -0.068608  4.015317  -0.035
C  C92  1  0.94275782  0.15328155  0.01298738  1  -0.094425  -0.059191  -0.090138  -0.054882  -0.061256  4.031814  -0.031
C  C93  1  0.03247455  0.18979774  0.01876336  1  0.047242  -0.019289  -0.100878  -0.175943  -0.0223  4.03564  -0.005
C  C94  1  0.07858476  0.28593703  0.03669618  1  0.443515  -0.083136  0.082287  0.10147  -0.091501  4.080005  -0.047
C  C95  1  0.17011662  0.33282712  0.04403030  1  0.866597  -0.079406  0.197624  0.207381  -0.084013  4.071519  -0.041
C  C96  1  0.29460001  0.44545968  0.06251216  1  0.94224  -0.034605  0.208929  0.215285  -0.039116  4.05906  -0.018
C  C97  1  0.36063709  0.52725068  0.06523591  1  0.974772  -0.009642  0.196552  0.196738  -0.012469  4.107074  -0.002
C  C98  1  0.43644767  0.65644433  0.06779844  1  0.957205  0.010595  0.125403  0.128704  0.004162  4.015959  0.009
C  C99  1  0.54998258  0.09403205  0.85786736  1  0.436625  -0.012648  0.030986  0.076909  -0.014322  4.000498  0.0
C  C100  1  0.60008084  0.12525692  0.81356366  1  -0.076256  -0.065713  -0.106798  -0.15556  -0.068644  4.015051  -0.035
C  C101  1  0.55725576  0.07021035  0.71049248  1  0.011033  -0.058506  -0.090308  -0.05516  -0.061212  4.032028  -0.031
C  C102  1  0.46754510  0.98627859  0.65729936  1  -0.041154  -0.019856  -0.100742  -0.175968  -0.022312  4.035827  -0.005
C  C103  1  0.42142763  0.95811118  0.70733043  1  0.455294  -0.083813  0.082528  0.10175  -0.091521  4.07986  -0.047
C  C104  1  0.32988753  0.87391982  0.66269686  1  0.885476  -0.078749  0.197679  0.207467  -0.084055  4.071147  -0.041
C  C105  1  0.20539715  0.76792316  0.65084736  1  0.910102  -0.034667  0.208686  0.214458  -0.039148  4.0597  -0.018
C  C106  1  0.13936827  0.70461915  0.66660652  1  1.001726  -0.009578  0.196747  0.197285  -0.012477  4.106741  -0.002
C  C107  1  0.06356637  0.63137228  0.72001102  1  0.951321  0.010659  0.125181  0.128369  0.004164  4.015183  0.009
C  C108  1  0.76378031  0.45594008  0.40598877  1  0.420989  -0.012796  0.031224  0.077261  -0.014327  4.000437  0.0
C  C109  1  0.68825999  0.47480956  0.37477892  1  0.034607  -0.065321  -0.10676  -0.155396  -0.068597  4.01589  -0.035
C  C110  1  0.64022783  0.48701736  0.42982613  1  -0.101092  -0.059031  -0.090654  -0.055791  -0.061279  4.032573  -0.031
C  C111  1  0.67097907  0.48122793  0.51375389  1  0.012267  -0.019393  -0.100618  -0.175453  -0.022245  4.036102  -0.005
C  C112  1  0.74919131  0.46329863  0.54191587  1  0.465689  -0.083205  0.082319  0.101008  -0.091545  4.08007  -0.047
C  C113  1  0.78877499  0.45597292  0.62611988  1  0.86543  -0.079335  0.197568  0.207933  -0.084021  4.070988  -0.041
C  C114  1  0.88291219  0.43745932  0.73209427  1  0.947149  -0.034579  0.208564  0.214594  -0.039112  4.059469  -0.018
C  C115  1  0.96197646  0.43473304  0.79538714  1  0.977111  -0.009668  0.196617  0.197106  -0.012485  4.106514  -0.002
C  C116  1  0.08863401  0.43219141  0.86862674  1  0.969527  0.010601  0.125275  0.128571  0.004167  4.015156  0.009
C  C117  1  0.73620906  0.64221699  0.19216415  1  0.484905  -0.012514  0.031206  0.076809  -0.014341  4.000837  0.0
C  C118  1  0.81174842  0.68653751  0.28655524  1  -0.044154  -0.065723  -0.106738  -0.155171  -0.068591  4.015833  -0.035
C  C119  1  0.85978486  0.78961540  0.34679147  1  -0.062658  -0.058873  -0.090697  -0.055557  -0.061269  4.032502  -0.031
C  C120  1  0.82902780  0.84279395  0.31024509  1  -0.010465  -0.019575  -0.100742  -0.175878  -0.02228  4.036101  -0.005
C  C121  1  0.75080123  0.79272755  0.21410319  1  0.453586  -0.083265  0.082382  0.101008  -0.091525  4.080319  -0.047
C  C122  1  0.71122305  0.83733930  0.16719351  1  0.882637  -0.079122  0.197668  0.207887  -0.083976  4.071678  -0.041
C  C123  1  0.61706889  0.84915551  0.05454223  1  0.936496  -0.034713  0.208735  0.214645  -0.03912  4.05944  -0.018
C  C124  1  0.53800700  0.83337960  0.97274855  1  0.990741  -0.009645  0.196794  0.1971  -0.012485  4.106977  -0.002
C  C125  1  0.41135604  0.77997860  0.84355374  1  0.954419  0.010588  0.125407  0.128603  0.004162  4.015357  0.009
C  C126  1  0.04998859  0.69213751  0.95595545  1  0.395463  -0.012861  0.031258  0.07741  -0.014335  4.000642  0.0
C  C127  1  0.10007355  0.78653474  0.97483121  1  0.023922  -0.06526  -0.106846  -0.155634  -0.068584  4.015673  -0.035
C  C128  1  0.05724970  0.84677449  0.98704690  1  -0.0933  -0.059125  -0.090264  -0.05501  -0.061219  4.032056  -0.031
C  C129  1  0.96753493  0.81025365  0.98126989  1  0.04613  -0.019304  -0.100689  -0.175928  -0.022295  4.035543  -0.005
C  C130  1  0.92142907  0.71410329  0.96332856  1  0.443028  -0.08315  0.082529  0.10184  -0.091514  4.079688  -0.047
C  C131  1  0.82988458  0.66718512  0.95598394  1  0.867127  -0.079398  0.197614  0.20721  -0.084005  4.071688  -0.041
C  C132  1  0.70539765  0.55453943  0.93747956  1  0.94169  -0.034617  0.208816  0.214836  -0.039122  4.059787  -0.018
C  C133  1  0.63937330  0.47274793  0.93474541  1  0.974243  -0.009628  0.19666  0.197005  -0.012465  4.10699  -0.002
C  C134  1  0.56354519  0.34354041  0.93218005  1  0.957014  0.010604  0.1252  0.12845  0.004165  4.01575  0.009
C  C135  1  0.45000346  0.90594958  0.14213050  1  0.45406  -0.012712  0.031085  0.077203  -0.014348  4.000339  0.0
C  C136  1  0.39991544  0.87473202  0.18644010  1  -0.076086  -0.065655  -0.106717  -0.155754  -0.068586  4.015308  -0.035
C  C137  1  0.44274429  0.92977722  0.28951140  1  0.010401  -0.058544  -0.090345  -0.055085  -0.061245  4.031625  -0.031
C  C138  1  0.53246376  0.01371780  0.34270871  1  -0.040847  -0.019833  -0.100717  -0.175836  -0.02229  4.035456  -0.005
C  C139  1  0.57857244  0.04188154  0.29266992  1  0.454501  -0.083792  0.082497  0.101739  -0.091498  4.079868  -0.047
C  C140  1  0.67011271  0.12607011  0.33728942  1  0.886562  -0.078745  0.197547  0.207246  -0.084054  4.071524  -0.041
C  C141  1  0.79460915  0.23205520  0.34913795  1  0.908739  -0.034661  0.208494  0.214418  -0.039125  4.059595  -0.018
C  C142  1  0.86063058  0.29535542  0.33337026  1  1.011371  -0.009609  0.196665  0.197123  -0.012477  4.107008  -0.002
C  C143  1  0.93643863  0.36862170  0.27998301  1  0.952348  0.01064  0.125263  0.128428  0.004157  4.015392  0.009
N  N144  1  0.20455790  0.54992304  0.51268350  1  -1.201921  -0.037872  -0.34238  -0.265365  -0.048637  3.522225  -0.029
N  N145  1  0.13775017  0.56532323  0.35478708  1  -1.19686  0.01431  -0.34735  -0.369941  0.002625  3.454574  0.015
N  N146  1  0.23303645  0.53067414  0.29963825  1  -0.812593  -0.075936  -0.282158  -0.170141  -0.079758  3.6331  -0.058
N  N147  1  0.17382371  0.54179526  0.23152079  1  -0.692871  -0.013226  -0.253805  -0.211778  -0.022095  3.415623  -0.006
N  N148  1  0.96928459  0.58370247  0.21938911  1  -1.224909  -0.00656  -0.335167  -0.366514  -0.007814  3.327772  -0.005
N  N149  1  0.02350367  0.53913522  0.11272645  1  -0.747133  0.027597  -0.251535  -0.225756  0.012381  3.411808  0.019
N  N150  1  0.94111181  0.54096899  0.06553589  1  -0.78333  0.029069  -0.259285  -0.198079  0.012649  3.535554  0.019
N  N151  1  0.29542441  0.30811080  0.84534919  1  -1.202503  -0.037874  -0.342366  -0.265341  -0.048624  3.522658  -0.029
N  N152  1  0.36225117  0.21704460  0.92758096  1  -1.184791  0.014249  -0.347331  -0.36993  0.00264  3.454473  0.015
N  N153  1  0.26696736  0.06660237  0.79763768  1  -0.826238  -0.075984  -0.282141  -0.170178  -0.079769  3.632898  -0.058
N  N154  1  0.32619393  0.05771675  0.86798846  1  -0.703563  -0.013311  -0.253887  -0.211889  -0.022091  3.415512  -0.006
N  N155  1  0.53073516  0.25012944  0.11444513  1  -1.232057  -0.00655  -0.335182  -0.366507  -0.007808  3.32841  -0.005
N  N156  1  0.47651543  0.08925619  0.01564333  1  -0.76185  0.027611  -0.251483  -0.225672  0.012367  3.412012  0.019
N  N157  1  0.55890625  0.12444383  0.09986763  1  -0.769708  0.029056  -0.25949  -0.198399  0.012641  3.5355  0.019
N  N158  1  0.03724586  0.34544503  0.04993061  1  -1.20493  -0.037828  -0.342109  -0.26482  -0.048605  3.522518  -0.029
N  N159  1  0.21052478  0.42759646  0.06533015  1  -1.194197  0.014346  -0.347366  -0.369988  0.002634  3.454808  0.015
N  N160  1  0.23097823  0.29762914  0.03063373  1  -0.821202  -0.075962  -0.281964  -0.169356  -0.079783  3.63277  -0.058
N  N161  1  0.31020762  0.36795571  0.04173441  1  -0.68799  -0.013511  -0.25421  -0.21296  -0.022127  3.416238  -0.006
N  N162  1  0.36432871  0.61443160  0.08368729  1  -1.215464  -0.006549  -0.335139  -0.366548  -0.007802  3.328789  -0.005
N  N163  1  0.42638519  0.51562636  0.03906533  1  -0.749123  0.027598  -0.251623  -0.225766  0.01239  3.412042  0.019
N  N164  1  0.47542388  0.59985675  0.04091267  1  -0.784082  0.028992  -0.259386  -0.198084  0.012643  3.535619  0.019
N  N165  1  0.46276923  0.01269854  0.80817321  1  -1.196421  -0.037712  -0.342268  -0.265104  -0.04862  3.522502  -0.029
N  N166  1  0.28947926  0.85481851  0.71705595  1  -1.188894  0.014336  -0.347522  -0.369935  0.002611  3.455007  0.015
N  N167  1  0.26902189  0.79965721  0.56662640  1  -0.811102  -0.076016  -0.282131  -0.169657  -0.079819  3.632295  -0.058
N  N168  1  0.18978964  0.73153326  0.55773360  1  -0.684537  -0.013563  -0.254134  -0.212434  -0.022161  3.415683  -0.006
N  N169  1  0.13568510  0.71938343  0.75010747  1  -1.23137  -0.006564  -0.335204  -0.366601  -0.007815  3.327944  -0.005
N  N170  1  0.07362162  0.61270227  0.58923933  1  -0.758626  0.027589  -0.251645  -0.225931  0.012373  3.412109  0.019
N  N171  1  0.02458482  0.56550785  0.62443253  1  -0.772077  0.028988  -0.259276  -0.198008  0.012627  3.535016  0.019
N  N172  1  0.79543572  0.45004413  0.48731045  1  -1.203757  -0.037906  -0.34218  -0.265143  -0.048678  3.522  -0.029
N  N173  1  0.86223958  0.43466872  0.64521266  1  -1.196651  0.014298  -0.34727  -0.370056  0.002618  3.454388  0.015
N  N174  1  0.76696706  0.46936024  0.70037985  1  -0.810273  -0.075962  -0.282476  -0.170473  -0.07979  3.632718  -0.058
N  N175  1  0.82619503  0.45823599  0.76849394  1  -0.692671  -0.01327  -0.253866  -0.211979  -0.022122  3.415437  -0.006
N  N176  1  0.03071322  0.41628875  0.78061715  1  -1.225128  -0.006558  -0.335073  -0.366523  -0.007812  3.327831  -0.005
N  N177  1  0.97653898  0.46091484  0.88731103  1  -0.748532  0.027604  -0.25166  -0.225937  0.012385  3.412123  0.019
N  N178  1  0.05893148  0.45908169  0.93449665  1  -0.782414  0.029061  -0.259296  -0.197984  0.012637  3.535237  0.019
N  N179  1  0.70454550  0.69187225  0.15460937  1  -1.202354  -0.037877  -0.342288  -0.264927  -0.048623  3.522356  -0.029
N  N180  1  0.63775330  0.78295254  0.07242835  1  -1.184835  0.014248  -0.347454  -0.37005  0.002636  3.454908  0.015
N  N181  1  0.73303731  0.93340235  0.20238573  1  -0.826202  -0.075984  -0.282413  -0.170199  -0.079771  3.63285  -0.058
N  N182  1  0.67379924  0.94227939  0.13203357  1  -0.703368  -0.013339  -0.253824  -0.211993  -0.022124  3.415153  -0.006
N  N183  1  0.46927070  0.74988308  0.88558384  1  -1.231197  -0.006564  -0.335289  -0.366598  -0.007821  3.32819  -0.005
N  N184  1  0.52347107  0.91075604  0.98437632  1  -0.763625  0.027633  -0.251596  -0.225717  0.012378  3.411685  0.019
N  N185  1  0.44107965  0.87555091  0.90014619  1  -0.769632  0.029031  -0.259433  -0.198222  0.012624  3.535666  0.018
N  N186  1  0.96278623  0.65461353  0.95008503  1  -1.195819  -0.037874  -0.34246  -0.265561  -0.048593  3.522895  -0.029
N  N187  1  0.78947920  0.57241413  0.93467844  1  -1.194316  0.01435  -0.347439  -0.369881  0.002637  3.454905  0.015
N  N188  1  0.76900910  0.70236407  0.96937165  1  -0.821255  -0.075939  -0.282061  -0.169767  -0.079764  3.633202  -0.058
N  N189  1  0.68976821  0.63202890  0.95825108  1  -0.687888  -0.013471  -0.253903  -0.212119  -0.022097  3.416058  -0.006
N  N190  1  0.63567394  0.38555707  0.91630231  1  -1.215475  -0.006553  -0.335123  -0.366449  -0.007806  3.32871  -0.005
N  N191  1  0.57361928  0.48437071  0.96090040  1  -0.747974  0.027575  -0.251603  -0.22586  0.012373  3.412013  0.019
N  N192  1  0.52456383  0.40014116  0.95904558  1  -0.784162  0.029003  -0.259287  -0.198034  0.012648  3.535712  0.019
N  N193  1  0.53721907  0.98728976  0.19182357  1  -1.214049  -0.037674  -0.342414  -0.265468  -0.048627  3.522541  -0.029
N  N194  1  0.71051308  0.14516938  0.28292111  1  -1.188875  0.014347  -0.347286  -0.369725  0.00262  3.454564  0.015
N  N195  1  0.73099641  0.20031626  0.43335983  1  -0.810852  -0.075986  -0.282251  -0.169712  -0.079783  3.632855  -0.058
N  N196  1  0.81022982  0.26843771  0.44225450  1  -0.684357  -0.013495  -0.253872  -0.212134  -0.02212  3.415803  -0.006
N  N197  1  0.86431388  0.28060523  0.24987319  1  -1.23048  -0.00656  -0.335184  -0.366419  -0.007811  3.328216  -0.005
N  N198  1  0.92638062  0.38726615  0.41074530  1  -0.76817  0.027624  -0.251552  -0.225803  0.012373  3.411686  0.019
N  N199  1  0.97542345  0.43447104  0.37556076  1  -0.772571  0.028992  -0.259314  -0.19805  0.01265  3.535388  0.019
O  O200  1  0.98021580  0.62335383  0.39411131  1  -1.249805  0.048103  -0.581212  -0.717923  0.022327  2.121565  0.032
O  O201  1  0.51977911  0.41390732  0.14314906  1  -1.246495  0.04804  -0.58122  -0.717773  0.022319  2.121544  0.032
O  O202  1  0.22927053  0.64319828  0.12337195  1  -1.244237  0.048054  -0.581276  -0.717922  0.022328  2.121581  0.032
O  O203  1  0.27073430  0.89410313  0.91392870  1  -1.231935  0.048101  -0.581233  -0.717918  0.022317  2.121586  0.032
O  O204  1  0.01983188  0.37660940  0.60589385  1  -1.249391  0.048052  -0.581236  -0.717905  0.022303  2.121279  0.032
O  O205  1  0.48018736  0.58606644  0.85681702  1  -1.24665  0.048064  -0.581288  -0.717861  0.022324  2.121591  0.032
O  O206  1  0.77076564  0.35687024  0.87665630  1  -1.244742  0.048052  -0.58127  -0.717975  0.022331  2.121677  0.032
O  O207  1  0.72924000  0.10587928  0.08609251  1  -1.232032  0.048121  -0.581134  -0.717688  0.022328  2.121791  0.032
