# generated using pymatgen
data_Zr3H14C39N9O16
_symmetry_space_group_name_H-M   'P 1'
_cell_length_a   17.86785379
_cell_length_b   22.21954728
_cell_length_c   22.22171596
_cell_angle_alpha   65.32880054
_cell_angle_beta   88.74855170
_cell_angle_gamma   88.73867881
_symmetry_Int_Tables_number   1
_chemical_formula_structural   Zr3H14C39N9O16
_chemical_formula_sum   'Zr6 H28 C78 N18 O32'
_cell_volume   8014.32610610
_cell_formula_units_Z   2
loop_
 _symmetry_equiv_pos_site_id
 _symmetry_equiv_pos_as_xyz
  1  'x, y, z'
loop_
 _atom_site_type_symbol
 _atom_site_label
 _atom_site_symmetry_multiplicity
 _atom_site_fract_x
 _atom_site_fract_y
 _atom_site_fract_z
 _atom_site_occupancy
 _atom_site_pbe_bader_charge
 _atom_site_pbe_bader_spin_density
 _atom_site_pbe_cm5_charge
 _atom_site_pbe_ddec_charge
 _atom_site_pbe_ddec_spin_density
 _atom_site_pbe_ddec_sum_bond_order
 _atom_site_pbe_magmom
Zr  Zr0  1  0.20537448  0.97381947  0.04688679  1  2.619527  0  1.597118  2.362518  0  2.76639  0
Zr  Zr1  1  0.93708602  0.95085665  0.02587639  1  2.606997  0  1.583512  2.33601  0  2.806624  0
Zr  Zr2  1  0.07296112  0.85339815  0.14231197  1  2.631324  0  1.559904  2.395798  0  2.766133  0
Zr  Zr3  1  0.06942252  0.07200412  0.93098121  1  2.622141  0  1.558056  2.369835  0  2.785544  0
Zr  Zr4  1  0.09920443  0.89950703  0.96452983  1  2.614227  0  1.548349  2.373762  0  2.787  0
Zr  Zr5  1  0.04192144  0.02615034  0.10500174  1  2.624166  0  1.568555  2.371567  0  2.747121  0
H  H6  1  0.62210375  0.07195273  0.49229549  1  0.155863  0  0.123983  0.136391  0  0.96314  0
H  H7  1  0.51354693  0.84686586  0.58645518  1  0.105111  0  0.124013  0.136745  0  0.962631  0
H  H8  1  0.64819695  0.40582636  0.48306227  1  0.094627  0  0.123498  0.135433  0  0.965383  0
H  H9  1  0.49082818  0.51710114  0.59529048  1  0.118653  0  0.123679  0.136425  0  0.964141  0
H  H10  1  0.52255552  0.50771469  0.92765143  1  0.121594  0  0.124083  0.137005  0  0.962753  0
H  H11  1  0.63030445  0.41252928  0.15301354  1  0.144192  0  0.123683  0.136565  0  0.964367  0
H  H12  1  0.19928289  0.00953500  0.90782917  1  0.616169  0  0.336611  0.439494  0  0.832453  0
H  H13  1  0.98605923  0.81807435  0.04799021  1  0.612604  0  0.329945  0.429244  0  0.854397  0
H  H14  1  0.93978367  0.08933102  0.99723045  1  0.616158  0  0.338182  0.441237  0  0.830247  0
H  H15  1  0.15413652  0.94029136  0.18221762  1  0.603303  0  0.323791  0.410656  0  0.882069  0
H  H16  1  0.17038781  0.77362931  0.01443666  1  0.606728  0  0.325411  0.411134  0  0.876847  0
H  H17  1  0.08949241  0.82225579  0.27407189  1  0.58299  0  0.305965  0.400911  0  0.893039  0
H  H18  1  0.97236349  0.96979936  0.23092413  1  0.606353  0  0.327253  0.417236  0  0.868261  0
H  H19  1  0.08032018  0.94135300  0.83413642  1  0.630301  0  0.321767  0.421612  0  0.86894  0
H  H20  1  0.05732482  0.10801676  0.80245362  1  0.584293  0  0.301864  0.397123  0  0.901904  0
H  H21  1  0.07706509  0.19910603  0.90658955  1  0.607996  0  0.304187  0.399147  0  0.897781  0
H  H22  1  0.03536400  0.15550329  0.00189289  1  0.638607  0  0.283487  0.407679  0  0.931286  0
H  H23  1  0.02825489  0.81302466  0.93225332  1  0.626047  0  0.29374  0.40352  0  0.892634  0
H  H24  1  0.84132663  0.92707774  0.93796048  1  0.640316  0  0.340199  0.428921  0  0.853143  0
H  H25  1  0.28326496  0.02011159  0.13514784  1  0.620487  0  0.334703  0.417628  0  0.861834  0
H  H26  1  0.11722712  0.05142780  0.19482740  1  0.571677  0  0.295687  0.390063  0  0.912847  0
H  H27  1  0.10433222  0.01130614  0.83784606  1  0.644081  0  0.285465  0.404405  0  0.933504  0
H  H28  1  0.83323951  0.86722190  0.00826426  1  0.638617  0  0.336015  0.421242  0  0.867308  0
H  H29  1  0.13487852  0.73512395  0.17430416  1  0.597797  0  0.304799  0.400112  0  0.895984  0
H  H30  1  0.11377046  0.76974493  0.07442066  1  0.63528  0  0.281468  0.404663  0  0.937085  0
H  H31  1  0.06830482  0.15401694  0.07171474  1  0.621403  0  0.321663  0.415221  0  0.876182  0
H  H32  1  0.03545310  0.91465318  0.23286558  1  0.65506  0  0.281084  0.410779  0  0.928215  0
H  H33  1  0.19885620  0.05239272  0.12362919  1  0.642395  0  0.284026  0.406817  0  0.930561  0
C  C34  1  0.73650189  0.12501763  0.74012687  1  1.223737  0  0.267396  0.441282  0  4.090315  0
C  C35  1  0.66396419  0.09915466  0.67260246  1  1.183081  0  0.266908  0.448678  0  4.090847  0
C  C36  1  0.66336916  0.20389661  0.66543946  1  1.17311  0  0.26831  0.449753  0  4.091939  0
C  C37  1  0.45088556  0.81446874  0.89596651  1  1.191576  0  0.268662  0.442581  0  4.08693  0
C  C38  1  0.51737765  0.72485326  0.90040299  1  1.146989  0  0.265763  0.446579  0  4.082375  0
C  C39  1  0.51531410  0.81892090  0.80542462  1  1.208221  0  0.266176  0.445969  0  4.081684  0
C  C40  1  0.69202867  0.10260905  0.18519598  1  1.192494  0  0.269031  0.440853  0  4.087265  0
C  C41  1  0.62887649  0.19397039  0.18011780  1  1.145761  0  0.267692  0.448929  0  4.077691  0
C  C42  1  0.62623839  0.09939556  0.27460818  1  1.172205  0  0.266449  0.447427  0  4.082546  0
C  C43  1  0.59043668  0.98840447  0.58174914  1  0.017216  0  0.020566  0.097882  0  4.0599  0
C  C44  1  0.55950726  0.92362980  0.60930694  1  0.13886  0  0.019806  0.09881  0  4.056695  0
C  C45  1  0.53753118  0.89613957  0.56605785  1  0.076518  0  -0.054445  -0.139415  0  3.852939  0
C  C46  1  0.54467726  0.93061516  0.49695454  1  0.144902  0  0.019266  0.096026  0  4.059836  0
C  C47  1  0.57631941  0.99512373  0.46951154  1  0.075776  0  0.018905  0.096623  0  4.062409  0
C  C48  1  0.59795403  0.02273950  0.51268968  1  0.049287  0  -0.054746  -0.138926  0  3.85711  0
C  C49  1  0.40641352  0.79770421  0.33026274  1  1.18492  0  0.266815  0.438822  0  4.091092  0
C  C50  1  0.47243089  0.82333694  0.40178566  1  1.16445  0  0.265722  0.447855  0  4.086268  0
C  C51  1  0.47560510  0.71857557  0.40880616  1  1.157939  0  0.267464  0.449638  0  4.093265  0
C  C52  1  0.40470666  0.25853063  0.87712894  1  1.124025  0  0.268491  0.441623  0  4.090541  0
C  C53  1  0.47840875  0.32652249  0.90132786  1  1.156493  0  0.265748  0.44556  0  4.093524  0
C  C54  1  0.47685120  0.33294348  0.79697966  1  1.209218  0  0.266504  0.447402  0  4.095587  0
C  C55  1  0.73855351  0.66661501  0.20445529  1  1.136438  0  0.267542  0.440489  0  4.086993  0
C  C56  1  0.66601031  0.59053410  0.28263851  1  1.170259  0  0.267527  0.447991  0  4.094328  0
C  C57  1  0.67060547  0.59643252  0.17833879  1  1.123472  0  0.265758  0.4481  0  4.087494  0
C  C58  1  0.59184331  0.39456175  0.57379203  1  0.162358  0  0.018749  0.096121  0  4.070137  0
C  C59  1  0.54687849  0.42638732  0.60601212  1  0.164731  0  0.018659  0.098911  0  4.070126  0
C  C60  1  0.52543677  0.49282264  0.57080680  1  -0.023929  0  -0.05677  -0.145487  0  3.871262  0
C  C61  1  0.54702825  0.52833498  0.50449166  1  0.152983  0  0.017878  0.095732  0  4.074424  0
C  C62  1  0.59224374  0.49656278  0.47236009  1  0.082954  0  0.01889  0.097484  0  4.071965  0
C  C63  1  0.61362975  0.43014494  0.50753128  1  0.015235  0  -0.0568  -0.143731  0  3.871692  0
C  C64  1  0.56793649  0.53004284  0.00493092  1  0.120681  0  0.01947  0.097716  0  4.059733  0
C  C65  1  0.59930944  0.50234149  0.06955785  1  0.062321  0  0.019232  0.097025  0  4.057153  0
C  C66  1  0.60656047  0.43319203  0.10364239  1  6.7e-05  0  -0.055166  -0.141488  0  3.856784  0
C  C67  1  0.58493268  0.39019967  0.07572574  1  0.187953  0  0.019485  0.09806  0  4.057133  0
C  C68  1  0.55397028  0.41799122  0.01095448  1  0.027598  0  0.019781  0.098226  0  4.060098  0
C  C69  1  0.54652783  0.48708914  0.97693864  1  0.070484  0  -0.054848  -0.140138  0  3.855801  0
C  C70  1  0.28155265  0.89109048  0.96936320  1  1.696761  0  0.246829  0.700632  0  4.199362  0
C  C71  1  0.24611178  0.11511891  0.93423226  1  1.740129  0  0.24484  0.702093  0  4.197387  0
C  C72  1  0.25394013  0.85192178  0.18177927  1  1.7161  0  0.238575  0.698055  0  4.207357  0
C  C73  1  0.89323713  0.81332351  0.14808455  1  1.689884  0  0.241505  0.696978  0  4.205768  0
C  C74  1  0.85972443  0.02415135  0.11208095  1  1.675038  0  0.246463  0.702422  0  4.190852  0
C  C75  1  0.89346957  0.06876422  0.88494517  1  1.732753  0  0.243118  0.703729  0  4.198483  0
C  C76  1  0.79193201  0.71815892  0.18670628  1  -0.040387  0  -0.004395  -0.067619  0  3.961595  0
C  C77  1  0.83831599  0.76131715  0.17284583  1  -0.114312  0  -0.008458  -0.11453  0  3.876771  0
C  C78  1  0.64684630  0.57045709  0.13319266  1  -0.203716  0  -0.013096  -0.117705  0  3.955232  0
C  C79  1  0.62387161  0.54181870  0.10111051  1  0.011784  0  -0.008192  -0.028383  0  4.050444  0
C  C80  1  0.61629557  0.53122959  0.40598141  1  -0.553801  0  -0.007486  -0.027401  0  4.05889  0
C  C81  1  0.63864284  0.55968979  0.34906609  1  0.36049  0  -0.011882  -0.116477  0  3.964212  0
C  C82  1  0.34956165  0.20847057  0.89658724  1  0.064493  0  -0.003891  -0.070906  0  3.962304  0
C  C83  1  0.30161569  0.16648457  0.91225671  1  -0.260621  0  -0.00231  -0.101389  0  3.869311  0
C  C84  1  0.50545901  0.35152058  0.94616191  1  0.079976  0  -0.011589  -0.113233  0  3.956776  0
C  C85  1  0.52919883  0.37889253  0.97912209  1  -0.29191  0  -0.008415  -0.031419  0  4.054678  0
C  C86  1  0.50200633  0.36350206  0.72979775  1  -0.098077  0  -0.011114  -0.114159  0  3.962183  0
C  C87  1  0.52335713  0.39178672  0.67255709  1  -0.224687  0  -0.008419  -0.030366  0  4.060049  0
C  C88  1  0.30908246  0.82900394  0.23363924  1  0.024213  0  -0.01495  -0.125941  0  3.887286  0
C  C89  1  0.35455396  0.81572821  0.27744564  1  -0.244406  0  -0.004153  -0.062814  0  3.961424  0
C  C90  1  0.52318071  0.59475969  0.46989355  1  -0.155531  0  -0.005795  -0.023705  0  4.059484  0
C  C91  1  0.50141343  0.65178681  0.44080488  1  -0.081641  0  -0.013195  -0.120264  0  3.967924  0
C  C92  1  0.51971516  0.89969576  0.45707541  1  -0.216037  0  -0.007449  -0.026722  0  4.050984  0
C  C93  1  0.49639895  0.86831883  0.42783350  1  -0.026899  0  -0.013494  -0.118959  0  3.955832  0
C  C94  1  0.79447815  0.04815497  0.13547971  1  -0.221208  0  -0.005094  -0.112033  0  3.864689  0
C  C95  1  0.74435700  0.07214105  0.15673099  1  0.046012  0  0.002828  -0.056042  0  3.938611  0
C  C96  1  0.58881178  0.03088254  0.40055933  1  -0.455145  0  -0.008065  -0.02962  0  4.045881  0
C  C97  1  0.60347341  0.06332937  0.34212600  1  0.223326  0  -0.012326  -0.115517  0  3.951108  0
C  C98  1  0.59619209  0.32104484  0.11146203  1  -0.062617  0  -0.006849  -0.02755  0  4.040811  0
C  C99  1  0.60895215  0.26217057  0.14367558  1  -0.204443  0  -0.012146  -0.116452  0  3.947716  0
C  C100  1  0.34739307  0.86625969  0.94739979  1  0.112133  0  -0.003524  -0.107764  0  3.86073  0
C  C101  1  0.39796243  0.84356276  0.92527404  1  -0.304049  0  -0.000219  -0.062516  0  3.945018  0
C  C102  1  0.55529012  0.59902269  0.96934618  1  -0.023869  0  -0.008283  -0.029071  0  4.042647  0
C  C103  1  0.54041686  0.65745821  0.93695518  1  -0.210593  0  -0.012442  -0.116147  0  3.948683  0
C  C104  1  0.53575516  0.85518171  0.73727588  1  0.225722  0  -0.011257  -0.113578  0  3.944315  0
C  C105  1  0.54841491  0.88759951  0.67844244  1  -0.492648  0  -0.008323  -0.031013  0  4.039851  0
C  C106  1  0.79145305  0.10644294  0.79041343  1  0.237606  0  -0.003149  -0.064265  0  3.965428  0
C  C107  1  0.83879917  0.09120717  0.83287420  1  -0.503851  0  -0.010397  -0.121553  0  3.88856  0
C  C108  1  0.63800515  0.05368834  0.64802697  1  -0.014459  0  -0.012121  -0.11583  0  3.957367  0
C  C109  1  0.61486190  0.02024954  0.62093726  1  -0.237579  0  -0.007037  -0.027883  0  4.052124  0
C  C110  1  0.63688807  0.27064189  0.63507622  1  0.173258  0  -0.012619  -0.119373  0  3.965425  0
C  C111  1  0.61524039  0.32788559  0.60773484  1  -0.411215  0  -0.00531  -0.023102  0  4.05764  0
N  N112  1  0.71327837  0.07735750  0.72252350  1  -1.096192  0  -0.300544  -0.400904  0  3.076922  0
N  N113  1  0.63732001  0.16177755  0.64167153  1  -1.144195  0  -0.298293  -0.397236  0  3.078863  0
N  N114  1  0.71330088  0.18875962  0.71440977  1  -1.132676  0  -0.296464  -0.392132  0  3.074478  0
N  N115  1  0.47333221  0.75169156  0.93314013  1  -1.104909  0  -0.298681  -0.397513  0  3.079415  0
N  N116  1  0.53935943  0.75542800  0.83629051  1  -1.118491  0  -0.301281  -0.402025  0  3.071679  0
N  N117  1  0.47146155  0.85142016  0.83261564  1  -1.113496  0  -0.296306  -0.392208  0  3.074615  0
N  N118  1  0.67225009  0.16606542  0.14791410  1  -1.103294  0  -0.295465  -0.391725  0  3.073108  0
N  N119  1  0.60484098  0.16360859  0.24366738  1  -1.140485  0  -0.30132  -0.402368  0  3.071156  0
N  N120  1  0.66958296  0.06596364  0.24805545  1  -1.126769  0  -0.298215  -0.396349  0  3.080007  0
N  N121  1  0.42641181  0.84525523  0.34936476  1  -1.10893  0  -0.300977  -0.401569  0  3.071221  0
N  N122  1  0.49807974  0.76054991  0.43414966  1  -1.120954  0  -0.29745  -0.395452  0  3.080261  0
N  N123  1  0.42983306  0.73401225  0.35686146  1  -1.135617  0  -0.297185  -0.39272  0  3.077066  0
N  N124  1  0.42898938  0.27678209  0.92405349  1  -1.113765  0  -0.297934  -0.395211  0  3.075044  0
N  N125  1  0.50412517  0.35709486  0.83837632  1  -1.096926  0  -0.30062  -0.400111  0  3.08173  0
N  N126  1  0.42707357  0.28383088  0.81307861  1  -1.108129  0  -0.297188  -0.393692  0  3.077016  0
N  N127  1  0.71361588  0.64110955  0.26772267  1  -1.10343  0  -0.297261  -0.392079  0  3.075488  0
N  N128  1  0.64311753  0.56533674  0.24065301  1  -1.091109  0  -0.299508  -0.398145  0  3.081715  0
N  N129  1  0.71836800  0.64755438  0.15689486  1  -1.102266  0  -0.301067  -0.402366  0  3.072986  0
O  O130  1  0.24372669  0.03744396  0.10280874  1  -1.251275  0  -0.597992  -0.815869  0  2.035027  0
O  O131  1  0.29041345  0.92565835  0.00173649  1  -1.152667  0  -0.330192  -0.586554  0  2.218814  0
O  O132  1  0.27266197  0.90364739  0.13057299  1  -1.172164  0  -0.353666  -0.619193  0  2.23764  0
O  O133  1  0.18103916  0.13067521  0.91084461  1  -1.157516  0  -0.324491  -0.602772  0  2.243777  0
O  O134  1  0.19264801  0.82128166  0.19266909  1  -1.169126  0  -0.323281  -0.613776  0  2.227226  0
O  O135  1  0.26959520  0.05855233  0.97579860  1  -1.164092  0  -0.355181  -0.609379  0  2.235739  0
O  O136  1  0.21993318  0.87484779  0.95252560  1  -1.167609  0  -0.342369  -0.620779  0  2.244935  0
O  O137  1  0.14024637  0.89641230  0.05642937  1  -1.224941  0  -0.785208  -1.196664  0  2.095294  0
O  O138  1  0.16275044  0.99524996  0.94392087  1  -1.24982  0  -0.684787  -1.047646  0  2.237034  0
O  O139  1  0.13153743  0.94588239  0.14090148  1  -1.251773  0  -0.691441  -1.060376  0  2.303406  0
O  O140  1  0.11603447  0.03883085  0.02803080  1  -1.215712  0  -0.782873  -1.147113  0  2.039291  0
O  O141  1  0.04153369  0.16454859  0.93102778  1  -1.243133  0  -0.656775  -0.928942  0  1.884347  0
O  O142  1  0.11947829  0.78412690  0.02364022  1  -1.238389  0  -0.604849  -0.826816  0  2.039422  0
O  O143  1  0.02275013  0.97544090  0.95833819  1  -1.224113  0  -0.778729  -1.168702  0  2.043592  0
O  O144  1  0.00908249  0.85844004  0.04498638  1  -1.258735  0  -0.669144  -1.029338  0  2.150858  0
O  O145  1  0.00105029  0.93788738  0.10426803  1  -1.220232  0  -0.789589  -1.173167  0  2.092319  0
O  O146  1  0.97616348  0.05318979  0.00949162  1  -1.248699  0  -0.685701  -1.045633  0  2.236602  0
O  O147  1  0.09507113  0.76002585  0.14464756  1  -1.22941  0  -0.659551  -0.927933  0  1.880012  0
O  O148  1  0.95651452  0.80245464  0.17445293  1  -1.147736  0  -0.311806  -0.56553  0  2.229018  0
O  O149  1  0.87089021  0.86554639  0.09839349  1  -1.182227  0  -0.359138  -0.642228  0  2.264352  0
O  O150  1  0.12039192  0.06856235  0.14682874  1  -1.240537  0  -0.655897  -0.949081  0  1.861826  0
O  O151  1  0.85048623  0.99477563  0.07473138  1  -1.145042  0  -0.330072  -0.585719  0  2.211809  0
O  O152  1  0.05546064  0.84746178  0.23864471  1  -1.224877  0  -0.655919  -0.931283  0  1.89553  0
O  O153  1  0.02458436  0.96551246  0.21969364  1  -1.260389  0  -0.606275  -0.838304  0  2.009462  0
O  O154  1  0.02775621  0.13845134  0.05334003  1  -1.242882  0  -0.613249  -0.820981  0  2.018575  0
O  O155  1  0.92182312  0.03655669  0.13195613  1  -1.167699  0  -0.347349  -0.628109  0  2.235612  0
O  O156  1  0.86933448  0.89349807  0.97417141  1  -1.224163  0  -0.571551  -0.775296  0  2.031025  0
O  O157  1  0.09458451  0.08278614  0.83495159  1  -1.218582  0  -0.662156  -0.93295  0  1.869013  0
O  O158  1  0.87161082  0.02056259  0.93855375  1  -1.18062  0  -0.358716  -0.642744  0  2.245687  0
O  O159  1  0.95578346  0.09708664  0.87333788  1  -1.152427  0  -0.314212  -0.583948  0  2.244559  0
O  O160  1  0.11622624  0.96175886  0.85219626  1  -1.254343  0  -0.609698  -0.809919  0  2.033874  0
O  O161  1  0.04110715  0.85950620  0.91327005  1  -1.260877  0  -0.70071  -0.977915  0  1.782693  0
