# generated using pymatgen
data_MnH10C4(ClO2)2
_symmetry_space_group_name_H-M   'P 1'
_cell_length_a   7.13682184
_cell_length_b   8.37312376
_cell_length_c   8.48403410
_cell_angle_alpha   70.72235568
_cell_angle_beta   65.12087635
_cell_angle_gamma   64.77962991
_symmetry_Int_Tables_number   1
_chemical_formula_structural   MnH10C4(ClO2)2
_chemical_formula_sum   'Mn2 H20 C8 Cl4 O8'
_cell_volume   409.00006648
_cell_formula_units_Z   2
loop_
 _symmetry_equiv_pos_site_id
 _symmetry_equiv_pos_as_xyz
  1  'x, y, z'
loop_
 _atom_site_type_symbol
 _atom_site_label
 _atom_site_symmetry_multiplicity
 _atom_site_fract_x
 _atom_site_fract_y
 _atom_site_fract_z
 _atom_site_occupancy
 _atom_site_pbe_cm5_charge
 _atom_site_pbe_ddec_charge
 _atom_site_pbe_ddec_spin_density
 _atom_site_pbe_ddec_sum_bond_order
 _atom_site_pbe_magmom
Mn  Mn0  1  0.16896812  0.24990450  0.74997472  1  0.487829  0.909009  4.686494  2.389308  4.487
Mn  Mn1  1  0.83103208  0.75009508  0.25002147  1  0.487849  0.909009  4.686505  2.389332  4.487
H  H2  1  0.35195616  0.91170803  0.16638645  1  0.109942  0.07035  0.00012  1.000068  0.001
H  H3  1  0.56968301  0.41176865  0.66648306  1  0.110039  0.069072  0.000124  1.000364  0.001
H  H4  1  0.64804509  0.08829021  0.83361568  1  0.109933  0.070342  0.00012  1.000071  0.001
H  H5  1  0.43031568  0.58823094  0.33351775  1  0.110051  0.069097  0.000124  1.000354  0.001
H  H6  1  0.07817086  0.20905583  0.17484717  1  0.091466  0.063309  2.4e-05  1.02216  0.0
H  H7  1  0.53735805  0.70921880  0.67498486  1  0.091304  0.063954  2.1e-05  1.022615  0.0
H  H8  1  0.92182981  0.79094912  0.82515312  1  0.091452  0.063313  2.4e-05  1.022138  0.0
H  H9  1  0.46264420  0.29077944  0.32501781  1  0.091316  0.063981  2.1e-05  1.022562  0.0
H  H10  1  0.32119970  0.22471289  0.17293241  1  0.09737  0.07384  0.000497  1.025808  0.001
H  H11  1  0.28060399  0.72472786  0.67296647  1  0.097295  0.07311  0.000501  1.025614  0.001
H  H12  1  0.67880431  0.77528804  0.82706225  1  0.097369  0.073816  0.000497  1.025835  0.001
H  H13  1  0.71940171  0.27526770  0.32703433  1  0.097273  0.073065  0.000501  1.02564  0.001
H  H14  1  0.25473751  0.88834505  0.96716159  1  0.27865  0.339379  0.001397  0.999616  0.003
H  H15  1  0.88954170  0.38862371  0.46727842  1  0.27825  0.338057  0.001409  1.000982  0.003
H  H16  1  0.74526227  0.11165184  0.03283971  1  0.278636  0.339355  0.001397  0.999634  0.003
H  H17  1  0.11045763  0.61137184  0.53272258  1  0.27825  0.338083  0.001409  1.00098  0.003
H  H18  1  0.23235983  0.44509466  0.95584360  1  0.280747  0.341211  0.001205  0.978699  0.002
H  H19  1  0.36640475  0.94516137  0.45589116  1  0.2813  0.341751  0.001207  0.977829  0.002
H  H20  1  0.76763692  0.55490761  0.04415446  1  0.28076  0.341225  0.001205  0.9787  0.002
H  H21  1  0.63359512  0.05483822  0.54410847  1  0.281295  0.34176  0.001207  0.977794  0.002
C  C22  1  0.37667025  0.01484818  0.04675724  1  -0.007335  0.128174  0.003242  3.801573  0.003
C  C23  1  0.56155307  0.51489164  0.54681499  1  -0.006209  0.132469  0.003246  3.798182  0.003
C  C24  1  0.62332934  0.98515409  0.95324417  1  -0.007323  0.128183  0.003242  3.801552  0.003
C  C25  1  0.43844282  0.48510660  0.45318789  1  -0.006216  0.132431  0.003245  3.798247  0.003
C  C26  1  0.24951765  0.19907843  0.09580357  1  -0.084332  -0.000769  0.002298  3.899731  0.002
C  C27  1  0.45514664  0.69914037  0.59588302  1  -0.084607  -0.002398  0.002295  3.899144  0.002
C  C28  1  0.75048246  0.80092384  0.90419268  1  -0.084351  -0.000824  0.002298  3.899672  0.002
C  C29  1  0.54485624  0.30085922  0.40411823  1  -0.084561  -0.002337  0.002295  3.899085  0.002
Cl  Cl30  1  0.78611610  0.35747558  0.93322596  1  -0.235219  -0.502091  0.070338  1.269125  0.038
Cl  Cl31  1  0.92318182  0.85733023  0.43332369  1  -0.23479  -0.501641  0.070378  1.269603  0.038
Cl  Cl32  1  0.21388251  0.64252131  0.06677653  1  -0.235223  -0.50208  0.07034  1.269134  0.038
Cl  Cl33  1  0.07681924  0.14266398  0.56667637  1  -0.23479  -0.501665  0.070378  1.269615  0.038
O  O34  1  0.28982442  0.00162459  0.92668351  1  -0.382516  -0.493089  0.041833  2.427131  0.027
O  O35  1  0.78170432  0.50186996  0.42674313  1  -0.382655  -0.493655  0.041823  2.428859  0.027
O  O36  1  0.71017427  0.99837500  0.07331731  1  -0.382517  -0.493046  0.041833  2.427256  0.027
O  O37  1  0.21829937  0.49812559  0.57325659  1  -0.382675  -0.493702  0.041825  2.428923  0.027
O  O38  1  0.25969961  0.32698061  0.93255958  1  -0.393072  -0.47509  0.035783  2.456908  0.025
O  O39  1  0.48044712  0.82703276  0.43254750  1  -0.393449  -0.474917  0.035754  2.455907  0.025
O  O40  1  0.74029760  0.67302301  0.06743878  1  -0.393069  -0.475078  0.035786  2.456972  0.025
O  O41  1  0.51955530  0.17296548  0.56745346  1  -0.393466  -0.474963  0.035756  2.455847  0.025
