# generated using pymatgen
data_MnH19C18N6O5
_symmetry_space_group_name_H-M   'P 1'
_cell_length_a   8.95851825
_cell_length_b   10.24135915
_cell_length_c   12.01331145
_cell_angle_alpha   101.05372878
_cell_angle_beta   110.59290781
_cell_angle_gamma   103.48129417
_symmetry_Int_Tables_number   1
_chemical_formula_structural   MnH19C18N6O5
_chemical_formula_sum   'Mn2 H38 C36 N12 O10'
_cell_volume   956.90016311
_cell_formula_units_Z   2
loop_
 _symmetry_equiv_pos_site_id
 _symmetry_equiv_pos_as_xyz
  1  'x, y, z'
loop_
 _atom_site_type_symbol
 _atom_site_label
 _atom_site_symmetry_multiplicity
 _atom_site_fract_x
 _atom_site_fract_y
 _atom_site_fract_z
 _atom_site_occupancy
 _atom_site_hle17_ddec_charge
 _atom_site_hle17_ddec_spin_density
 _atom_site_hle17_ddec_sum_bond_order
 _atom_site_hle17_magmom
 _atom_site_hse06_10hf_ddec_charge
 _atom_site_hse06_10hf_ddec_spin_density
 _atom_site_hse06_10hf_ddec_sum_bond_order
 _atom_site_hse06_10hf_magmom
 _atom_site_hse06_ddec_charge
 _atom_site_hse06_ddec_spin_density
 _atom_site_hse06_ddec_sum_bond_order
 _atom_site_hse06_magmom
 _atom_site_pbe_cm5_charge
 _atom_site_pbe_ddec_charge
 _atom_site_pbe_ddec_spin_density
 _atom_site_pbe_ddec_sum_bond_order
 _atom_site_pbe_magmom
Mn  Mn0  1  0.15891954  0.36212383  0.01858417  1  1.110692  4.792871  1.844517  4.669  0.943628  4.714565  2.351433  4.523  1.003849  4.760152  2.280507  4.589  0.603475  0.895468  4.66842  2.405751  4.459
Mn  Mn1  1  0.84108270  0.63787721  0.98141529  1  1.110623  4.792893  1.844546  4.669  0.943584  4.714596  2.351411  4.523  1.003807  4.760181  2.280489  4.589  0.60345  0.895423  4.668454  2.405725  4.459
H  H2  1  0.14181064  0.90658457  0.04854602  1  0.112751  -0.000258  0.985329  0.0  0.117808  3.5e-05  1.0588  0.0  0.121881  -0.000102  1.055098  0.0  0.107438  0.114647  0.000163  1.061995  0.0
H  H3  1  0.85819125  0.09341859  0.95145702  1  0.112751  -0.000263  0.985309  0.0  0.117795  3.5e-05  1.058775  0.0  0.121868  -0.000103  1.055072  0.0  0.107452  0.114632  0.000163  1.06197  0.0
H  H4  1  0.57864825  0.77534822  0.18482746  1  0.122014  -0.000484  0.959864  0.0  0.127776  -0.000305  1.028511  0.0  0.131308  -0.000352  1.026732  0.0  0.111866  0.125222  -0.000238  1.029823  0.0
H  H5  1  0.42135078  0.22465071  0.81517083  1  0.122021  -0.000487  0.959888  0.0  0.127804  -0.000305  1.02851  0.0  0.131338  -0.000353  1.026729  0.0  0.111868  0.12525  -0.000238  1.029824  0.0
H  H6  1  0.63706989  0.20675607  0.18610997  1  0.118773  -0.000184  0.958272  0.0  0.123101  0.000116  1.029676  0.0  0.127587  2.8e-05  1.026274  0.0  0.107805  0.119592  0.000221  1.032642  0.0
H  H7  1  0.36293238  0.79324499  0.81389282  1  0.118783  -0.000182  0.958289  0.0  0.12312  0.000115  1.029681  0.0  0.127588  2.7e-05  1.0263  0.0  0.107789  0.119613  0.000221  1.032649  0.0
H  H8  1  0.00194485  0.14070886  0.41784575  1  0.078339  9e-06  0.931562  0.0  0.081354  9.1e-05  1.004702  0.0  0.083188  5.8e-05  1.001397  0.0  0.123178  0.079935  0.000145  1.007125  0.0
H  H9  1  0.99805537  0.85929007  0.58215284  1  0.078342  6e-06  0.931556  0.0  0.081359  9.1e-05  1.004686  0.0  0.083191  5.8e-05  1.00138  0.0  0.123176  0.07994  0.000145  1.007108  0.0
H  H10  1  0.82681737  0.20500454  0.38621872  1  0.075652  5.3e-05  0.915742  0.0  0.083343  0.00013  0.986053  0.0  0.08461  9.8e-05  0.983507  0.0  0.129163  0.082389  0.000189  0.987905  0.0
H  H11  1  0.17318285  0.79499439  0.61377988  1  0.075699  5.7e-05  0.915738  0.0  0.083393  0.00013  0.986026  0.0  0.084658  9.8e-05  0.983478  0.0  0.129194  0.08244  0.000189  0.987876  0.0
H  H12  1  0.07191312  0.54719973  0.24526106  1  0.099992  -0.000496  0.954448  0.0  0.105941  -0.000265  1.020952  0.0  0.108071  -0.000355  1.019305  0.0  0.136736  0.104525  -0.000184  1.021704  0.0
H  H13  1  0.92808913  0.45280132  0.75474007  1  0.099989  -0.00051  0.954478  0.0  0.105953  -0.000265  1.020967  0.0  0.108071  -0.000355  1.019333  0.0  0.136731  0.104536  -0.000184  1.021719  0.0
H  H14  1  0.02706481  0.11785054  0.15545805  1  0.128571  -0.000482  0.928042  0.0  0.134403  -0.000253  0.993829  0.0  0.137905  -0.000335  0.989423  0.0  0.149875  0.131319  -0.000174  0.997896  0.0
H  H15  1  0.97293463  0.88214944  0.84454052  1  0.128556  -0.000484  0.928013  0.0  0.134382  -0.000253  0.993827  0.0  0.137884  -0.000335  0.989423  0.0  0.149873  0.1313  -0.000174  0.997892  0.0
H  H16  1  0.98229125  0.15697523  0.71980648  1  0.097399  -0.000248  0.90697  0.0  0.112293  -2.2e-05  0.958281  0.0  0.114034  -8.4e-05  0.956308  0.0  0.140708  0.110711  4.8e-05  0.96024  0.0
H  H17  1  0.01770661  0.84302371  0.28019317  1  0.097417  -0.000252  0.906974  0.0  0.112309  -2.2e-05  0.958281  0.0  0.114053  -8.4e-05  0.956306  0.0  0.14072  0.110727  4.8e-05  0.960239  0.0
H  H18  1  0.39813517  0.53082561  0.88017280  1  0.131339  -0.000724  0.940185  0.0  0.138861  -0.000478  1.0041  0.0  0.142495  -0.000561  0.999668  0.0  0.148619  0.136129  -0.000409  1.007442  0.0
H  H19  1  0.60186388  0.46917332  0.11982715  1  0.131344  -0.00072  0.94021  0.0  0.138871  -0.000478  1.004126  0.0  0.142504  -0.000561  0.999692  0.0  0.148625  0.136138  -0.000409  1.007465  0.0
H  H20  1  0.38705309  0.57306150  0.67274203  1  0.088188  -0.000181  0.932112  0.0  0.102591  -0.00014  0.998273  0.0  0.104  -0.000181  0.997026  0.0  0.11419  0.101302  -8.5e-05  0.999516  0.0
H  H21  1  0.61294357  0.42693743  0.32725731  1  0.08815  -0.000183  0.932154  0.0  0.102579  -0.00014  0.998284  0.0  0.103983  -0.00018  0.997043  0.0  0.114181  0.101288  -8.5e-05  0.999527  0.0
H  H22  1  0.23798989  0.44115913  0.53069837  1  0.079127  5.5e-05  0.934598  0.0  0.088937  0.000117  1.008963  0.0  0.090317  8.2e-05  1.0078  0.0  0.108862  0.087849  0.000142  1.009845  0.0
H  H23  1  0.76200756  0.55883875  0.46930100  1  0.079129  5.5e-05  0.934583  0.0  0.088956  0.000117  1.008936  0.0  0.090338  8.2e-05  1.00777  0.0  0.108854  0.087869  0.000142  1.009819  0.0
H  H24  1  0.55257193  0.47659815  0.58295134  1  0.067822  -3.7e-05  0.947488  0.0  0.091008  -3.9e-05  1.001853  0.0  0.090905  -4.6e-05  1.003755  0.0  0.091514  0.090946  -3.3e-05  1.000806  0.0
H  H25  1  0.44742674  0.52340289  0.41704886  1  0.067823  -3.1e-05  0.947464  0.0  0.090984  -4e-05  1.001874  0.0  0.090879  -4.5e-05  1.003774  0.0  0.091505  0.090915  -3.3e-05  1.000832  0.0
H  H26  1  0.56705950  0.42175102  0.71499746  1  0.08115  -0.000225  0.960781  0.0  0.097678  1.9e-05  1.026059  0.0  0.098164  -0.0001  1.027252  0.0  0.096308  0.097131  0.000173  1.025557  0.0
H  H27  1  0.43293994  0.57824896  0.28500194  1  0.081126  -0.00022  0.960809  0.0  0.097664  1.8e-05  1.026082  0.0  0.098149  -9.9e-05  1.027275  0.0  0.096288  0.097115  0.000173  1.025577  0.0
H  H28  1  0.34454089  0.23960008  0.44272953  1  0.050817  -2.8e-05  0.932265  0.0  0.071739  4e-06  0.990563  0.0  0.072395  -6e-06  0.991093  0.0  0.081037  0.071138  2.2e-05  0.990375  0.0
H  H29  1  0.65545896  0.76040096  0.55726931  1  0.050854  -1.7e-05  0.932225  0.0  0.071765  4e-06  0.990517  0.0  0.072422  -6e-06  0.991047  0.0  0.081044  0.071164  2.2e-05  0.990332  0.0
H  H30  1  0.35136205  0.18490969  0.57467692  1  0.060308  -2e-06  0.95405  0.0  0.076064  4.3e-05  1.021229  0.0  0.076965  3.4e-05  1.021484  0.0  0.084996  0.075417  5.8e-05  1.020856  0.0
H  H31  1  0.64863620  0.81509028  0.42532133  1  0.060332  1.3e-05  0.954025  0.0  0.076088  4.3e-05  1.021189  0.0  0.07699  3.4e-05  1.021443  0.0  0.084998  0.07544  5.8e-05  1.020816  0.0
H  H32  1  0.65128044  0.27606499  0.50652359  1  0.050962  -0.0  0.939257  0.0  0.071511  2e-06  0.999735  0.0  0.072118  -2e-06  1.000285  0.0  0.082752  0.070923  -4e-06  0.999466  0.0
H  H33  1  0.34871979  0.72393394  0.49347584  1  0.050959  3e-06  0.939263  0.0  0.071511  2e-06  0.999749  0.0  0.072118  -1e-06  1.000299  0.0  0.08276  0.070923  -4e-06  0.999481  0.0
H  H34  1  0.66515825  0.22712595  0.64163168  1  0.058113  -9.2e-05  0.946454  0.0  0.078024  -5.9e-05  1.00907  0.0  0.077943  -9.8e-05  1.010627  0.0  0.084679  0.078163  -7e-06  1.007673  0.0
H  H35  1  0.33484000  0.77287403  0.35836741  1  0.0581  -8.9e-05  0.946423  0.0  0.078008  -5.9e-05  1.009056  0.0  0.077927  -9.8e-05  1.010613  0.0  0.084664  0.078147  -7e-06  1.007657  0.0
H  H36  1  0.44496521  0.03146622  0.37420545  1  0.056462  1e-05  0.946915  0.0  0.076098  9e-06  1.009035  0.0  0.075618  6e-06  1.011836  0.0  0.081648  0.076135  1.7e-05  1.007515  0.0
H  H37  1  0.55503265  0.96853271  0.62579504  1  0.056466  3e-06  0.946905  0.0  0.076086  9e-06  1.00904  0.0  0.075618  6e-06  1.01183  0.0  0.081662  0.076124  1.7e-05  1.007522  0.0
H  H38  1  0.65039118  0.03757492  0.46526503  1  0.053646  5e-06  0.94525  0.0  0.075639  0.0  1.001654  0.0  0.075975  -0.0  1.00253  0.0  0.083471  0.075256  6e-06  1.001126  0.0
H  H39  1  0.34960667  0.96242401  0.53473462  1  0.053635  0.0  0.945241  0.0  0.075635  1e-06  1.001643  0.0  0.075969  -1e-06  1.002524  0.0  0.083468  0.075251  6e-06  1.001117  0.0
C  C40  1  0.38260607  0.06448861  0.10845414  1  -0.039608  -0.004402  3.785981  -0.003  -0.013047  -0.002389  4.020246  -0.002  -0.019975  -0.003189  4.042706  -0.002  -0.019373  -0.008856  -0.001877  4.005657  -0.002
C  C41  1  0.61739661  0.93551351  0.89154894  1  -0.039662  -0.004413  3.786111  -0.003  -0.013126  -0.002385  4.020391  -0.002  -0.020057  -0.003196  4.04285  -0.002  -0.019405  -0.008933  -0.001877  4.0058  -0.002
C  C42  1  0.27769220  0.92908825  0.08599567  1  -0.105832  0.00346  3.718466  0.003  -0.148757  0.003877  3.973138  0.004  -0.147319  0.003277  3.991711  0.003  -0.089573  -0.150218  0.005996  3.962172  0.005
C  C43  1  0.72230732  0.07091491  0.91400759  1  -0.105715  0.003462  3.718713  0.003  -0.14862  0.003874  3.973315  0.004  -0.147182  0.003285  3.991887  0.003  -0.089555  -0.15008  0.005996  3.962346  0.005
C  C44  1  0.34815888  0.82429994  0.11256307  1  -0.051783  -0.002632  3.785923  -0.001  -0.023942  -0.001024  4.020799  0.0  -0.031604  -0.002106  4.042313  -0.001  -0.018071  -0.019248  6.7e-05  4.007153  0.0
C  C45  1  0.65184140  0.17570216  0.88743855  1  -0.051851  -0.002617  3.786276  -0.001  -0.023915  -0.00102  4.020982  0.0  -0.031573  -0.002123  4.042493  -0.001  -0.018029  -0.019221  6.6e-05  4.007331  0.0
C  C46  1  0.52322295  0.85640093  0.16445272  1  -0.145041  0.004786  3.668676  0.004  -0.182947  0.005746  3.923678  0.005  -0.182419  0.004653  3.93961  0.004  -0.085762  -0.182817  0.006545  3.913032  0.005
C  C47  1  0.47677574  0.14360012  0.83554916  1  -0.145021  0.004795  3.668702  0.004  -0.183  0.005744  3.923692  0.005  -0.182471  0.004665  3.93962  0.004  -0.085803  -0.182871  0.006545  3.913049  0.005
C  C48  1  0.62693787  0.99474822  0.19632774  1  0.261659  -0.003404  3.799664  -0.002  0.255771  -0.001847  4.069517  -0.001  0.263436  -0.002369  4.085727  -0.002  0.081723  0.25008  -0.001618  4.05857  -0.001
C  C49  1  0.37306277  0.00525177  0.80367196  1  0.261661  -0.003391  3.799606  -0.002  0.255768  -0.001847  4.069492  -0.001  0.263432  -0.002379  4.085699  -0.002  0.081719  0.250076  -0.001618  4.05855  -0.001
C  C50  1  0.55856963  0.09926423  0.16667004  1  -0.186524  0.00457  3.710538  0.004  -0.223455  0.00539  3.968407  0.004  -0.224595  0.004369  3.986246  0.004  -0.095299  -0.222165  0.006579  3.956533  0.005
C  C51  1  0.44143102  0.90073576  0.83333050  1  -0.186567  0.004566  3.710498  0.004  -0.223491  0.005387  3.968346  0.004  -0.224616  0.004378  3.986196  0.004  -0.095306  -0.222202  0.006579  3.956478  0.005
C  C52  1  0.30557748  0.17288739  0.07108828  1  0.624387  0.003592  3.921876  0.002  0.578063  0.007498  4.207144  0.005  0.611553  0.005953  4.202924  0.004  0.200343  0.555293  0.009096  4.207948  0.005
C  C53  1  0.69442278  0.82711470  0.92891167  1  0.624374  0.003591  3.921838  0.002  0.57807  0.007495  4.207096  0.005  0.611561  0.005948  4.202874  0.004  0.200369  0.555301  0.009094  4.207902  0.005
C  C54  1  0.23812684  0.67960088  0.09233137  1  0.665381  0.014085  3.878416  0.014  0.610132  0.023527  4.172639  0.021  0.647494  0.017653  4.163042  0.017  0.222327  0.583937  0.030435  4.177934  0.027
C  C55  1  0.76187500  0.32039911  0.90766865  1  0.665296  0.014053  3.878671  0.014  0.610054  0.023528  4.172834  0.021  0.647417  0.017655  4.163233  0.017  0.222297  0.583861  0.030438  4.178122  0.027
C  C56  1  0.89698307  0.15337455  0.34415787  1  0.170467  0.000398  3.638954  0.0  0.090252  0.000604  3.907326  0.0  0.103058  0.000449  3.909023  0.0  0.049793  0.081291  0.000792  3.90656  0.001
C  C57  1  0.10301756  0.84662544  0.65584101  1  0.17043  0.000402  3.639056  0.0  0.090225  0.000605  3.907396  0.0  0.103047  0.000443  3.909068  0.0  0.049754  0.081266  0.000792  3.906634  0.001
C  C58  1  0.04630127  0.43858553  0.24615105  1  0.203032  0.001945  3.691411  0.003  0.153078  0.003392  3.979355  0.004  0.164078  0.00277  3.992721  0.003  0.151842  0.14582  0.004189  3.969947  0.004
C  C59  1  0.95370055  0.56141446  0.75384813  1  0.202945  0.002022  3.691511  0.003  0.152969  0.00339  3.979458  0.004  0.163978  0.002781  3.992828  0.003  0.151792  0.145712  0.00419  3.970052  0.004
C  C60  1  0.02748890  0.22150877  0.19875184  1  0.18073  0.002998  3.610512  0.004  0.114152  0.004921  3.877446  0.005  0.129193  0.004023  3.888755  0.004  0.16916  0.104098  0.005795  3.869686  0.006
C  C61  1  0.97251332  0.77849226  0.80124594  1  0.180805  0.003003  3.610358  0.004  0.114194  0.004922  3.877324  0.005  0.129235  0.004022  3.888631  0.004  0.169168  0.104139  0.005795  3.869568  0.006
C  C62  1  0.08440308  0.24673510  0.73084371  1  0.206647  0.002038  3.724847  0.003  0.149566  0.003676  4.025427  0.004  0.162046  0.002961  4.036964  0.003  0.148688  0.141325  0.004355  4.016816  0.004
C  C63  1  0.91559717  0.75326384  0.26915739  1  0.206652  0.002064  3.724726  0.003  0.149587  0.003676  4.025287  0.004  0.162062  0.002958  4.03683  0.003  0.148735  0.141344  0.004355  4.016674  0.004
C  C64  1  0.29533433  0.43607521  0.81629911  1  0.17529  0.003001  3.600755  0.004  0.0969  0.004884  3.867278  0.005  0.111002  0.003964  3.878208  0.004  0.172226  0.087522  0.005806  3.860236  0.006
C  C65  1  0.70466432  0.56392268  0.18370140  1  0.175327  0.003004  3.600814  0.004  0.096922  0.004884  3.86736  0.005  0.111024  0.003964  3.878289  0.004  0.172257  0.087544  0.005805  3.860313  0.006
C  C66  1  0.33660329  0.45982904  0.62346883  1  -0.013021  0.00039  3.61695  0.0  -0.092328  0.000544  3.884583  0.0  -0.088182  0.000392  3.893941  0.0  -0.051351  -0.094649  0.000753  3.877981  0.001
C  C67  1  0.66339535  0.54016885  0.37653085  1  -0.013047  0.000385  3.616969  0.0  -0.092383  0.000544  3.884603  0.0  -0.088235  0.000393  3.893958  0.0  -0.051369  -0.094706  0.000753  3.878  0.001
C  C68  1  0.48060197  0.40643060  0.61857560  1  -0.134834  1.7e-05  3.683681  0.0  -0.177238  0.000191  3.9502  0.0  -0.179225  9e-05  3.965263  0.0  -0.166684  -0.175763  0.000283  3.939859  0.0
C  C69  1  0.51939629  0.59356939  0.38142433  1  -0.13475  9e-06  3.683664  0.0  -0.177181  0.000192  3.950213  0.0  -0.179165  8.9e-05  3.965279  0.0  -0.166668  -0.175698  0.000283  3.939864  0.0
C  C70  1  0.42738875  0.25347932  0.54038874  1  -0.104004  8.8e-05  3.689745  0.0  -0.143104  9.5e-05  3.953223  0.0  -0.144103  6.9e-05  3.968188  0.0  -0.17181  -0.142462  0.000112  3.943074  0.0
C  C71  1  0.57260991  0.74652172  0.45961062  1  -0.104136  5.1e-05  3.689805  0.0  -0.14317  9.5e-05  3.953204  0.0  -0.144172  6.9e-05  3.968173  0.0  -0.171814  -0.142529  0.000112  3.943055  0.0
C  C72  1  0.57937848  0.20756223  0.54368277  1  -0.104116  1.7e-05  3.690735  0.0  -0.141506  9e-05  3.951486  0.0  -0.142528  6.4e-05  3.96711  0.0  -0.168058  -0.140674  0.000107  3.94066  0.0
C  C73  1  0.42062097  0.79243775  0.45631663  1  -0.104052  3e-06  3.690726  0.0  -0.141473  9.2e-05  3.951505  0.0  -0.142496  6.1e-05  3.967133  0.0  -0.168044  -0.140641  0.000107  3.940679  0.0
C  C74  1  0.53560423  0.05332279  0.47129235  1  -0.108552  -4.3e-05  3.689361  0.0  -0.146618  1.8e-05  3.949016  0.0  -0.147748  7e-06  3.964744  0.0  -0.171287  -0.145582  3.1e-05  3.938215  0.0
C  C75  1  0.46439522  0.94667720  0.52870788  1  -0.108545  5e-06  3.689346  0.0  -0.146608  1.7e-05  3.94902  0.0  -0.147746  1.2e-05  3.964748  0.0  -0.171298  -0.145572  3.1e-05  3.938221  0.0
N  N76  1  0.96419154  0.24873784  0.28366043  1  -0.005646  0.000604  3.560497  0.001  0.084773  0.001729  3.788606  0.002  0.071252  0.001248  3.813937  0.001  -0.139362  0.093779  0.002208  3.771388  0.002
N  N77  1  0.03581029  0.75126215  0.71633875  1  -0.005778  0.000626  3.56062  0.001  0.084663  0.001726  3.788702  0.002  0.071139  0.001252  3.814028  0.001  -0.139329  0.093671  0.002208  3.771487  0.002
N  N78  1  0.97488897  0.38691956  0.31536429  1  -0.277856  -9.3e-05  2.84439  0.0  -0.273706  0.000622  3.121204  0.001  -0.280442  0.000149  3.133823  0.0  -0.227696  -0.268861  0.001029  3.112729  0.001
N  N79  1  0.02511405  0.61308043  0.68463520  1  -0.277715  -0.000171  2.844447  0.0  -0.273574  0.000626  3.121266  0.001  -0.280307  0.000139  3.133878  0.0  -0.227641  -0.268728  0.001029  3.112791  0.001
N  N80  1  0.08033917  0.34067575  0.17262384  1  -0.407873  0.025038  3.179956  0.01  -0.340155  0.029252  3.474405  0.009  -0.36346  0.026673  3.486777  0.008  -0.332166  -0.323405  0.03178  3.465416  0.011
N  N81  1  0.91966187  0.65932528  0.82737531  1  -0.407879  0.025023  3.17988  0.01  -0.340124  0.029248  3.47432  0.009  -0.363433  0.026672  3.486687  0.008  -0.332185  -0.323373  0.031776  3.465332  0.011
N  N82  1  0.18987168  0.34465366  0.84317589  1  -0.412749  0.027476  3.205493  0.014  -0.346418  0.031174  3.511272  0.013  -0.369997  0.028121  3.52323  0.011  -0.34167  -0.329144  0.034352  3.50245  0.015
N  N83  1  0.81012816  0.65534424  0.15682494  1  -0.412769  0.027463  3.20545  0.014  -0.346439  0.031173  3.511234  0.013  -0.370021  0.028119  3.523204  0.011  -0.341712  -0.329166  0.03435  3.502409  0.015
N  N84  1  0.11871988  0.27239288  0.63666565  1  -0.295592  0.000401  2.871052  0.001  -0.292554  0.001297  3.141482  0.001  -0.301407  0.000747  3.15433  0.001  -0.223537  -0.285942  0.001812  3.132319  0.002
N  N85  1  0.88127877  0.72760501  0.36333571  1  -0.295566  0.00038  2.870921  0.001  -0.292534  0.001294  3.141358  0.001  -0.301394  0.000752  3.154212  0.001  -0.223558  -0.285924  0.001811  3.132195  0.002
N  N86  1  0.25346066  0.39366960  0.69308723  1  0.049009  0.000768  3.551289  0.001  0.172698  0.001731  3.735812  0.002  0.162062  0.001233  3.76026  0.001  -0.132538  0.178254  0.002086  3.7215  0.002
N  N87  1  0.74653798  0.60632828  0.30691245  1  0.048969  0.000773  3.551344  0.001  0.172652  0.001731  3.735882  0.002  0.16203  0.00123  3.760302  0.001  -0.132553  0.178208  0.002085  3.721565  0.002
O  O88  1  0.39614460  0.30290059  0.11508859  1  -0.642354  0.026427  1.958598  0.02  -0.583866  0.033828  2.20278  0.025  -0.612718  0.02944  2.193226  0.021  -0.314646  -0.561592  0.037228  2.208433  0.028
O  O89  1  0.60385449  0.69710151  0.88491272  1  -0.642331  0.026442  1.958614  0.02  -0.583857  0.033826  2.20281  0.025  -0.612706  0.029439  2.193255  0.021  -0.314648  -0.561586  0.037227  2.208468  0.028
O  O90  1  0.14931365  0.13251981  0.99725643  1  -0.633041  0.026762  1.955867  0.021  -0.574283  0.033473  2.202362  0.026  -0.603011  0.029245  2.191949  0.022  -0.314535  -0.552315  0.038174  2.20856  0.03
O  O91  1  0.85068585  0.86748647  0.00274234  1  -0.632976  0.026747  1.955736  0.021  -0.574295  0.03347  2.202314  0.026  -0.603021  0.029246  2.1919  0.022  -0.314544  -0.552325  0.038171  2.208509  0.03
O  O92  1  0.09429283  0.66526280  0.09473569  1  -0.663593  0.033238  2.094863  0.018  -0.601975  0.044981  2.385661  0.025  -0.632146  0.039332  2.368916  0.021  -0.314574  -0.578698  0.049784  2.3955  0.029
O  O93  1  0.90571222  0.33473617  0.90526915  1  -0.663579  0.033252  2.094916  0.018  -0.601977  0.044982  2.385708  0.025  -0.632147  0.039338  2.368962  0.021  -0.314554  -0.578699  0.049786  2.395546  0.029
O  O94  1  0.29771610  0.57888533  0.07821806  1  -0.6322  0.039263  2.042134  0.026  -0.565019  0.049453  2.312184  0.032  -0.594453  0.042908  2.296543  0.026  -0.307215  -0.543042  0.055873  2.322913  0.038
O  O95  1  0.70228172  0.42111359  0.92177908  1  -0.632143  0.039274  2.04221  0.026  -0.564957  0.049452  2.312204  0.032  -0.59441  0.042908  2.296606  0.026  -0.307195  -0.542983  0.055873  2.322932  0.038
O  O96  1  0.79794616  0.01888585  0.26010085  1  -0.294506  -0.000363  2.329189  0.0  -0.232263  -0.000313  2.571978  0.0  -0.249163  -0.000371  2.574098  0.0  -0.179211  -0.220157  -0.000256  2.570712  0.0
O  O97  1  0.20205405  0.98111308  0.73989691  1  -0.294466  -0.000386  2.329152  0.0  -0.232229  -0.000308  2.571932  0.0  -0.249132  -0.00038  2.574046  0.0  -0.179188  -0.220123  -0.000256  2.570671  0.0
