# generated using pymatgen
data_Zn4H11C23Br5O16
_symmetry_space_group_name_H-M   'P 1'
_cell_length_a   13.06654567
_cell_length_b   13.12209050
_cell_length_c   16.07064911
_cell_angle_alpha   79.29216188
_cell_angle_beta   80.58257861
_cell_angle_gamma   89.23448847
_symmetry_Int_Tables_number   1
_chemical_formula_structural   Zn4H11C23Br5O16
_chemical_formula_sum   'Zn4 H11 C23 Br5 O16'
_cell_volume   2670.59648815
_cell_formula_units_Z   1
loop_
 _symmetry_equiv_pos_site_id
 _symmetry_equiv_pos_as_xyz
  1  'x, y, z'
loop_
 _atom_site_type_symbol
 _atom_site_label
 _atom_site_symmetry_multiplicity
 _atom_site_fract_x
 _atom_site_fract_y
 _atom_site_fract_z
 _atom_site_occupancy
 _atom_site_pbe_bader_charge
 _atom_site_pbe_bader_spin_density
 _atom_site_pbe_cm5_charge
 _atom_site_pbe_ddec_charge
 _atom_site_pbe_ddec_spin_density
 _atom_site_pbe_ddec_sum_bond_order
 _atom_site_pbe_magmom
Zn  Zn0  1  0.43413682  0.41509697  0.43736444  1  1.313207  0  0.673404  0.962574  0  2.395816  0
Zn  Zn1  1  0.58955887  0.41996317  0.57392657  1  1.319053  0  0.677915  0.982821  0  2.334066  0
Zn  Zn2  1  0.39034596  0.56666200  0.57064132  1  1.318269  0  0.673798  0.972559  0  2.346227  0
Zn  Zn3  1  0.58574039  0.60722851  0.41200590  1  1.31074  0  0.67289  0.969143  0  2.336103  0
H  H4  1  0.56298809  0.61001697  0.96574831  1  0.122998  0  0.119557  0.144262  0  0.974462  0
H  H5  1  0.92881314  0.64985049  0.30407386  1  0.063231  0  0.101313  0.100482  0  0.990311  0
H  H6  1  0.99756764  0.74308893  0.34426642  1  0.047376  0  0.111913  0.117156  0  0.968302  0
H  H7  1  0.06334440  0.48986736  0.56666667  1  0.120015  0  0.113301  0.159271  0  0.980809  0
H  H8  1  0.41707422  0.27977235  0.97104869  1  0.089658  0  0.107607  0.110767  0  0.976917  0
H  H9  1  0.30342800  0.35872714  0.97294975  1  0.063769  0  0.10662  0.108295  0  0.980888  0
H  H10  1  0.32373915  0.26920524  0.06781750  1  0.077952  0  0.117678  0.126023  0  0.962554  0
H  H11  1  0.12842277  0.38104470  0.26165398  1  0.067706  0  0.115513  0.12638  0  0.961894  0
H  H12  1  0.01935262  0.45596582  0.29685060  1  0.091085  0  0.100186  0.100226  0  1.001297  0
H  H13  1  0.01618049  0.31746593  0.33079945  1  0.074698  0  0.093318  0.096255  0  1.018316  0
H  H14  1  0.85849722  0.73035707  0.37156384  1  0.088739  0  0.101764  0.110435  0  0.989507  0
C  C15  1  0.77830890  0.52596302  0.47014171  1  1.568254  0  0.225487  0.58138  0  4.182903  0
C  C16  1  0.46086318  0.93503763  0.55473901  1  -0.033444  0  -0.035828  0.022091  0  4.039261  0
C  C17  1  0.53903162  0.11207674  0.53469944  1  -0.064445  0  -0.028204  -0.072971  0  3.862983  0
C  C18  1  0.22368981  0.46734246  0.51360534  1  1.503832  0  0.211898  0.668703  0  4.1774  0
C  C19  1  0.45637659  0.04724064  0.55071180  1  0.065094  0  -0.034543  0.023574  0  4.038316  0
C  C20  1  0.53441089  0.22823577  0.52394228  1  1.640565  0  0.220887  0.623704  0  4.198796  0
C  C21  1  0.47572470  0.77481603  0.48622323  1  1.62876  0  0.221206  0.624741  0  4.19324  0
C  C22  1  0.47771001  0.48612240  0.72886096  1  1.690965  0  0.23619  0.668255  0  4.247412  0
C  C23  1  0.52278507  0.53353422  0.26721451  1  1.627092  0  0.223979  0.674575  0  4.243514  0
C  C24  1  0.47198055  0.48312720  0.82002873  1  0.262651  0  -0.01636  -0.124248  0  3.899975  0
C  C25  1  0.46847307  0.47578464  0.98534852  1  0.600298  0  0.111085  0.280404  0  4.130149  0
C  C26  1  0.52382123  0.54633047  0.10062267  1  -0.462485  0  -0.024962  0.061466  0  4.185149  0
C  C27  1  0.52139733  0.54863194  0.01397448  1  0.177846  0  -0.10192  -0.235725  0  4.082685  0
C  C28  1  0.36171600  0.32224540  0.01060709  1  0.352092  0  -0.127221  -0.179229  0  3.891298  0
C  C29  1  0.06595623  0.38750177  0.31476706  1  0.33475  0  -0.134793  -0.178596  0  3.896177  0
C  C30  1  0.93116950  0.68898534  0.35857931  1  0.367207  0  -0.134226  -0.168502  0  3.886594  0
C  C31  1  0.46975225  0.47998902  0.89654026  1  -0.488243  0  -0.018739  -0.086902  0  4.087099  0
C  C32  1  0.52579824  0.54384164  0.17678976  1  0.174831  0  -0.053011  -0.225331  0  3.962869  0
C  C33  1  0.11218949  0.46207619  0.51431601  1  0.025456  0  -0.127412  -0.396002  0  3.888522  0
C  C34  1  0.06409702  0.43177879  0.45358879  1  0.553863  0  0.09947  0.284637  0  4.063803  0
C  C35  1  0.89530472  0.52294802  0.45436782  1  0.647636  0  0.074892  0.064199  0  4.003028  0
C  C36  1  0.94958795  0.43420503  0.46461527  1  -0.083263  0  -0.032122  -0.093578  0  3.961418  0
C  C37  1  0.46888567  0.88940576  0.48565760  1  0.02822  0  -0.028952  -0.074082  0  3.86374  0
Br  Br38  1  0.47551547  0.97157822  0.37459168  1  0.003462  0  0.047747  0.000692  0  1.385325  0
Br  Br39  1  0.88426733  0.30036536  0.49815148  1  -0.030055  0  0.034952  -0.038228  0  1.4706  0
Br  Br40  1  0.31863168  0.09739613  0.57281551  1  -0.007333  0  0.040723  -0.011963  0  1.367052  0
Br  Br41  1  0.45491749  0.85481625  0.66741439  1  -0.012624  0  0.033406  -0.022105  0  1.375442  0
Br  Br42  1  0.67514663  0.05914177  0.52059084  1  -0.002844  0  0.046544  -0.000289  0  1.416559  0
O  O43  1  0.50227989  0.50334699  0.50022837  1  -1.236696  0  -0.571309  -1.034637  0  2.517466  0
O  O44  1  0.54719129  0.42986421  0.69576977  1  -1.140998  0  -0.301432  -0.522957  0  2.267308  0
O  O45  1  0.56483634  0.60628897  0.29435557  1  -1.149004  0  -0.320812  -0.552791  0  2.266131  0
O  O46  1  0.41328761  0.54408764  0.69206838  1  -1.147067  0  -0.298986  -0.528367  0  2.284553  0
O  O47  1  0.47764054  0.45129902  0.31330184  1  -1.152959  0  -0.313673  -0.537839  0  2.284769  0
O  O48  1  0.41454792  0.39851448  0.04286451  1  -1.048125  0  -0.163178  -0.129801  0  2.52278  0
O  O49  1  0.11783956  0.39786927  0.38524180  1  -1.045777  0  -0.164921  -0.117484  0  2.558715  0
O  O50  1  0.94952681  0.61519504  0.43334580  1  -1.050856  0  -0.192066  -0.149456  0  2.557257  0
O  O51  1  0.48167137  0.27156242  0.46823530  1  -1.157574  0  -0.301536  -0.520593  0  2.365262  0
O  O52  1  0.55521759  0.74605797  0.43994676  1  -1.159418  0  -0.311586  -0.532177  0  2.321751  0
O  O53  1  0.73302434  0.47430582  0.54107944  1  -1.169185  0  -0.309746  -0.531758  0  2.373988  0
O  O54  1  0.25218443  0.51777833  0.56793507  1  -1.162331  0  -0.332617  -0.564908  0  2.281183  0
O  O55  1  0.73603883  0.58128347  0.41162923  1  -1.16217  0  -0.300286  -0.523306  0  2.332796  0
O  O56  1  0.28469479  0.42313103  0.46093660  1  -1.151656  0  -0.321146  -0.555425  0  2.363039  0
O  O57  1  0.58448535  0.27086101  0.57023131  1  -1.144085  0  -0.310763  -0.53433  0  2.327552  0
O  O58  1  0.40112238  0.71928412  0.53196468  1  -1.158733  0  -0.302897  -0.52149  0  2.332131  0
