# generated using pymatgen
data_AlH12C27N7O6
_symmetry_space_group_name_H-M   'P 1'
_cell_length_a   3.91974629
_cell_length_b   18.14864105
_cell_length_c   18.13979195
_cell_angle_alpha   120.56676967
_cell_angle_beta   94.12271388
_cell_angle_gamma   92.97276668
_symmetry_Int_Tables_number   1
_chemical_formula_structural   AlH12C27N7O6
_chemical_formula_sum   'Al1 H12 C27 N7 O6'
_cell_volume   1102.34321821
_cell_formula_units_Z   1
loop_
 _symmetry_equiv_pos_site_id
 _symmetry_equiv_pos_as_xyz
  1  'x, y, z'
loop_
 _atom_site_type_symbol
 _atom_site_label
 _atom_site_symmetry_multiplicity
 _atom_site_fract_x
 _atom_site_fract_y
 _atom_site_fract_z
 _atom_site_occupancy
 _atom_site_pbe_bader_charge
 _atom_site_pbe_bader_spin_density
 _atom_site_pbe_cm5_charge
 _atom_site_pbe_ddec_charge
 _atom_site_pbe_ddec_spin_density
 _atom_site_pbe_ddec_sum_bond_order
 _atom_site_pbe_magmom
Al  Al0  1  0.00891264  0.00077016  0.49735486  1  2.50186  0  0.423932  1.583935  0  2.582505  0
H  H1  1  0.61138459  0.31767806  0.42071845  1  0.113211  0  0.110753  0.115237  0  0.994434  0
H  H2  1  0.78353296  0.09104781  0.89916868  1  0.112193  0  0.110551  0.116144  0  0.994695  0
H  H3  1  0.63356330  0.60538101  0.19247164  1  0.13356  0  0.110815  0.115649  0  0.99915  0
H  H4  1  0.40714298  0.30662251  0.89357250  1  0.114057  0  0.110916  0.11602  0  0.998261  0
H  H5  1  0.37428082  0.22429755  0.73200634  1  0.09149  0  0.111059  0.116507  0  0.982386  0
H  H6  1  0.79746659  0.01353490  0.73864629  1  0.076652  0  0.11102  0.115509  0  0.983654  0
H  H7  1  0.65591753  0.76661134  0.27445057  1  0.095107  0  0.111108  0.116428  0  0.983243  0
H  H8  1  0.23454189  0.76002962  0.48369826  1  0.103865  0  0.11099  0.115701  0  0.983297  0
H  H9  1  0.25663606  0.59983658  0.40651672  1  0.108189  0  0.110185  0.11714  0  0.993592  0
H  H10  1  0.40022905  0.07787419  0.18018035  1  0.081958  0  0.111009  0.115868  0  0.992975  0
H  H11  1  0.36860377  0.99872582  0.26014890  1  0.052262  0  0.111019  0.114869  0  0.979719  0
H  H12  1  0.63598509  0.23775889  0.50010191  1  0.094019  0  0.110793  0.114189  0  0.980527  0
C  C13  1  0.50337926  0.06651931  0.43192865  1  1.553382  0  0.279616  0.654005  0  4.055255  0
C  C14  1  0.56407842  0.06690285  0.63058849  1  1.560453  0  0.276617  0.646237  0  4.062888  0
C  C15  1  0.46019423  0.86781791  0.43076778  1  1.531359  0  0.276761  0.646726  0  4.063679  0
C  C16  1  0.56697497  0.24776651  0.38648651  1  -0.009932  0  -0.071972  -0.087907  0  3.948506  0
C  C17  1  0.50642039  0.20216356  0.29605549  1  -0.039662  0  -0.001804  0.007562  0  3.963245  0
C  C18  1  0.70260954  0.12019305  0.86190240  1  -0.086695  0  -0.073385  -0.092888  0  3.943694  0
C  C19  1  0.59528090  0.20327497  0.90533536  1  -0.00319  0  -0.001521  0.008669  0  3.962079  0
C  C20  1  0.44560884  0.59365950  0.29508580  1  -0.009933  0  -0.000942  0.009438  0  3.958848  0
C  C21  1  0.55175329  0.64027088  0.25670549  1  -0.125262  0  -0.073224  -0.090666  0  3.947554  0
C  C22  1  0.48670437  0.24196070  0.85858673  1  0.018114  0  -0.073165  -0.091238  0  3.947158  0
C  C23  1  0.47199048  0.19670932  0.76945734  1  -0.075737  0  -0.076706  -0.092438  0  3.964866  0
C  C24  1  0.58498510  0.11439725  0.72624238  1  -0.028798  0  -0.000948  -0.018955  0  3.941384  0
C  C25  1  0.70685163  0.07703597  0.77302265  1  0.039956  0  -0.075823  -0.091179  0  3.958665  0
C  C26  1  0.56091101  0.72920655  0.30173634  1  0.053821  0  -0.076549  -0.091354  0  3.967144  0
C  C27  1  0.44564014  0.77234931  0.38352354  1  0.010827  0  -0.00155  -0.022494  0  3.946027  0
C  C28  1  0.32712817  0.72573544  0.42063721  1  -0.067811  0  -0.075719  -0.090062  0  3.960344  0
C  C29  1  0.33591270  0.63704067  0.37767379  1  -0.003108  0  -0.07337  -0.094279  0  3.94264  0
C  C30  1  0.44300914  0.11201738  0.25029543  1  -0.015802  0  -0.071633  -0.087879  0  3.94786  0
C  C31  1  0.42897485  0.06834192  0.29465075  1  -0.05781  0  -0.077885  -0.09803  0  3.969744  0
C  C32  1  0.50226873  0.11375744  0.38465743  1  0.007614  0  0.00224  -0.011413  0  3.941926  0
C  C33  1  0.57684017  0.20345083  0.43027150  1  0.051836  0  -0.078028  -0.097143  0  3.970742  0
C  C34  1  0.46657681  0.37630347  0.25371341  1  1.539572  0  0.355857  0.507049  0  4.085213  0
C  C35  1  0.56440541  0.24442924  0.12234186  1  1.549084  0  0.356119  0.506849  0  4.082692  0
C  C36  1  0.50983859  0.24878077  0.24935856  1  1.10048  0  0.260631  0.39314  0  4.034321  0
C  C37  1  0.45858742  0.49975786  0.24857989  1  1.095859  0  0.258929  0.388034  0  4.041604  0
C  C38  1  0.52486702  0.37766112  0.12141899  1  1.508868  0  0.356657  0.506766  0  4.092988  0
C  C39  1  0.58486384  0.24990843  0.99932543  1  1.106662  0  0.25835  0.387456  0  4.044202  0
N  N40  1  0.51868598  0.33276640  0.16585711  1  -1.179616  0  -0.193925  -0.242267  0  3.551697  0
N  N41  1  0.56408839  0.20330771  0.16574596  1  -1.217046  0  -0.319331  -0.445135  0  3.208423  0
N  N42  1  0.45828901  0.33269486  0.29457320  1  -1.18744  0  -0.319779  -0.446202  0  3.208382  0
N  N43  1  0.42717267  0.46014469  0.29392290  1  -1.211826  0  -0.321471  -0.448875  0  3.207926  0
N  N44  1  0.50413660  0.46216022  0.16457507  1  -1.200297  0  -0.319198  -0.442789  0  3.221022  0
N  N45  1  0.60550141  0.20393759  0.03864936  1  -1.195445  0  -0.321405  -0.448137  0  3.204249  0
N  N46  1  0.55061584  0.33462002  0.03715743  1  -1.170368  0  -0.319557  -0.443448  0  3.221479  0
O  O47  1  0.24500995  0.90459379  0.48465948  1  -1.249524  0  -0.233969  -0.586807  0  2.354042  0
O  O48  1  0.24827891  0.01117103  0.41360013  1  -1.250739  0  -0.235439  -0.590172  0  2.351305  0
O  O49  1  0.32583069  0.08372419  0.59104886  1  -1.257147  0  -0.238511  -0.601824  0  2.385854  0
O  O50  1  0.69244809  0.90748829  0.41394087  1  -1.261043  0  -0.238579  -0.602123  0  2.385833  0
O  O51  1  0.77986489  0.01288881  0.59355596  1  -1.250343  0  -0.23433  -0.587116  0  2.35207  0
O  O52  1  0.76049458  0.08457097  0.48774045  1  -1.251737  0  -0.236209  -0.592305  0  2.353609  0
