# generated using pymatgen
data_Zn3H31C30Br(ClO3)4
_symmetry_space_group_name_H-M   'P 1'
_cell_length_a   18.78909382
_cell_length_b   18.81259913
_cell_length_c   18.77851261
_cell_angle_alpha   109.60592084
_cell_angle_beta   109.45738020
_cell_angle_gamma   109.20557995
_symmetry_Int_Tables_number   1
_chemical_formula_structural   Zn3H31C30Br(ClO3)4
_chemical_formula_sum   'Zn6 H62 C60 Br2 Cl8 O24'
_cell_volume   5118.74441315
_cell_formula_units_Z   2
loop_
 _symmetry_equiv_pos_site_id
 _symmetry_equiv_pos_as_xyz
  1  'x, y, z'
loop_
 _atom_site_type_symbol
 _atom_site_label
 _atom_site_symmetry_multiplicity
 _atom_site_fract_x
 _atom_site_fract_y
 _atom_site_fract_z
 _atom_site_occupancy
 _atom_site_pbe_bader_charge
 _atom_site_pbe_bader_spin_density
 _atom_site_pbe_cm5_charge
 _atom_site_pbe_ddec_charge
 _atom_site_pbe_ddec_spin_density
 _atom_site_pbe_ddec_sum_bond_order
 _atom_site_pbe_magmom
Zn  Zn0  1  0.00317129  0.56243500  0.05885416  1  1.300177  0  0.73492  0.974122  0  2.06886  0
Zn  Zn1  1  0.99682898  0.43756502  0.94115000  1  1.29918  0  0.734908  0.974091  0  2.068929  0
Zn  Zn2  1  0.55729417  0.55812977  0.49782894  1  1.296987  0  0.731743  0.966987  0  2.085482  0
Zn  Zn3  1  0.44270664  0.44187368  0.50217066  1  1.293995  0  0.731527  0.9669  0  2.086188  0
Zn  Zn4  1  0.43979483  0.99775745  0.93938089  1  1.297645  0  0.735866  0.977111  0  2.065826  0
Zn  Zn5  1  0.56020366  0.00224261  0.06062197  1  1.300486  0  0.735868  0.977096  0  2.06588  0
H  H6  1  0.58953680  0.90499306  0.79701249  1  0.008604  0  0.087961  0.083058  0  0.98406  0
H  H7  1  0.41034504  0.09500082  0.20286584  1  0.009587  0  0.087881  0.082831  0  0.984175  0
H  H8  1  0.19866252  0.40125779  0.09939487  1  0.019907  0  0.092291  0.093828  0  0.986162  0
H  H9  1  0.80141196  0.59881892  0.90059878  1  0.018093  0  0.092187  0.093698  0  0.986164  0
H  H10  1  0.27080939  0.50692254  0.12869990  1  0.046958  0  0.093456  0.095127  0  0.977399  0
H  H11  1  0.72924215  0.49318681  0.87135183  1  0.043913  0  0.093305  0.094956  0  0.977171  0
H  H12  1  0.38144164  0.51546342  0.24233021  1  0.025607  0  0.094249  0.09713  0  0.979554  0
H  H13  1  0.61860693  0.48464455  0.75772347  1  0.026725  0  0.094454  0.097432  0  0.979739  0
H  H14  1  0.31146326  0.40590371  0.20623659  1  0.018351  0  0.090155  0.086142  0  0.982331  0
H  H15  1  0.68861508  0.59417542  0.79375575  1  0.017895  0  0.090297  0.086392  0  0.981997  0
H  H16  1  0.10379174  0.37537355  0.16016038  1  0.056019  0  0.100929  0.071609  0  0.964195  0
H  H17  1  0.89623472  0.62458827  0.83977071  1  0.062759  0  0.100824  0.071443  0  0.96434  0
H  H18  1  0.20797809  0.37151206  0.26569051  1  0.046923  0  0.095334  0.104607  0  0.97264  0
H  H19  1  0.79204841  0.62843871  0.73422817  1  0.047543  0  0.095405  0.104705  0  0.972996  0
H  H20  1  0.25259565  0.78855538  0.13476514  1  0.01021  0  0.095297  0.097239  0  0.974093  0
H  H21  1  0.74736185  0.21145843  0.86521426  1  0.01079  0  0.095351  0.097343  0  0.97402  0
H  H22  1  0.16678083  0.78881142  0.05992261  1  0.056791  0  0.099347  0.109383  0  0.971664  0
H  H23  1  0.83318088  0.21117677  0.94002222  1  0.05624  0  0.099502  0.109708  0  0.97137  0
H  H24  1  0.26232837  0.88668510  0.04061447  1  0.026455  0  0.098868  0.101866  0  0.96999  0
H  H25  1  0.73765145  0.11330559  0.95934861  1  0.027303  0  0.09889  0.101981  0  0.969944  0
H  H26  1  0.34966753  0.89465643  0.12373762  1  0.032077  0  0.098784  0.10294  0  0.974015  0
H  H27  1  0.65030376  0.10534674  0.87624568  1  0.031183  0  0.098782  0.102874  0  0.974307  0
H  H28  1  0.59204895  0.79735421  0.69123148  1  0.044959  0  0.091892  0.096503  0  0.982612  0
H  H29  1  0.40781802  0.20263564  0.30863512  1  0.043799  0  0.091744  0.096199  0  0.982558  0
H  H30  1  0.29774443  0.67982961  0.08567504  1  0.064885  0  0.103405  0.082198  0  0.959965  0
H  H31  1  0.70226162  0.32022169  0.91437021  1  0.065039  0  0.103359  0.082428  0  0.959888  0
H  H32  1  0.39684970  0.79496731  0.09471142  1  0.113535  0  0.106435  0.098632  0  0.967903  0
H  H33  1  0.60315391  0.20505603  0.90530513  1  0.113862  0  0.106433  0.098744  0  0.96761  0
H  H34  1  0.13535535  0.61271534  0.86068505  1  0.116222  0  0.092324  0.115995  0  1.010303  0
H  H35  1  0.86467866  0.38725965  0.13932236  1  0.117033  0  0.092454  0.116259  0  1.010051  0
H  H36  1  0.09815946  0.68567847  0.89332870  1  0.051622  0  0.093529  0.106241  0  0.985027  0
H  H37  1  0.90183185  0.31426754  0.10662459  1  0.050737  0  0.09355  0.106382  0  0.984855  0
H  H38  1  0.20449810  0.79148654  0.89280200  1  0.085677  0  0.105311  0.08531  0  0.962626  0
H  H39  1  0.79549369  0.20848076  0.10717152  1  0.085192  0  0.105306  0.085317  0  0.962377  0
H  H40  1  0.38967422  0.70341189  0.79178522  1  0.046977  0  0.086729  0.099036  0  1.008744  0
H  H41  1  0.61043552  0.29659030  0.20833696  1  0.048466  0  0.086784  0.099076  0  1.008826  0
H  H42  1  0.38549188  0.59827016  0.67860778  1  0.089512  0  0.105106  0.085152  0  0.963296  0
H  H43  1  0.61459973  0.40171880  0.32150854  1  0.091149  0  0.105059  0.08486  0  0.963398  0
H  H44  1  0.48400314  0.76311214  0.61838488  1  0.04981  0  0.087766  0.090134  0  0.996766  0
H  H45  1  0.51581539  0.23679485  0.38153267  1  0.053556  0  0.087704  0.089918  0  0.997055  0
H  H46  1  0.36201055  0.74960400  0.72652145  1  0.057954  0  0.094731  0.11401  0  0.996149  0
H  H47  1  0.63797410  0.25031936  0.27355321  1  0.056549  0  0.094533  0.113581  0  0.996154  0
H  H48  1  0.47813474  0.86395877  0.72663927  1  0.045316  0  0.093174  0.09755  0  0.981615  0
H  H49  1  0.52171122  0.13595985  0.27329718  1  0.045076  0  0.093215  0.09764  0  0.981711  0
H  H50  1  0.62406312  0.72678433  0.78083614  1  0.002288  0  0.094235  0.093504  0  0.977104  0
H  H51  1  0.37599983  0.27332487  0.21911510  1  0.002716  0  0.094183  0.093419  0  0.977354  0
H  H52  1  0.53834423  0.64849838  0.77883842  1  0.041155  0  0.094477  0.094699  0  0.978598  0
H  H53  1  0.46181290  0.35160611  0.22121257  1  0.040875  0  0.094334  0.094528  0  0.978181  0
H  H54  1  0.55044334  0.76079538  0.89389663  1  0.033199  0  0.089897  0.0959  0  0.986119  0
H  H55  1  0.44971327  0.23931375  0.10614653  1  0.033067  0  0.089948  0.09593  0  0.986195  0
H  H56  1  0.63140727  0.83892632  0.89135237  1  0.013714  0  0.090686  0.090469  0  0.979777  0
H  H57  1  0.36866231  0.16118565  0.10860539  1  0.015009  0  0.090641  0.090509  0  0.97948  0
H  H58  1  0.21817960  0.62068049  0.29386252  1  0.069089  0  0.090304  0.097903  0  0.999661  0
H  H59  1  0.78175621  0.37926705  0.70615932  1  0.070058  0  0.090235  0.097953  0  0.999596  0
H  H60  1  0.28693836  0.63732702  0.24911358  1  -0.016207  0  0.089173  0.087381  0  0.97568  0
H  H61  1  0.71303328  0.36270268  0.75095649  1  -0.016951  0  0.089176  0.08718  0  0.975653  0
H  H62  1  0.38984047  0.63684076  0.36102989  1  0.050125  0  0.092485  0.096081  0  0.983914  0
H  H63  1  0.61012439  0.36317720  0.63903562  1  0.049265  0  0.092376  0.095991  0  0.983889  0
H  H64  1  0.31796408  0.61381974  0.40179983  1  0.042266  0  0.086677  0.089405  0  1.001668  0
H  H65  1  0.68196195  0.38610843  0.59821028  1  0.043118  0  0.086466  0.089148  0  1.001689  0
H  H66  1  0.21327803  0.45702462  0.34787034  1  0.064727  0  0.095461  0.110786  0  0.994405  0
H  H67  1  0.78669250  0.54286905  0.65205820  1  0.066197  0  0.095472  0.110701  0  0.994332  0
C  C68  1  0.11947622  0.62227520  0.00285483  1  1.56496  0  0.22372  0.594808  0  4.080278  0
C  C69  1  0.88052242  0.37772372  0.99714608  1  1.564904  0  0.223712  0.594742  0  4.080162  0
C  C70  1  0.24374325  0.46762802  0.15484938  1  -0.009548  0  -0.158416  -0.171174  0  3.863839  0
C  C71  1  0.75630396  0.53244185  0.84516648  1  -0.003385  0  -0.158207  -0.170814  0  3.863205  0
C  C72  1  0.19220663  0.50312764  0.19065698  1  0.034215  0  -0.017599  -0.014377  0  3.798361  0
C  C73  1  0.80779830  0.49687538  0.80934522  1  0.032868  0  -0.017583  -0.014576  0  3.798353  0
C  C74  1  0.30988477  0.49980106  0.31068990  1  0.051756  0  -0.016903  0.033462  0  3.814036  0
C  C75  1  0.69011562  0.50019316  0.68930318  1  0.054146  0  -0.01694  0.033298  0  3.814146  0
C  C76  1  0.21871961  0.43805457  0.28879041  1  -0.02095  0  -0.164472  -0.234924  0  3.874106  0
C  C77  1  0.78127954  0.56189149  0.71115375  1  -0.022848  0  -0.164643  -0.235136  0  3.874274  0
C  C78  1  0.31676842  0.47043258  0.22715676  1  -0.015622  0  -0.157962  -0.174259  0  3.860205  0
C  C79  1  0.68327661  0.52963442  0.77285583  1  -0.018245  0  -0.158239  -0.174896  0  3.860405  0
C  C80  1  0.22386610  0.78081048  0.06937242  1  0.000501  0  -0.162733  -0.183036  0  3.893912  0
C  C81  1  0.77610572  0.21918981  0.93060175  1  0.000549  0  -0.163016  -0.183679  0  3.89398  0
C  C82  1  0.28885699  0.84847545  0.06121326  1  -0.014235  0  -0.152984  -0.173666  0  3.85386  0
C  C83  1  0.71112096  0.15152210  0.93876417  1  -0.014324  0  -0.152932  -0.173662  0  3.854033  0
C  C84  1  0.27320952  0.67476400  0.02129946  1  0.128721  0  -0.04213  0.038205  0  3.723471  0
C  C85  1  0.72680036  0.32525742  0.97873536  1  0.128365  0  -0.042074  0.037757  0  3.723867  0
C  C86  1  0.15626186  0.67844708  0.90921330  1  -0.05433  0  -0.167642  -0.2411  0  3.860382  0
C  C87  1  0.84374203  0.32152331  0.09076869  1  -0.054379  0  -0.167855  -0.241652  0  3.860213  0
C  C88  1  0.19244579  0.68781872  0.00044749  1  0.022036  0  -0.015296  0.00512  0  3.776408  0
C  C89  1  0.80754913  0.31217936  0.99954820  1  0.022594  0  -0.01522  0.00558  0  3.776165  0
C  C90  1  0.12206124  0.50293475  0.11975073  1  1.535156  0  0.223177  0.590042  0  4.102309  0
C  C91  1  0.87794024  0.49706929  0.88025473  1  1.535764  0  0.223029  0.58991  0  4.10231  0
C  C92  1  0.31135889  0.80264416  0.99271662  1  0.035289  0  -0.021371  -0.043276  0  3.794261  0
C  C93  1  0.68863893  0.19735212  0.00728037  1  0.035792  0  -0.021383  -0.043341  0  3.794098  0
C  C94  1  0.34664624  0.75028536  0.02610170  1  -0.042412  0  -0.069227  -0.001428  0  3.649846  0
C  C95  1  0.65335827  0.24972680  0.97391551  1  -0.042512  0  -0.069241  -0.001483  0  3.649742  0
C  C96  1  0.22544315  0.74694731  0.90532624  1  0.119648  0  -0.044647  0.085374  0  3.750955  0
C  C97  1  0.77456149  0.25303264  0.09466292  1  0.119421  0  -0.044665  0.085484  0  3.750833  0
C  C98  1  0.50083851  0.81013207  0.81175656  1  0.051923  0  -0.015386  0.034829  0  3.803797  0
C  C99  1  0.49917398  0.18988171  0.18824499  1  0.051739  0  -0.015379  0.034697  0  3.803976  0
C  C100  1  0.49761410  0.62028925  0.61703570  1  1.553317  0  0.224001  0.594857  0  4.117684  0
C  C101  1  0.50240166  0.37973268  0.38295996  1  1.553259  0  0.22412  0.59461  0  4.117623  0
C  C102  1  0.38063167  0.50013912  0.38050149  1  1.543499  0  0.229055  0.597618  0  4.088198  0
C  C103  1  0.61938899  0.49987558  0.61949156  1  1.542715  0  0.229042  0.597572  0  4.088285  0
C  C104  1  0.50012684  0.12001697  0.11857771  1  1.53527  0  0.229971  0.600177  0  4.075338  0
C  C105  1  0.49988132  0.87999095  0.88142644  1  1.535333  0  0.230039  0.600351  0  4.075278  0
C  C106  1  0.37977258  0.87732664  0.99568885  1  1.578727  0  0.219225  0.594212  0  4.130471  0
C  C107  1  0.62022210  0.12267157  0.00430749  1  1.578716  0  0.219234  0.5943  0  4.130182  0
C  C108  1  0.40637584  0.65982718  0.67845075  1  0.093679  0  -0.038816  0.09145  0  3.723435  0
C  C109  1  0.59364677  0.34013931  0.32161865  1  0.093159  0  -0.038723  0.091748  0  3.723126  0
C  C110  1  0.56006683  0.70891756  0.77610586  1  -0.025026  0  -0.153504  -0.169872  0  3.843562  0
C  C111  1  0.44001766  0.29116568  0.22389430  1  -0.024864  0  -0.153489  -0.16977  0  3.843035  0
C  C112  1  0.52544280  0.84553352  0.75503558  1  -0.037492  0  -0.158946  -0.173993  0  3.855079  0
C  C113  1  0.47445479  0.15443261  0.24489364  1  -0.025789  0  -0.158842  -0.173991  0  3.855248  0
C  C114  1  0.56542085  0.78246015  0.85058565  1  0.007786  0  -0.163562  -0.175696  0  3.876842  0
C  C115  1  0.43466196  0.21762042  0.14941451  1  0.006546  0  -0.163443  -0.175594  0  3.876664  0
C  C116  1  0.40867294  0.72981832  0.75286473  1  -0.009082  0  -0.164153  -0.235787  0  3.835511  0
C  C117  1  0.59135892  0.27015046  0.24720402  1  -0.009214  0  -0.163968  -0.235418  0  3.835224  0
C  C118  1  0.49636725  0.69092363  0.68584892  1  0.047363  0  -0.019327  -0.017448  0  3.812279  0
C  C119  1  0.50362509  0.30907498  0.31414612  1  0.046324  0  -0.019345  -0.017256  0  3.812222  0
C  C120  1  0.52666166  0.77591943  0.68311056  1  -0.028893  0  -0.166457  -0.177506  0  3.881794  0
C  C121  1  0.47322278  0.22404530  0.31681150  1  -0.0435  0  -0.16624  -0.176672  0  3.881384  0
C  C122  1  0.25530531  0.59487448  0.27038514  1  0.011338  0  -0.164868  -0.172519  0  3.875699  0
C  C123  1  0.74466062  0.40511503  0.72964515  1  0.010997  0  -0.164705  -0.17221  0  3.875084  0
C  C124  1  0.32338746  0.59277302  0.34259852  1  -0.039908  0  -0.160724  -0.177269  0  3.849188  0
C  C125  1  0.67657596  0.40720798  0.65742786  1  -0.03945  0  -0.160399  -0.176731  0  3.848461  0
C  C126  1  0.14872574  0.44005462  0.21831533  1  0.08756  0  -0.037626  0.084797  0  3.72848  0
C  C127  1  0.85127513  0.55989407  0.78163339  1  0.081005  0  -0.037461  0.085399  0  3.727942  0
Br  Br128  1  0.41525223  0.71499005  0.97699130  1  -0.105644  0  -0.033443  -0.126241  0  1.426519  0
Br  Br129  1  0.58475691  0.28501863  0.02303634  1  -0.105924  0  -0.033444  -0.126268  0  1.426568  0
Cl  Cl130  1  0.23713755  0.69605548  0.81300725  1  -0.259466  0  -0.064196  -0.144128  0  1.398648  0
Cl  Cl131  1  0.76288888  0.30392846  0.18699625  1  -0.259228  0  -0.064224  -0.14416  0  1.398567  0
Cl  Cl132  1  0.24776814  0.56847488  0.94858242  1  -0.22994  0  -0.057026  -0.121588  0  1.498098  0
Cl  Cl133  1  0.75227020  0.43154026  0.05149936  1  -0.230217  0  -0.057032  -0.121567  0  1.498296  0
Cl  Cl134  1  0.32457601  0.63150676  0.57267693  1  -0.286728  0  -0.071755  -0.169307  0  1.326585  0
Cl  Cl135  1  0.67535425  0.36837033  0.42739713  1  -0.287343  0  -0.07183  -0.169418  0  1.326445  0
Cl  Cl136  1  0.07979158  0.46743690  0.25678933  1  -0.267303  0  -0.057634  -0.145846  0  1.359476  0
Cl  Cl137  1  0.92016882  0.53244441  0.74313921  1  -0.268027  0  -0.057762  -0.146082  0  1.359133  0
O  O138  1  0.09725927  0.65377443  0.05771783  1  -1.153328  0  -0.311999  -0.5352  0  2.28342  0
O  O139  1  0.90275255  0.34622372  0.94229481  1  -1.153139  0  -0.311987  -0.535192  0  2.283294  0
O  O140  1  0.55422766  0.09538284  0.14582239  1  -1.151127  0  -0.313234  -0.542468  0  2.297548  0
O  O141  1  0.44577438  0.90461766  0.85418307  1  -1.151193  0  -0.313189  -0.542551  0  2.297785  0
O  O142  1  0.35182700  0.90382713  0.94411815  1  -1.151334  0  -0.312293  -0.546156  0  2.307815  0
O  O143  1  0.64816785  0.09617202  0.05588080  1  -1.151445  0  -0.312262  -0.546159  0  2.307681  0
O  O144  1  0.45842793  0.91070192  0.05361424  1  -1.16843  0  -0.316551  -0.558399  0  2.337884  0
O  O145  1  0.54156797  0.08929660  0.94638340  1  -1.16836  0  -0.316561  -0.558415  0  2.33772  0
O  O146  1  0.08468229  0.54191879  0.94879606  1  -1.155997  0  -0.311231  -0.556917  0  2.376298  0
O  O147  1  0.91530722  0.45807948  0.05119441  1  -1.156049  0  -0.311227  -0.556913  0  2.376357  0
O  O148  1  0.10112476  0.56085459  0.14424262  1  -1.145733  0  -0.308811  -0.541116  0  2.342064  0
O  O149  1  0.89886643  0.43913929  0.85576481  1  -1.146391  0  -0.308857  -0.541119  0  2.342013  0
O  O150  1  0.08879380  0.44407380  0.04083540  1  -1.153824  0  -0.316369  -0.553413  0  2.297225  0
O  O151  1  0.91121516  0.55593576  0.95916811  1  -1.153873  0  -0.316229  -0.553332  0  2.297118  0
O  O152  1  0.54909063  0.64508359  0.58929572  1  -1.150857  0  -0.31454  -0.54734  0  2.298008  0
O  O153  1  0.45089206  0.35491879  0.41070259  1  -1.150391  0  -0.314621  -0.547522  0  2.29657  0
O  O154  1  0.44969700  0.54181844  0.59509542  1  -1.162967  0  -0.316679  -0.558931  0  2.315453  0
O  O155  1  0.55030349  0.45816927  0.40490353  1  -1.163195  0  -0.316712  -0.558663  0  2.316918  0
O  O156  1  0.45889912  0.55248262  0.40538667  1  -1.162943  0  -0.316703  -0.550265  0  2.295265  0
O  O157  1  0.54109191  0.44750624  0.59460120  1  -1.16227  0  -0.316798  -0.550371  0  2.293814  0
O  O158  1  0.35744001  0.44839071  0.40851312  1  -1.152597  0  -0.312391  -0.546677  0  2.301711  0
O  O159  1  0.64255833  0.55160464  0.59149170  1  -1.152626  0  -0.312268  -0.546473  0  2.303211  0
O  O160  1  0.44701556  0.09041244  0.03869665  1  -1.156091  0  -0.312403  -0.551579  0  2.315797  0
O  O161  1  0.55299156  0.90959292  0.96130881  1  -1.155988  0  -0.312476  -0.551655  0  2.315566  0
