# generated using pymatgen
data_MnH16C19N3O5
_symmetry_space_group_name_H-M   'P 1'
_cell_length_a   8.37959232
_cell_length_b   11.57192368
_cell_length_c   18.53649496
_cell_angle_alpha   102.55904596
_cell_angle_beta   89.99969688
_cell_angle_gamma   90.00018436
_symmetry_Int_Tables_number   1
_chemical_formula_structural   MnH16C19N3O5
_chemical_formula_sum   'Mn4 H64 C76 N12 O20'
_cell_volume   1754.43837204
_cell_formula_units_Z   4
loop_
 _symmetry_equiv_pos_site_id
 _symmetry_equiv_pos_as_xyz
  1  'x, y, z'
loop_
 _atom_site_type_symbol
 _atom_site_label
 _atom_site_symmetry_multiplicity
 _atom_site_fract_x
 _atom_site_fract_y
 _atom_site_fract_z
 _atom_site_occupancy
 _atom_site_pbe_bader_charge
 _atom_site_pbe_bader_spin_density
 _atom_site_pbe_cm5_charge
 _atom_site_pbe_ddec_charge
 _atom_site_pbe_ddec_spin_density
 _atom_site_pbe_ddec_sum_bond_order
 _atom_site_pbe_magmom
Mn  Mn0  1  0.79494786  0.93785800  0.16794796  1  1.532436  4.487112  0.610602  0.936398  4.63441  2.404621  4.423
Mn  Mn1  1  0.70504563  0.93785883  0.66795185  1  1.532605  4.487033  0.610596  0.936297  4.634434  2.40488  4.423
Mn  Mn2  1  0.20503755  0.06214339  0.83204700  1  1.532625  4.487059  0.61056  0.936333  4.634528  2.404816  4.423
Mn  Mn3  1  0.29494814  0.06214785  0.33203950  1  1.532849  4.487014  0.610643  0.936483  4.634472  2.404549  4.423
H  H4  1  0.52545772  0.88713060  0.09763585  1  0.654385  0.001035  0.283225  0.368288  0.001098  0.990344  0.002
H  H5  1  0.97451608  0.88714068  0.59763547  1  0.655403  0.001026  0.283259  0.36824  0.0011  0.990393  0.002
H  H6  1  0.47451576  0.11286994  0.90236547  1  0.654465  0.001036  0.283253  0.368313  0.001099  0.990311  0.002
H  H7  1  0.02548486  0.11286607  0.40236938  1  0.655312  0.001027  0.283255  0.368325  0.001099  0.990288  0.002
H  H8  1  0.45648751  0.96959688  0.17541430  1  0.648391  0.00229  0.294806  0.383994  0.000921  0.96153  0.003
H  H9  1  0.04349677  0.96960184  0.67541320  1  0.648356  0.002291  0.294779  0.383964  0.000922  0.961513  0.003
H  H10  1  0.54348478  0.03040807  0.82458492  1  0.648475  0.00229  0.29478  0.38402  0.000921  0.961475  0.003
H  H11  1  0.95649581  0.03041374  0.32458905  1  0.648489  0.00229  0.294746  0.383955  0.000922  0.961569  0.003
H  H12  1  0.62620509  0.86643135  0.88223780  1  0.07359  0.000841  0.10335  0.106335  7.4e-05  1.037133  0.0
H  H13  1  0.87375938  0.86644219  0.38224067  1  0.074283  0.00084  0.103499  0.106371  7.4e-05  1.037241  0.0
H  H14  1  0.37376243  0.13355323  0.11775653  1  0.073825  0.000841  0.103478  0.106351  7.4e-05  1.037254  0.0
H  H15  1  0.12625229  0.13356630  0.61775901  1  0.074075  0.000841  0.103487  0.106387  7.4e-05  1.037188  0.0
H  H16  1  0.92069215  0.01573973  0.94468418  1  0.117459  0.000733  0.110721  0.135833  -1.2e-05  1.017845  0.0
H  H17  1  0.57927865  0.01575716  0.44468433  1  0.117465  0.000733  0.110812  0.135983  -1.2e-05  1.017855  0.0
H  H18  1  0.07927179  0.98424485  0.05531123  1  0.117343  0.000733  0.11078  0.135946  -1.2e-05  1.017807  0.0
H  H19  1  0.42073422  0.98425139  0.55532453  1  0.117395  0.000733  0.110744  0.135895  -1.2e-05  1.017981  0.0
H  H20  1  0.64236883  0.70598105  0.08193248  1  0.109097  0.001523  0.118086  0.086439  0.000862  1.027005  0.001
H  H21  1  0.85761987  0.70598474  0.58193046  1  0.109197  0.001523  0.118066  0.086413  0.000863  1.027064  0.001
H  H22  1  0.35762136  0.29402564  0.91806157  1  0.109116  0.001524  0.117972  0.086385  0.000863  1.027061  0.001
H  H23  1  0.14237987  0.29402994  0.41806790  1  0.109034  0.001524  0.118073  0.086435  0.000862  1.027064  0.001
H  H24  1  0.62466106  0.49419968  0.08272285  1  0.106785  0.000861  0.105795  0.110359  0.000483  1.034167  0.0
H  H25  1  0.87534461  0.49421142  0.58273049  1  0.106761  0.000861  0.10581  0.110376  0.000483  1.034231  0.0
H  H26  1  0.37533868  0.50580080  0.91726767  1  0.106728  0.000861  0.105811  0.110411  0.000483  1.034147  0.0
H  H27  1  0.12466825  0.50580505  0.41727134  1  0.106816  0.000861  0.105797  0.110366  0.000483  1.034273  0.0
H  H28  1  0.98634845  0.55276085  0.25380668  1  0.083031  0.000848  0.105979  0.112806  0.00048  1.030822  0.0
H  H29  1  0.51365790  0.55277643  0.75381463  1  0.082681  0.000848  0.105931  0.112715  0.00048  1.030947  0.0
H  H30  1  0.01361907  0.44724858  0.74620177  1  0.082876  0.000848  0.106005  0.112803  0.00048  1.030882  0.0
H  H31  1  0.48635616  0.44724360  0.24619038  1  0.082912  0.000848  0.105968  0.112807  0.00048  1.030781  0.0
H  H32  1  0.98870945  0.76378650  0.24488141  1  0.11212  0.001128  0.118549  0.09059  0.000257  1.006429  0.001
H  H33  1  0.51128598  0.76379848  0.74487971  1  0.111993  0.001129  0.118615  0.090653  0.000257  1.006683  0.001
H  H34  1  0.01125568  0.23622470  0.75512727  1  0.112185  0.001128  0.118613  0.090649  0.000257  1.006701  0.001
H  H35  1  0.48871853  0.23622063  0.25512032  1  0.112115  0.001128  0.118577  0.090619  0.000257  1.006486  0.001
H  H36  1  0.65127494  0.11088986  0.07411013  1  0.129109  0.001207  0.116603  0.08863  0.000662  1.034073  0.001
H  H37  1  0.84872081  0.11089976  0.57411381  1  0.129314  0.001207  0.116653  0.088697  0.000662  1.034082  0.001
H  H38  1  0.34871525  0.88911066  0.92588741  1  0.129217  0.001207  0.116634  0.088628  0.000663  1.03406  0.001
H  H39  1  0.15127654  0.88911225  0.42588257  1  0.129256  0.001207  0.116629  0.088616  0.000662  1.034077  0.001
H  H40  1  0.63769478  0.32020804  0.07452222  1  0.065624  0.000873  0.107473  0.116532  0.000483  1.026668  0.0
H  H41  1  0.86231023  0.32022152  0.57452904  1  0.065661  0.000873  0.107485  0.116532  0.000483  1.026605  0.0
H  H42  1  0.36228587  0.67979071  0.92547563  1  0.066058  0.000873  0.107494  0.116657  0.000483  1.026614  0.0
H  H43  1  0.13769309  0.67979316  0.42546986  1  0.065656  0.000873  0.107495  0.116518  0.000483  1.026735  0.0
H  H44  1  0.96991169  0.38224986  0.25876032  1  0.12109  0.000723  0.103701  0.106107  0.000388  1.06321  0.0
H  H45  1  0.53010580  0.38226193  0.75876938  1  0.121179  0.000723  0.103643  0.105955  0.000388  1.063348  0.0
H  H46  1  0.03009282  0.61775240  0.74123314  1  0.121436  0.000723  0.1037  0.106105  0.000388  1.063239  0.0
H  H47  1  0.46990349  0.61775100  0.24123252  1  0.121468  0.000723  0.103677  0.106055  0.000388  1.063222  0.0
H  H48  1  0.96655310  0.16804323  0.25184648  1  0.126162  0.001064  0.119103  0.093276  0.000131  1.036151  0.0
H  H49  1  0.53344443  0.16806059  0.75185246  1  0.126092  0.001065  0.119029  0.09314  0.000132  1.036268  0.0
H  H50  1  0.03345499  0.83195727  0.74814620  1  0.126521  0.001063  0.119117  0.093219  0.000132  1.036148  0.0
H  H51  1  0.46655172  0.83195585  0.24814505  1  0.126473  0.001063  0.1191  0.093207  0.000132  1.03616  0.0
H  H52  1  0.66876084  0.29483712  0.87678076  1  0.085466  0.000571  0.111747  0.083101  0.000214  0.997271  0.0
H  H53  1  0.83126088  0.29485930  0.37676798  1  0.085667  0.000571  0.111822  0.083364  0.000214  0.99705  0.0
H  H54  1  0.33124844  0.70512720  0.12322813  1  0.085863  0.000571  0.11172  0.08319  0.000214  0.997019  0.0
H  H55  1  0.16875676  0.70513497  0.62322009  1  0.085764  0.000571  0.111756  0.083225  0.000214  0.997165  0.0
H  H56  1  0.89737054  0.30383076  0.96119276  1  0.06318  2.7e-05  0.111238  0.12248  -0.000122  1.000117  0.0
H  H57  1  0.60265024  0.30385170  0.46118145  1  0.063903  2.7e-05  0.111223  0.122601  -0.000122  0.999997  0.0
H  H58  1  0.10263397  0.69612826  0.03881920  1  0.063845  2.7e-05  0.111261  0.122634  -0.000122  1.000126  0.0
H  H59  1  0.39737933  0.69614880  0.53881285  1  0.063507  2.7e-05  0.111191  0.122485  -0.000122  0.999952  0.0
H  H60  1  0.92149302  0.68084591  0.96866049  1  0.11196  0.000156  0.10724  0.116299  -8.9e-05  1.021177  0.0
H  H61  1  0.57853171  0.68086773  0.46865638  1  0.111727  0.000156  0.107258  0.116356  -8.9e-05  1.021039  0.0
H  H62  1  0.07852939  0.31911131  0.03134475  1  0.111471  0.000156  0.107313  0.116417  -8.9e-05  1.021084  0.0
H  H63  1  0.42150264  0.31913457  0.53134248  1  0.111551  0.000156  0.107255  0.116349  -8.9e-05  1.021164  0.0
H  H64  1  0.69572352  0.65372046  0.88181625  1  0.093501  0.00016  0.106933  0.074084  0.000111  1.015807  0.0
H  H65  1  0.80430328  0.65374531  0.38181253  1  0.092971  0.00016  0.10681  0.073999  0.000111  1.015774  0.0
H  H66  1  0.30431321  0.34623762  0.11818587  1  0.092791  0.00016  0.106819  0.074014  0.000111  1.015752  0.0
H  H67  1  0.19573465  0.34625345  0.61818585  1  0.093315  0.00016  0.106788  0.073945  0.000111  1.01568  0.0
C  C68  1  0.69161217  0.88108653  0.99854481  1  1.57375  0.009087  0.203318  0.600811  0.008361  4.217695  0.007
C  C69  1  0.80835103  0.88110169  0.49854949  1  1.5744  0.009083  0.203302  0.600816  0.008357  4.218717  0.007
C  C70  1  0.30834699  0.11890159  0.00144892  1  1.574291  0.009086  0.203387  0.601006  0.00836  4.218447  0.007
C  C71  1  0.19166780  0.11890150  0.50145110  1  1.574349  0.009077  0.203229  0.600659  0.008352  4.218893  0.007
C  C72  1  0.71571526  0.90443686  0.92338135  1  -0.110709  0.015163  -0.085051  -0.173358  0.011549  3.917548  0.009
C  C73  1  0.78424175  0.90445639  0.42338290  1  -0.110496  0.01516  -0.085202  -0.173361  0.011547  3.91805  0.009
C  C74  1  0.28424629  0.09554684  0.07661341  1  -0.110092  0.015162  -0.085102  -0.173278  0.011549  3.91772  0.009
C  C75  1  0.21577112  0.09555653  0.57661846  1  -0.109321  0.015157  -0.085111  -0.173272  0.011546  3.917958  0.009
C  C76  1  0.82888212  0.97541957  0.90539137  1  -0.001905  0.005131  -0.087366  -0.201446  0.003591  3.896856  0.002
C  C77  1  0.67108137  0.97544070  0.40539449  1  -0.002993  0.005128  -0.087311  -0.201502  0.003587  3.897465  0.002
C  C78  1  0.17107943  0.02456412  0.09460285  1  -0.002732  0.005131  -0.087426  -0.201663  0.003591  3.897126  0.002
C  C79  1  0.32893030  0.02457226  0.59461281  1  -0.003668  0.005122  -0.087354  -0.201491  0.003582  3.897323  0.002
C  C80  1  0.83445230  0.00342099  0.83087649  1  1.540666  0.026419  0.220507  0.622233  0.025029  4.162224  0.022
C  C81  1  0.66552810  0.00343415  0.33088071  1  1.539675  0.026418  0.220302  0.622018  0.025018  4.162893  0.022
C  C82  1  0.16552476  0.99656625  0.16911820  1  1.539645  0.026432  0.220482  0.622281  0.02503  4.162275  0.022
C  C83  1  0.33447044  0.99658059  0.66912844  1  1.540178  0.026411  0.220465  0.622139  0.025014  4.162658  0.022
C  C84  1  0.71599264  0.66857070  0.11969811  1  0.514112  0.008994  0.049495  0.097467  0.006979  3.939553  0.005
C  C85  1  0.78400262  0.66858136  0.61969773  1  0.513936  0.009003  0.049531  0.097392  0.006984  3.939922  0.005
C  C86  1  0.28399158  0.33143159  0.88029913  1  0.514368  0.008992  0.049683  0.097645  0.006976  3.939609  0.005
C  C87  1  0.21599831  0.33143334  0.38030279  1  0.514213  0.008998  0.049553  0.097619  0.006981  3.939712  0.005
C  C88  1  0.70749316  0.54908369  0.12027294  1  -0.048291  0.003129  -0.083207  -0.174736  0.001848  3.973121  0.001
C  C89  1  0.79251590  0.54909971  0.62027812  1  -0.047898  0.003128  -0.08319  -0.174625  0.001847  3.97308  0.001
C  C90  1  0.29250300  0.45091505  0.87972328  1  -0.048033  0.003127  -0.083183  -0.17477  0.001846  3.973102  0.001
C  C91  1  0.20748980  0.45091766  0.37972653  1  -0.048376  0.003127  -0.08318  -0.174747  0.001845  3.973147  0.001
C  C92  1  0.80568371  0.50187094  0.16795353  1  -0.026774  0.011357  0.008915  0.096465  0.008819  3.969009  0.006
C  C93  1  0.69432101  0.50188771  0.66796444  1  -0.026058  0.011373  0.008922  0.096457  0.008832  3.96881  0.006
C  C94  1  0.19430051  0.49812515  0.83204234  1  -0.026577  0.011357  0.008959  0.096558  0.00882  3.968409  0.006
C  C95  1  0.30568947  0.49812703  0.33204417  1  -0.026333  0.011363  0.008941  0.09654  0.008825  3.968716  0.006
C  C96  1  0.90675178  0.58192685  0.21492691  1  -0.042463  0.003118  -0.081365  -0.168454  0.001778  3.934293  0.001
C  C97  1  0.59325753  0.58194698  0.71493527  1  -0.042504  0.003116  -0.081316  -0.168389  0.001775  3.93435  0.001
C  C98  1  0.09321693  0.41807103  0.78507352  1  -0.042603  0.003116  -0.081414  -0.168458  0.001776  3.934387  0.001
C  C99  1  0.40676011  0.41807305  0.28507081  1  -0.042549  0.003115  -0.081361  -0.168511  0.001775  3.93427  0.001
C  C100  1  0.90856599  0.70029443  0.21071529  1  0.488811  0.008443  0.049852  0.093845  0.006202  3.945859  0.005
C  C101  1  0.59142956  0.70031098  0.71071671  1  0.489045  0.008453  0.049749  0.093748  0.006211  3.946119  0.005
C  C102  1  0.09139794  0.29971055  0.78928932  1  0.488761  0.008441  0.049862  0.093785  0.006202  3.946412  0.005
C  C103  1  0.40858092  0.29970992  0.28928626  1  0.488806  0.008449  0.049838  0.093866  0.006207  3.945931  0.005
C  C104  1  0.72044288  0.17288822  0.11490808  1  0.432642  0.010036  0.049301  0.09709  0.007643  3.944057  0.006
C  C105  1  0.77955148  0.17289714  0.61491395  1  0.432436  0.010033  0.049207  0.096949  0.007641  3.94412  0.006
C  C106  1  0.27954970  0.82711494  0.88508820  1  0.432558  0.010031  0.049211  0.097064  0.007639  3.94436  0.006
C  C107  1  0.22044826  0.82711312  0.38508543  1  0.432407  0.01003  0.049304  0.097162  0.007637  3.94421  0.006
C  C108  1  0.71375308  0.29303888  0.11545343  1  -0.035169  0.002625  -0.082943  -0.173275  0.00131  3.926387  0.001
C  C109  1  0.78625015  0.29304517  0.61546056  1  -0.034995  0.002629  -0.082958  -0.173234  0.001314  3.926454  0.001
C  C110  1  0.28623592  0.70697049  0.88454529  1  -0.035418  0.002625  -0.082953  -0.173511  0.00131  3.926589  0.001
C  C111  1  0.21375078  0.70696687  0.38453906  1  -0.03547  0.002628  -0.082961  -0.173217  0.001312  3.926487  0.001
C  C112  1  0.80531111  0.37380134  0.16673620  1  0.015514  0.011719  0.009527  0.098991  0.009117  3.967516  0.007
C  C113  1  0.69470023  0.37380926  0.66674700  1  0.015064  0.011722  0.00953  0.09893  0.009119  3.967208  0.007
C  C114  1  0.19467908  0.62620535  0.83325785  1  0.015474  0.011718  0.00957  0.099102  0.009115  3.967129  0.007
C  C115  1  0.30531144  0.62620367  0.33325598  1  0.015671  0.011716  0.009479  0.098807  0.009114  3.967365  0.007
C  C116  1  0.89865417  0.32608404  0.21608164  1  0.028929  0.002681  -0.082062  -0.166894  0.001318  3.937197  0.001
C  C117  1  0.60135044  0.32609005  0.71609349  1  0.028607  0.002686  -0.08199  -0.166679  0.001322  3.937213  0.001
C  C118  1  0.10133841  0.67392442  0.78391265  1  0.028229  0.002682  -0.082091  -0.166981  0.001318  3.937287  0.001
C  C119  1  0.39865766  0.67392378  0.28391123  1  0.028265  0.002686  -0.082032  -0.166747  0.001321  3.937146  0.001
C  C120  1  0.89672185  0.20512972  0.21266568  1  0.421906  0.009243  0.047869  0.095749  0.006941  3.930532  0.006
C  C121  1  0.60328227  0.20513835  0.71267194  1  0.421633  0.009238  0.047931  0.095806  0.006937  3.931029  0.006
C  C122  1  0.10327789  0.79487698  0.78732891  1  0.4215  0.009241  0.0478  0.095779  0.00694  3.930774  0.006
C  C123  1  0.39672105  0.79487722  0.28732815  1  0.421528  0.009237  0.047759  0.095652  0.006937  3.930918  0.006
C  C124  1  0.72825902  0.37948193  0.89823828  1  0.501753  0.000434  0.041327  0.09157  0.000304  3.983354  0.0
C  C125  1  0.77176759  0.37950491  0.39822737  1  0.500185  0.000434  0.041124  0.091097  0.000304  3.983416  0.0
C  C126  1  0.27176220  0.62047973  0.10176971  1  0.501071  0.000434  0.041287  0.09147  0.000304  3.98337  0.0
C  C127  1  0.22825840  0.62049469  0.60176465  1  0.501083  0.000434  0.041339  0.091614  0.000304  3.983299  0.0
C  C128  1  0.85709796  0.38506934  0.94632467  1  -0.011984  0.000246  -0.081729  -0.170266  4.1e-05  3.933763  0.0
C  C129  1  0.64292693  0.38509743  0.44631476  1  -0.011445  0.000246  -0.081553  -0.170315  4.2e-05  3.933886  0.0
C  C130  1  0.14291968  0.61488614  0.05368573  1  -0.012123  0.000246  -0.081586  -0.170359  4.2e-05  3.933851  0.0
C  C131  1  0.35710384  0.61490308  0.55368008  1  -0.012136  0.000246  -0.081604  -0.170293  4.2e-05  3.93351  0.0
C  C132  1  0.93229502  0.49429558  0.97386542  1  -0.035381  0.000381  0.006812  0.093315  0.000264  3.983238  0.0
C  C133  1  0.56772764  0.49431736  0.47385700  1  -0.000293  0.000379  0.006757  0.09336  0.000264  3.98322  0.0
C  C134  1  0.06772023  0.50566432  0.02614504  1  -0.000138  0.000379  0.006721  0.093302  0.000264  3.982927  0.0
C  C135  1  0.43230551  0.50568226  0.52613826  1  -0.03506  0.000381  0.006739  0.093271  0.000264  3.983231  0.0
C  C136  1  0.87189386  0.59255512  0.94964780  1  -0.057222  0.000354  -0.0846  -0.172854  0.000238  3.946696  0.0
C  C137  1  0.62813070  0.59258142  0.44963823  1  -0.056964  0.000355  -0.084711  -0.172991  0.000239  3.946881  0.0
C  C138  1  0.12812855  0.40740302  0.05036404  1  -0.056918  0.000355  -0.084798  -0.17318  0.000239  3.946924  0.0
C  C139  1  0.37190603  0.40742087  0.55035901  1  -0.05801  0.000354  -0.084701  -0.173043  0.000239  3.94693  0.0
C  C140  1  0.74330909  0.57786079  0.90106676  1  0.427186  0.000325  0.036012  0.08511  0.000223  4.001061  0.0
C  C141  1  0.75671596  0.57788554  0.40106044  1  0.427596  0.000325  0.03613  0.085082  0.000223  4.00144  0.0
C  C142  1  0.25671690  0.42209909  0.09893992  1  0.427508  0.000325  0.036106  0.085142  0.000223  4.00143  0.0
C  C143  1  0.24332077  0.42211497  0.59893656  1  0.427481  0.000325  0.036164  0.085256  0.000223  4.001068  0.0
N  N144  1  0.81588524  0.74369618  0.16336969  1  -1.271272  0.053616  -0.317618  -0.237237  0.035149  3.483893  0.021
N  N145  1  0.68410866  0.74370223  0.66336570  1  -1.271481  0.053635  -0.317668  -0.237172  0.035155  3.484099  0.021
N  N146  1  0.18409063  0.25631321  0.83663065  1  -1.271381  0.053626  -0.31781  -0.237399  0.035153  3.483986  0.021
N  N147  1  0.31588989  0.25631244  0.33663157  1  -1.271229  0.053637  -0.317715  -0.237415  0.035158  3.483996  0.021
N  N148  1  0.81039796  0.12820720  0.16255639  1  -1.256718  0.052226  -0.319494  -0.255413  0.033588  3.509624  0.017
N  N149  1  0.68959327  0.12822040  0.66256359  1  -1.256488  0.052228  -0.319441  -0.255294  0.033588  3.509645  0.017
N  N150  1  0.18960178  0.87179155  0.83744038  1  -1.256858  0.052227  -0.319438  -0.255314  0.033591  3.509929  0.017
N  N151  1  0.31039931  0.87178986  0.33743633  1  -1.256486  0.052218  -0.319425  -0.255364  0.033594  3.510002  0.017
N  N152  1  0.67044867  0.47374453  0.87542002  1  -1.181228  0.000391  -0.321014  -0.273592  0.000171  3.370802  0.0
N  N153  1  0.82957503  0.47377203  0.37540957  1  -1.180132  0.000391  -0.320989  -0.273327  0.000172  3.370718  0.0
N  N154  1  0.32957613  0.52621712  0.12458743  1  -1.180161  0.000391  -0.321043  -0.273532  0.000172  3.370982  0.0
N  N155  1  0.17045215  0.52622758  0.62458299  1  -1.180263  0.000391  -0.321036  -0.273667  0.000172  3.370708  0.0
O  O156  1  0.80677245  0.89885340  0.04480367  1  -1.212884  0.055716  -0.315283  -0.573199  0.039308  2.261763  0.026
O  O157  1  0.69319126  0.89888163  0.54480910  1  -1.213563  0.05575  -0.315376  -0.573313  0.039312  2.262  0.026
O  O158  1  0.19319387  0.10112941  0.95518988  1  -1.213567  0.055736  -0.31538  -0.573405  0.039307  2.261906  0.026
O  O159  1  0.30682160  0.10112244  0.45519107  1  -1.213698  0.055753  -0.315365  -0.573294  0.039301  2.261953  0.026
O  O160  1  0.55140211  0.84680932  0.01151108  1  -1.169417  0.009907  -0.323861  -0.561995  0.006693  2.144362  0.007
O  O161  1  0.94856415  0.84681759  0.51150945  1  -1.169773  0.009902  -0.323794  -0.56193  0.006688  2.145002  0.007
O  O162  1  0.44856063  0.15319299  0.98848993  1  -1.169757  0.009907  -0.323845  -0.561976  0.006692  2.144983  0.007
O  O163  1  0.05144872  0.15318118  0.48849164  1  -1.169711  0.009896  -0.323755  -0.561858  0.006684  2.144985  0.007
O  O164  1  0.71753489  0.96787987  0.78630480  1  -1.211071  0.070557  -0.312325  -0.573958  0.050827  2.363614  0.035
O  O165  1  0.78244784  0.96789854  0.28630948  1  -1.210578  0.070545  -0.312251  -0.573875  0.050822  2.363659  0.035
O  O166  1  0.28243740  0.03211444  0.21368975  1  -1.210613  0.070582  -0.312318  -0.573982  0.050835  2.363543  0.035
O  O167  1  0.21753997  0.03212148  0.71369445  1  -1.210965  0.070551  -0.3123  -0.573932  0.050824  2.363693  0.035
O  O168  1  0.95139377  0.06189988  0.81414491  1  -1.200517  0.063714  -0.301364  -0.543927  0.044845  2.313251  0.029
O  O169  1  0.54859185  0.06190574  0.31414251  1  -1.199556  0.063711  -0.301367  -0.543865  0.044848  2.313395  0.029
O  O170  1  0.04858806  0.93808560  0.18585278  1  -1.199558  0.063704  -0.301455  -0.544015  0.044854  2.31327  0.029
O  O171  1  0.45139834  0.93810635  0.68586844  1  -1.199793  0.0637  -0.301407  -0.543949  0.04485  2.313554  0.029
O  O172  1  0.54185086  0.91331585  0.15323751  1  -1.323609  0.063863  -0.578692  -0.783494  0.047457  2.20273  0.029
O  O173  1  0.95813077  0.91332237  0.65323670  1  -1.324677  0.06388  -0.578679  -0.783363  0.047461  2.20272  0.029
O  O174  1  0.45812621  0.08669000  0.84676398  1  -1.323881  0.063868  -0.57866  -0.783495  0.047461  2.2027  0.029
O  O175  1  0.04186420  0.08669145  0.34676478  1  -1.324721  0.063883  -0.578647  -0.783522  0.047461  2.202695  0.029
