# generated using pymatgen
data_MnH14C18(N2O5)2
_symmetry_space_group_name_H-M   'P 1'
_cell_length_a   4.93352128
_cell_length_b   11.70773202
_cell_length_c   15.23317393
_cell_angle_alpha   88.13951774
_cell_angle_beta   90.42586030
_cell_angle_gamma   83.77843384
_symmetry_Int_Tables_number   1
_chemical_formula_structural   MnH14C18(N2O5)2
_chemical_formula_sum   'Mn2 H28 C36 N8 O20'
_cell_volume   874.17694400
_cell_formula_units_Z   2
loop_
 _symmetry_equiv_pos_site_id
 _symmetry_equiv_pos_as_xyz
  1  'x, y, z'
loop_
 _atom_site_type_symbol
 _atom_site_label
 _atom_site_symmetry_multiplicity
 _atom_site_fract_x
 _atom_site_fract_y
 _atom_site_fract_z
 _atom_site_occupancy
 _atom_site_hle17_ddec_charge
 _atom_site_hle17_ddec_spin_density
 _atom_site_hle17_ddec_sum_bond_order
 _atom_site_hle17_magmom
 _atom_site_hse06_10hf_ddec_charge
 _atom_site_hse06_10hf_ddec_spin_density
 _atom_site_hse06_10hf_ddec_sum_bond_order
 _atom_site_hse06_10hf_magmom
 _atom_site_hse06_ddec_charge
 _atom_site_hse06_ddec_spin_density
 _atom_site_hse06_ddec_sum_bond_order
 _atom_site_hse06_magmom
 _atom_site_pbe_cm5_charge
 _atom_site_pbe_ddec_charge
 _atom_site_pbe_ddec_spin_density
 _atom_site_pbe_ddec_sum_bond_order
 _atom_site_pbe_magmom
Mn  Mn0  1  0.53925950  0.42508733  0.33261743  1  1.287751  4.802503  1.637233  4.69  1.131735  4.733034  2.124714  4.556  1.191296  4.771682  2.049572  4.613  0.604521  1.085534  4.692876  2.179759  4.499
Mn  Mn1  1  0.46073641  0.57493717  0.66735497  1  1.287949  4.802537  1.637192  4.69  1.131864  4.733074  2.124664  4.556  1.191444  4.771717  2.049516  4.613  0.60459  1.085659  4.692914  2.179709  4.499
H  H2  1  0.89723346  0.99061618  0.24554330  1  0.114729  -1e-06  0.960263  0.0  0.122828  -2.3e-05  1.023107  0.0  0.126232  -1.6e-05  1.021685  0.0  0.104818  0.12041  -2.9e-05  1.024198  0.0
H  H3  1  0.10280661  0.00944255  0.75448709  1  0.114877  -1e-06  0.960187  0.0  0.122921  -2.3e-05  1.023046  0.0  0.126326  -1.6e-05  1.021622  0.0  0.104885  0.120506  -2.9e-05  1.024136  0.0
H  H4  1  0.68669104  0.17546551  0.30470201  1  0.110648  -9.8e-05  0.982917  0.0  0.115946  0.000224  1.052308  0.0  0.120146  0.0001  1.048693  0.0  0.109122  0.112807  0.000349  1.055049  0.0
H  H5  1  0.31339229  0.82454067  0.69533619  1  0.110868  -0.000101  0.983004  0.0  0.116087  0.000223  1.052483  0.0  0.120283  0.0001  1.048883  0.0  0.109211  0.112945  0.000347  1.055224  0.0
H  H6  1  0.14298233  0.98923785  0.45981302  1  0.117543  1e-06  0.975837  0.0  0.124979  7.3e-05  1.041192  0.0  0.129226  4.9e-05  1.037217  0.0  0.109392  0.12192  0.0001  1.04401  0.0
H  H7  1  0.85709889  0.01077092  0.54023365  1  0.117364  1e-06  0.975856  0.0  0.124857  7.3e-05  1.041172  0.0  0.129073  4.9e-05  1.037236  0.0  0.109397  0.121805  0.0001  1.043978  0.0
H  H8  1  0.44971793  0.05151167  0.15087668  1  0.107515  8e-06  0.959489  0.0  0.119811  -1.2e-05  1.016203  0.0  0.122095  -1e-05  1.016188  0.0  0.104991  0.11818  -1.3e-05  1.016271  0.0
H  H9  1  0.55031271  0.94845775  0.84912003  1  0.107648  6e-06  0.959147  0.0  0.119963  -1.2e-05  1.015852  0.0  0.122251  -1e-05  1.015833  0.0  0.105053  0.118321  -1.3e-05  1.015952  0.0
H  H10  1  0.05827925  0.17126269  0.21628266  1  0.103445  -0.000248  0.958199  0.0  0.114449  -0.000239  1.019452  0.0  0.116909  -0.000275  1.018599  0.0  0.108985  0.11265  -0.000195  1.020124  0.0
H  H11  1  0.94173310  0.82870080  0.78372349  1  0.103542  -0.000248  0.958116  0.0  0.114523  -0.00024  1.019404  0.0  0.116996  -0.000275  1.018523  0.0  0.108991  0.112721  -0.000196  1.020077  0.0
H  H12  1  0.04748008  0.41372487  0.99779251  1  0.122414  -3.9e-05  0.953367  0.0  0.129364  8.3e-05  1.019539  0.0  0.133645  4.2e-05  1.015815  0.0  0.110444  0.126234  0.00013  1.022353  0.0
H  H13  1  0.95245112  0.58621743  0.00219746  1  0.122379  -3.7e-05  0.953371  0.0  0.129305  8.2e-05  1.019606  0.0  0.133581  4.3e-05  1.015897  0.0  0.110466  0.126179  0.00013  1.022412  0.0
H  H14  1  0.16726670  0.78511392  0.44952372  1  0.339962  -8.7e-05  0.906335  0.0  0.315282  -1.7e-05  0.976368  0.0  0.325677  -6e-05  0.96698  0.0  0.316226  0.307968  3.2e-05  0.982994  0.0
H  H15  1  0.83262506  0.21491271  0.55047727  1  0.339662  -8.7e-05  0.906729  0.0  0.315037  -1.7e-05  0.976648  0.0  0.325442  -5.9e-05  0.967259  0.0  0.31624  0.307726  3.2e-05  0.983269  0.0
H  H16  1  0.90560150  0.77978868  0.24137927  1  0.32226  -3.1e-05  0.906277  0.0  0.296112  -2e-06  0.979931  0.0  0.306516  -1.8e-05  0.970792  0.0  0.309887  0.288814  1.4e-05  0.986333  0.0
H  H17  1  0.09440589  0.22021864  0.75864804  1  0.322494  -3.2e-05  0.90627  0.0  0.296388  -2e-06  0.97984  0.0  0.306798  -1.7e-05  0.970688  0.0  0.309967  0.289087  1.4e-05  0.986248  0.0
H  H18  1  0.79410335  0.03388136  0.03947272  1  0.311445  -0.0  0.914028  0.0  0.289752  3e-06  0.980183  0.0  0.299955  2e-06  0.97147  0.0  0.307192  0.282577  7e-06  0.986296  0.0
H  H19  1  0.20593428  0.96611896  0.96052510  1  0.311361  -0.0  0.91384  0.0  0.289803  3e-06  0.97988  0.0  0.3  2e-06  0.971186  0.0  0.30717  0.282629  7e-06  0.985987  0.0
H  H20  1  0.41111846  0.38598223  0.89237963  1  0.334282  -8.4e-05  0.875934  0.0  0.312335  -3.7e-05  0.941417  0.0  0.322125  -7.2e-05  0.932835  0.0  0.320651  0.305355  1.5e-05  0.947618  0.0
H  H21  1  0.58883025  0.61397976  0.10760777  1  0.334409  -8.3e-05  0.875866  0.0  0.312357  -3.7e-05  0.941466  0.0  0.322144  -7.3e-05  0.932895  0.0  0.320623  0.30537  1.5e-05  0.947669  0.0
H  H22  1  0.02262129  0.38291922  0.42412265  1  0.423215  -0.000226  0.882491  0.001  0.392679  0.000824  0.946161  0.002  0.404117  0.00043  0.929428  0.002  0.297406  0.384535  0.001183  0.958034  0.002
H  H23  1  0.97729744  0.61708922  0.57581897  1  0.423252  -0.000225  0.882474  0.001  0.392667  0.000825  0.946249  0.002  0.404111  0.000431  0.929503  0.002  0.297342  0.384521  0.001184  0.958128  0.002
H  H24  1  0.36043408  0.48146267  0.17837186  1  0.41064  0.000135  0.883707  0.0  0.379157  0.000918  0.961639  0.001  0.390478  0.000635  0.945186  0.001  0.295372  0.3711  0.001189  0.971703  0.001
H  H25  1  0.63970854  0.51847026  0.82162473  1  0.410874  0.000137  0.883542  0.0  0.379246  0.000919  0.961526  0.001  0.390572  0.000636  0.945064  0.001  0.295285  0.371184  0.00119  0.971718  0.001
H  H26  1  0.79510890  0.42203452  0.49471127  1  0.42566  -9.8e-05  0.873577  0.002  0.394856  0.000699  0.936919  0.003  0.405895  0.000344  0.920711  0.002  0.299381  0.386958  0.00103  0.948487  0.003
H  H27  1  0.20465594  0.57798309  0.50523533  1  0.425577  -9.7e-05  0.873782  0.002  0.394875  0.000698  0.93694  0.003  0.405893  0.000343  0.920763  0.002  0.299356  0.386984  0.001029  0.948498  0.003
H  H28  1  0.10152540  0.53761214  0.23339446  1  0.437002  0.000243  0.849548  0.001  0.403692  0.00101  0.921825  0.002  0.414184  0.000647  0.90648  0.002  0.302468  0.39618  0.001362  0.932783  0.003
H  H29  1  0.89849426  0.46235817  0.76659177  1  0.437011  0.000246  0.849726  0.002  0.403658  0.001013  0.921976  0.002  0.414149  0.00065  0.906636  0.002  0.302507  0.396144  0.001366  0.932939  0.003
C  C30  1  0.43225799  0.68164789  0.37504698  1  0.462817  0.000419  3.792871  0.001  0.414384  0.002053  4.076303  0.002  0.440845  0.001162  4.074303  0.002  0.256913  0.396391  0.003038  4.077284  0.003
C  C31  1  0.56770111  0.31836476  0.62497382  1  0.462969  0.00042  3.792445  0.001  0.414579  0.002054  4.075778  0.002  0.44102  0.001163  4.07386  0.002  0.256977  0.396583  0.003041  4.076767  0.003
C  C32  1  0.65715713  0.68116260  0.30919341  1  0.455561  0.000678  3.81411  0.001  0.407979  0.002112  4.101762  0.002  0.434621  0.001289  4.09923  0.001  0.250639  0.389942  0.003096  4.103034  0.003
C  C33  1  0.34276550  0.31886306  0.69081143  1  0.455558  0.000666  3.814124  0.001  0.40795  0.002111  4.101695  0.002  0.434598  0.001284  4.099173  0.001  0.250468  0.389917  0.003093  4.102974  0.003
C  C34  1  0.63577640  0.88763252  0.31825813  1  0.182356  0.000521  3.778226  0.001  0.167185  0.000927  4.033388  0.001  0.173294  0.00069  4.055866  0.001  0.104585  0.163143  0.001281  4.018199  0.001
C  C35  1  0.36423625  0.11238595  0.68176557  1  0.182466  0.000524  3.778775  0.001  0.167506  0.000926  4.033632  0.001  0.173631  0.00069  4.056089  0.001  0.104679  0.163449  0.001281  4.018463  0.001
C  C36  1  0.73240574  0.99191727  0.29284609  1  -0.163644  -0.00042  3.735047  0.0  -0.18259  -0.000123  3.996357  0.0  -0.187572  -0.000271  4.015812  0.0  -0.096803  -0.179324  -3.5e-05  3.983172  0.0
C  C37  1  0.26764600  0.00811738  0.70718293  1  -0.16396  -0.000421  3.73528  0.0  -0.182811  -0.000124  3.996379  0.0  -0.187797  -0.000272  4.015834  0.0  -0.096988  -0.179533  -3.5e-05  3.983172  0.0
C  C38  1  0.61491451  0.09453612  0.32649935  1  -0.053519  0.000321  3.717723  0.0  -0.083988  0.00071  3.977635  0.001  -0.082711  0.000494  3.997088  0.0  -0.080807  -0.084553  0.001015  3.964459  0.001
C  C39  1  0.38513972  0.90548048  0.67353409  1  -0.053696  0.000324  3.71773  0.0  -0.084289  0.000711  3.977696  0.001  -0.083014  0.000495  3.997153  0.0  -0.080913  -0.084848  0.001017  3.96451  0.001
C  C40  1  0.40073350  0.09456869  0.38687392  1  -0.070481  -0.000416  3.760071  0.0  -0.050535  8.6e-05  3.999552  0.0  -0.059901  -0.000194  4.023643  0.0  -0.021526  -0.044583  0.000364  3.983512  0.0
C  C41  1  0.59932312  0.90545563  0.61316192  1  -0.070285  -0.000408  3.760423  0.0  -0.050126  8.3e-05  3.999637  0.0  -0.059484  -0.000194  4.023719  0.0  -0.021441  -0.044173  0.000363  3.983587  0.0
C  C42  1  0.30664111  0.99052484  0.41270601  1  -0.139959  0.000969  3.725239  0.001  -0.172686  0.001479  3.979396  0.001  -0.172742  0.001134  3.999294  0.001  -0.081901  -0.172368  0.002025  3.965947  0.002
C  C43  1  0.69336579  0.00949192  0.58731645  1  -0.140051  0.000962  3.72522  0.001  -0.172801  0.00148  3.979397  0.001  -0.172831  0.001132  3.999312  0.001  -0.082133  -0.172485  0.002025  3.965942  0.002
C  C44  1  0.42098003  0.88758675  0.37877585  1  0.161421  -0.000129  3.7927  0.0  0.151128  0.000238  4.045515  0.0  0.152614  3.1e-05  4.069779  0.0  0.099167  0.1499  0.000389  4.029247  0.0
C  C45  1  0.57898844  0.11244389  0.62123523  1  0.161701  -0.00013  3.792853  0.0  0.151104  0.000238  4.045915  0.0  0.152602  2.9e-05  4.070175  0.0  0.099375  0.149877  0.000388  4.029655  0.0
C  C46  1  0.26496036  0.20191674  0.42606575  1  0.673828  0.004152  3.881058  0.005  0.623187  0.007182  4.174872  0.008  0.658623  0.005281  4.166075  0.006  0.220563  0.598718  0.009274  4.180263  0.01
C  C47  1  0.73512384  0.79811692  0.57395989  1  0.673577  0.004149  3.880965  0.005  0.622874  0.007181  4.174763  0.008  0.658316  0.00528  4.165969  0.006  0.220398  0.598401  0.009272  4.180151  0.01
C  C48  1  0.82552314  0.13806786  0.93004769  1  0.432222  0.000152  3.85018  0.0  0.389078  0.000334  4.140036  0.0  0.414421  0.000196  4.138393  0.0  0.237269  0.371968  0.000695  4.140762  0.0
C  C49  1  0.17447024  0.86192317  0.06995320  1  0.431835  0.000156  3.850257  0.0  0.389001  0.000332  4.139884  0.0  0.414346  0.000198  4.138244  0.0  0.23733  0.371877  0.000694  4.140641  0.0
C  C50  1  0.70172367  0.24650902  0.88245525  1  0.436228  0.000128  3.825868  0.0  0.393948  0.000414  4.112784  0.0  0.419272  0.000219  4.111188  0.0  0.237726  0.376895  0.000918  4.113529  0.001
C  C51  1  0.29824421  0.75346922  0.11754345  1  0.436871  0.00012  3.825656  0.0  0.394362  0.000414  4.112771  0.0  0.41969  0.000216  4.111182  0.0  0.237717  0.377293  0.000915  4.113545  0.001
C  C52  1  0.47464796  0.16802433  0.03969359  1  0.163539  0.000547  3.797399  0.001  0.149782  0.000808  4.052245  0.001  0.153781  0.000671  4.076258  0.001  0.099757  0.147053  0.00108  4.036176  0.001
C  C53  1  0.52537869  0.83195714  0.96031726  1  0.163265  0.000542  3.797772  0.001  0.149527  0.000808  4.05271  0.001  0.153521  0.000668  4.076732  0.001  0.09978  0.146797  0.00108  4.036631  0.001
C  C54  1  0.36007810  0.13058600  0.11780965  1  -0.143883  -0.000791  3.73442  0.0  -0.16402  -0.000453  3.994588  0.0  -0.167705  -0.000612  4.015127  0.0  -0.094014  -0.161538  -0.000377  3.980777  0.0
C  C55  1  0.63996271  0.86939714  0.88220702  1  -0.143761  -0.000773  3.734427  0.0  -0.163903  -0.000453  3.994615  0.0  -0.167589  -0.000607  4.015165  0.0  -0.094029  -0.161429  -0.000376  3.980803  0.0
C  C56  1  0.14144966  0.19652366  0.15362849  1  -0.039985  0.000375  3.708191  0.001  -0.07168  0.000576  3.967198  0.001  -0.070773  0.000404  3.986527  0.001  -0.080654  -0.072307  0.000886  3.954381  0.001
C  C57  1  0.85856365  0.80344756  0.84638992  1  -0.040162  0.000366  3.708907  0.001  -0.071904  0.000576  3.96791  0.001  -0.071005  0.0004  3.987259  0.001  -0.080748  -0.072525  0.000885  3.955082  0.001
C  C58  1  0.02575239  0.29886666  0.11109172  1  -0.047083  0.000432  3.743517  0.001  -0.030493  0.000293  3.989095  0.0  -0.037431  -0.00011  4.011  0.0  -0.01709  -0.026161  0.000641  3.974795  0.001
C  C59  1  0.97426803  0.70110366  0.88890698  1  -0.04734  0.000451  3.743891  0.001  -0.03052  0.000295  3.989353  0.0  -0.037452  -0.000102  4.011255  0.0  -0.016989  -0.026191  0.000645  3.975051  0.001
C  C60  1  0.13377784  0.33466308  0.03172398  1  -0.146875  0.001127  3.68001  0.001  -0.18263  0.001649  3.941783  0.001  -0.183409  0.001275  3.959248  0.001  -0.085739  -0.182077  0.002278  3.930323  0.002
C  C61  1  0.86622560  0.66529097  0.96826604  1  -0.14667  0.001115  3.680209  0.001  -0.182557  0.001647  3.942085  0.001  -0.183343  0.001271  3.959555  0.001  -0.085968  -0.182011  0.002275  3.930627  0.002
C  C62  1  0.36180727  0.27082757  0.99670121  1  0.16944  -0.000384  3.781618  0.0  0.158305  -0.000164  4.038023  0.0  0.161008  -0.000316  4.062111  0.0  0.101122  0.156309  -0.000107  4.021969  0.0
C  C63  1  0.63822942  0.72914268  0.00329809  1  0.169328  -0.000377  3.782118  0.0  0.158267  -0.000163  4.038454  0.0  0.160977  -0.000313  4.062549  0.0  0.101086  0.156271  -0.000106  4.022388  0.0
C  C64  1  0.79528466  0.36972213  0.15475861  1  0.675953  0.004506  3.8761  0.005  0.62125  0.008634  4.174324  0.008  0.656907  0.006381  4.166751  0.006  0.2183  0.596555  0.011151  4.178706  0.01
C  C65  1  0.20475722  0.63026783  0.84520271  1  0.676072  0.004503  3.876225  0.005  0.621046  0.008638  4.174919  0.008  0.65672  0.006383  4.167326  0.006  0.218124  0.596351  0.011155  4.179305  0.01
N  N66  1  0.32866800  0.78375954  0.40470964  1  -0.373022  0.000748  3.360425  0.001  -0.31532  0.002058  3.593837  0.002  -0.334722  0.001447  3.603472  0.002  -0.362409  -0.302397  0.002778  3.587541  0.003
N  N67  1  0.67126279  0.21626437  0.59528930  1  -0.372749  0.000748  3.361034  0.001  -0.315033  0.002059  3.594485  0.002  -0.334459  0.001447  3.604173  0.002  -0.362428  -0.302099  0.002779  3.588177  0.003
N  N68  1  0.74536958  0.78343711  0.28616958  1  -0.375224  -4.6e-05  3.361877  0.0  -0.321265  0.000927  3.60402  0.001  -0.341918  0.00053  3.612912  0.001  -0.367765  -0.307339  0.001343  3.597832  0.001
N  N69  1  0.25461228  0.21658319  0.71385485  1  -0.375811  -3.9e-05  3.362143  0.0  -0.321877  0.000927  3.604085  0.001  -0.342536  0.00053  3.612961  0.001  -0.367952  -0.307935  0.001343  3.597905  0.001
N  N70  1  0.70020149  0.10597845  0.00407555  1  -0.385338  -7.1e-05  3.410577  0.0  -0.328373  -1.2e-05  3.64745  0.0  -0.3487  -8e-05  3.658304  0.0  -0.371978  -0.314701  0.000104  3.640076  0.0
N  N71  1  0.29981229  0.89401165  0.99592397  1  -0.385124  -7.5e-05  3.410281  0.0  -0.328442  -1e-05  3.647125  0.0  -0.348779  -8e-05  3.657983  0.0  -0.372028  -0.314761  0.000103  3.639757  0.0
N  N72  1  0.48269373  0.30574120  0.91972859  1  -0.3608  1.6e-05  3.332643  0.0  -0.305476  0.000118  3.567446  0.0  -0.324729  2.2e-05  3.576728  0.0  -0.360963  -0.292651  0.000334  3.561284  0.0
N  N73  1  0.51727424  0.69422588  0.08026188  1  -0.361414  1.7e-05  3.33277  0.0  -0.305901  0.000116  3.567651  0.0  -0.325136  2.4e-05  3.576854  0.0  -0.360986  -0.293058  0.000333  3.561491  0.0
O  O74  1  0.34722375  0.58818000  0.39944017  1  -0.55225  0.021893  2.058444  0.013  -0.484908  0.028669  2.292057  0.017  -0.510498  0.025985  2.281835  0.015  -0.259596  -0.466556  0.031222  2.298869  0.02
O  O75  1  0.65278023  0.41183076  0.60057786  1  -0.552297  0.021899  2.058064  0.013  -0.484937  0.028669  2.291704  0.017  -0.51058  0.025992  2.281565  0.015  -0.259521  -0.466584  0.031223  2.298532  0.02
O  O76  1  0.75364319  0.58817822  0.27813804  1  -0.538419  0.018415  2.085517  0.011  -0.482143  0.024946  2.330551  0.017  -0.504928  0.022553  2.321568  0.015  -0.254958  -0.465935  0.027265  2.336629  0.019
O  O77  1  0.24615209  0.41185905  0.72181841  1  -0.538173  0.018403  2.085195  0.011  -0.481893  0.024931  2.330164  0.017  -0.504652  0.022537  2.321164  0.015  -0.254757  -0.465689  0.027247  2.336248  0.019
O  O78  1  0.10032674  0.18953555  0.48761684  1  -0.631769  0.004217  1.997257  0.005  -0.586636  0.006907  2.234669  0.008  -0.611252  0.005208  2.226942  0.007  -0.321962  -0.569429  0.008855  2.239649  0.01
O  O79  1  0.89968507  0.81050953  0.51239630  1  -0.631767  0.004214  1.997866  0.005  -0.586605  0.006904  2.235331  0.008  -0.61122  0.005202  2.227596  0.007  -0.321893  -0.569401  0.00885  2.240314  0.01
O  O80  1  0.31808245  0.30120163  0.39579447  1  -0.686444  0.034112  2.053882  0.018  -0.611511  0.042778  2.319455  0.023  -0.642789  0.038499  2.301023  0.019  -0.314717  -0.588489  0.046789  2.331697  0.026
O  O81  1  0.68204652  0.69881810  0.60421362  1  -0.686257  0.034101  2.053503  0.018  -0.611285  0.042763  2.319104  0.023  -0.642593  0.03849  2.300699  0.019  -0.314613  -0.58826  0.046774  2.331336  0.026
O  O82  1  0.03504724  0.08285969  0.90066836  1  -0.535567  0.000143  2.001911  0.0  -0.494555  0.000321  2.230564  0.0  -0.513837  0.00023  2.225417  0.0  -0.290918  -0.481127  0.000576  2.233825  0.001
O  O83  1  0.96499824  0.91715262  0.09933831  1  -0.535393  0.000141  2.002246  0.0  -0.494475  0.00032  2.230834  0.0  -0.513757  0.000228  2.225688  0.0  -0.29091  -0.481032  0.000576  2.234075  0.001
O  O84  1  0.80331336  0.27891935  0.81234116  1  -0.533889  -0.00039  2.043523  0.0  -0.489448  -0.000276  2.274206  0.0  -0.509365  -0.000395  2.268198  0.0  -0.282451  -0.475839  -0.000124  2.278178  0.0
O  O85  1  0.19669481  0.72108451  0.18765275  1  -0.533885  -0.000386  2.043892  0.0  -0.48938  -0.000275  2.274678  0.0  -0.509297  -0.000399  2.268673  0.0  -0.28237  -0.475771  -0.000125  2.278649  0.0
O  O86  1  0.74148880  0.33545752  0.23271244  1  -0.663886  0.039795  2.061306  0.027  -0.590353  0.044394  2.327294  0.027  -0.623627  0.038938  2.313715  0.022  -0.315943  -0.565495  0.049783  2.335771  0.032
O  O87  1  0.25857389  0.66455900  0.76726055  1  -0.663965  0.039817  2.061725  0.027  -0.590188  0.044403  2.327717  0.027  -0.623473  0.03895  2.314125  0.022  -0.315962  -0.565335  0.049792  2.336215  0.032
O  O88  1  0.66944369  0.45572192  0.11334408  1  -0.64445  0.00251  1.951164  0.003  -0.59107  0.005239  2.176945  0.006  -0.616182  0.003836  2.167552  0.005  -0.320943  -0.573326  0.006838  2.182838  0.008
O  O89  1  0.33052533  0.54423652  0.88659737  1  -0.644607  0.00251  1.951618  0.003  -0.591111  0.005244  2.177512  0.006  -0.616245  0.003838  2.168128  0.005  -0.320738  -0.573365  0.006842  2.183419  0.008
O  O90  1  0.84207435  0.42853875  0.43182329  1  -0.853552  0.032586  1.926595  0.018  -0.796036  0.041147  2.143889  0.022  -0.820565  0.036802  2.105854  0.019  -0.576654  -0.777407  0.045128  2.170503  0.025
O  O91  1  0.15788664  0.57151765  0.56813198  1  -0.853599  0.032568  1.926441  0.018  -0.796231  0.041139  2.143885  0.022  -0.820743  0.036795  2.105852  0.019  -0.576655  -0.777587  0.045118  2.170454  0.025
O  O92  1  0.24140302  0.47155385  0.22966980  1  -0.841751  0.031881  1.96993  0.021  -0.783453  0.039478  2.200785  0.025  -0.808471  0.035208  2.166545  0.021  -0.567045  -0.764478  0.043438  2.223211  0.028
O  O93  1  0.75854628  0.52839694  0.77028442  1  -0.842027  0.031894  1.970076  0.021  -0.783532  0.039486  2.200908  0.025  -0.808556  0.035215  2.166649  0.021  -0.567054  -0.764543  0.043448  2.223446  0.028
