# generated using pymatgen
data_Zn2H8C5(N4O)2
_symmetry_space_group_name_H-M   'P 1'
_cell_length_a   6.86229398
_cell_length_b   10.09708121
_cell_length_c   13.93359998
_cell_angle_alpha   90.00002389
_cell_angle_beta   90.00008253
_cell_angle_gamma   90.00012846
_symmetry_Int_Tables_number   1
_chemical_formula_structural   Zn2H8C5(N4O)2
_chemical_formula_sum   'Zn8 H32 C20 N32 O8'
_cell_volume   965.44715384
_cell_formula_units_Z   4
loop_
 _symmetry_equiv_pos_site_id
 _symmetry_equiv_pos_as_xyz
  1  'x, y, z'
loop_
 _atom_site_type_symbol
 _atom_site_label
 _atom_site_symmetry_multiplicity
 _atom_site_fract_x
 _atom_site_fract_y
 _atom_site_fract_z
 _atom_site_occupancy
 _atom_site_hle17_bader_spin_density
 _atom_site_hle17_ddec_charge
 _atom_site_hle17_ddec_spin_density
 _atom_site_hle17_ddec_sum_bond_order
 _atom_site_hle17_magmom
 _atom_site_hse06_10hf_bader_spin_density
 _atom_site_hse06_10hf_ddec_charge
 _atom_site_hse06_10hf_ddec_spin_density
 _atom_site_hse06_10hf_ddec_sum_bond_order
 _atom_site_hse06_10hf_magmom
 _atom_site_hse06_bader_spin_density
 _atom_site_hse06_ddec_charge
 _atom_site_hse06_ddec_spin_density
 _atom_site_hse06_ddec_sum_bond_order
 _atom_site_hse06_magmom
 _atom_site_pbe_bader_spin_density
 _atom_site_pbe_cm5_charge
 _atom_site_pbe_ddec_charge
 _atom_site_pbe_ddec_spin_density
 _atom_site_pbe_ddec_sum_bond_order
 _atom_site_pbe_magmom
Zn  Zn0  1  0.96901609  0.62777244  0.62844894  1  0  1.053628  0  1.870313  0  0  0.868641  0  2.357226  0  0  0.910855  0  2.301437  0  0  0.691093  0.838137  0  2.396984  0
Zn  Zn1  1  0.46901486  0.37222883  0.37154957  1  0  1.05357  0  1.870374  0  0  0.868556  0  2.357304  0  0  0.910771  0  2.301515  0  0  0.691079  0.838054  0  2.397059  0
Zn  Zn2  1  0.46901519  0.12777318  0.87155097  1  0  1.053614  0  1.870309  0  0  0.86862  0  2.357218  0  0  0.910832  0  2.30143  0  0  0.69108  0.838117  0  2.396977  0
Zn  Zn3  1  0.96901577  0.87222908  0.12845041  1  0  1.053559  0  1.870389  0  0  0.86854  0  2.357317  0  0  0.910754  0  2.301529  0  0  0.69107  0.838036  0  2.397074  0
Zn  Zn4  1  0.96579368  0.13423780  0.86791749  1  0  1.068494  0  1.864251  0  0  0.887279  0  2.348875  0  0  0.929994  0  2.292332  0  0  0.68522  0.856469  0  2.38894  0
Zn  Zn5  1  0.46579337  0.86576445  0.13208389  1  0  1.068533  0  1.864292  0  0  0.887338  0  2.34893  0  0  0.930052  0  2.292383  0  0  0.685255  0.856528  0  2.388988  0
Zn  Zn6  1  0.46579517  0.63423828  0.63208314  1  0  1.068502  0  1.86423  0  0  0.887309  0  2.34885  0  0  0.930022  0  2.292306  0  0  0.685238  0.856501  0  2.388903  0
Zn  Zn7  1  0.96579333  0.36576397  0.36791609  1  0  1.068543  0  1.864295  0  0  0.887365  0  2.34892  0  0  0.930078  0  2.292375  0  0  0.685269  0.856553  0  2.388976  0
H  H8  1  0.75518729  0.04117406  0.67538927  1  0  0.09181  0  0.984942  0  0  0.092429  0  1.071839  0  0  0.094846  0  1.070121  0  0  0.0958  0.090454  0  1.073481  0
H  H9  1  0.25518493  0.95882490  0.32460981  1  0  0.091821  0  0.984969  0  0  0.092446  0  1.071845  0  0  0.094863  0  1.070124  0  0  0.095801  0.090468  0  1.073489  0
H  H10  1  0.25518788  0.54117465  0.82460975  1  0  0.091799  0  0.98495  0  0  0.092423  0  1.071854  0  0  0.094838  0  1.070135  0  0  0.095795  0.090447  0  1.073497  0
H  H11  1  0.75518433  0.45882530  0.17539005  1  0  0.091813  0  0.984981  0  0  0.092425  0  1.071872  0  0  0.094842  0  1.070152  0  0  0.095781  0.090446  0  1.073516  0
H  H12  1  0.74938003  0.88871005  0.61315063  1  0  0.108997  0  0.95234  0  0  0.123818  0  1.01253  0  0  0.125726  0  1.011534  0  0  0.101954  0.122336  0  1.013375  0
H  H13  1  0.24937799  0.11128791  0.38684988  1  0  0.109033  0  0.952329  0  0  0.123853  0  1.012527  0  0  0.125759  0  1.01153  0  0  0.101966  0.122368  0  1.013374  0
H  H14  1  0.24938208  0.38871080  0.88684849  1  0  0.109017  0  0.952326  0  0  0.123841  0  1.01252  0  0  0.125748  0  1.011522  0  0  0.10198  0.122361  0  1.013366  0
H  H15  1  0.74937740  0.61128815  0.11315059  1  0  0.109049  0  0.952304  0  0  0.123861  0  1.012512  0  0  0.125771  0  1.011508  0  0  0.10196  0.122377  0  1.013359  0
H  H16  1  0.92105291  0.06124628  0.51960188  1  0  0.079366  0  0.920522  0  0  0.100645  0  0.974276  0  0  0.101378  0  0.975056  0  0  0.097556  0.100046  0  0.973889  0
H  H17  1  0.42105240  0.93875294  0.48039804  1  0  0.079363  0  0.920523  0  0  0.100649  0  0.974293  0  0  0.101382  0  0.975074  0  0  0.09756  0.100046  0  0.973907  0
H  H18  1  0.42105250  0.56124696  0.98039726  1  0  0.079317  0  0.920486  0  0  0.100601  0  0.974268  0  0  0.101335  0  0.975048  0  0  0.097543  0.100001  0  0.973881  0
H  H19  1  0.92105135  0.43875226  0.01960265  1  0  0.07936  0  0.920502  0  0  0.100625  0  0.974278  0  0  0.101358  0  0.975058  0  0  0.097533  0.100022  0  0.973891  0
H  H20  1  0.07699114  0.92626195  0.54651650  1  0  0.079871  0  0.929355  0  0  0.098297  0  0.988489  0  0  0.09962  0  0.988216  0  0  0.094726  0.097244  0  0.988783  0
H  H21  1  0.57699151  0.07373772  0.45348173  1  0  0.079894  0  0.929339  0  0  0.098352  0  0.988457  0  0  0.099675  0  0.988184  0  0  0.09473  0.097294  0  0.988755  0
H  H22  1  0.57699281  0.42626252  0.95348322  1  0  0.079835  0  0.92939  0  0  0.09828  0  0.988518  0  0  0.099602  0  0.988246  0  0  0.094718  0.097226  0  0.988812  0
H  H23  1  0.07699130  0.57373716  0.04651788  1  0  0.079875  0  0.92941  0  0  0.09828  0  0.988559  0  0  0.099599  0  0.988291  0  0  0.094719  0.097222  0  0.988854  0
H  H24  1  0.22814781  0.05173215  0.67984019  1  0  0.089301  0  0.980439  0  0  0.092449  0  1.065581  0  0  0.09444  0  1.064078  0  0  0.096887  0.090969  0  1.066725  0
H  H25  1  0.72814628  0.94826776  0.32015887  1  0  0.089251  0  0.980459  0  0  0.092414  0  1.065603  0  0  0.094405  0  1.0641  0  0  0.096894  0.090933  0  1.066746  0
H  H26  1  0.72814927  0.55173351  0.82015881  1  0  0.089248  0  0.98046  0  0  0.092412  0  1.065616  0  0  0.094404  0  1.064112  0  0  0.096881  0.09093  0  1.066763  0
H  H27  1  0.22814628  0.44826640  0.17984168  1  0  0.089256  0  0.980445  0  0  0.092406  0  1.065592  0  0  0.094399  0  1.064086  0  0  0.09689  0.090925  0  1.066738  0
H  H28  1  0.25732898  0.13063910  0.56857464  1  0  0.106946  0  0.933501  0  0  0.122269  0  0.993724  0  0  0.123371  0  0.993984  0  0  0.10686  0.121317  0  0.993801  0
H  H29  1  0.75732606  0.86935986  0.43142444  1  0  0.10694  0  0.933526  0  0  0.122276  0  0.993739  0  0  0.123374  0  0.994002  0  0  0.106878  0.121326  0  0.993818  0
H  H30  1  0.75732785  0.63063953  0.93142513  1  0  0.106931  0  0.933521  0  0  0.122276  0  0.993736  0  0  0.12337  0  0.99401  0  0  0.106863  0.121331  0  0.993807  0
H  H31  1  0.25732428  0.36935844  0.06857611  1  0  0.10694  0  0.933554  0  0  0.12226  0  0.993762  0  0  0.123357  0  0.994026  0  0  0.106866  0.121312  0  0.993836  0
H  H32  1  0.69684456  0.64492765  0.50021135  1  0  0.377488  0  0.95526  0  0  0.338533  0  1.034612  0  0  0.349179  0  1.019343  0  0  0.265473  0.330884  0  1.045582  0
H  H33  1  0.19684510  0.35507023  0.49978697  1  0  0.37742  0  0.95533  0  0  0.338486  0  1.03466  0  0  0.349133  0  1.019389  0  0  0.265443  0.330835  0  1.045637  0
H  H34  1  0.19684548  0.14492747  0.99978838  1  0  0.377507  0  0.955237  0  0  0.338551  0  1.034588  0  0  0.349198  0  1.019317  0  0  0.265475  0.330903  0  1.045559  0
H  H35  1  0.69684418  0.85507140  0.00021353  1  0  0.377392  0  0.955373  0  0  0.338455  0  1.034706  0  0  0.349102  0  1.019436  0  0  0.265429  0.330803  0  1.045684  0
H  H36  1  0.20764955  0.65153116  0.49713516  1  0  0.382532  0  0.938894  0  0  0.343397  0  1.01787  0  0  0.35332  0  1.003535  0  0  0.269524  0.336221  0  1.028249  0
H  H37  1  0.70764804  0.34846773  0.50286317  1  0  0.382524  0  0.938905  0  0  0.34339  0  1.017878  0  0  0.353313  0  1.003543  0  0  0.26953  0.33621  0  1.028261  0
H  H38  1  0.70764846  0.15153146  0.00286529  1  0  0.382524  0  0.938904  0  0  0.343389  0  1.017878  0  0  0.353312  0  1.003544  0  0  0.26952  0.336213  0  1.028257  0
H  H39  1  0.20764914  0.84846743  0.99713662  1  0  0.382538  0  0.938888  0  0  0.343402  0  1.017865  0  0  0.353326  0  1.003528  0  0  0.269522  0.336226  0  1.028245  0
C  C40  1  0.93414932  0.88938864  0.73373834  1  0  0.363513  0  3.712178  0  0  0.338267  0  3.976321  0  0  0.351475  0  3.993882  0  0  0.229881  0.329475  0  3.963913  0
C  C41  1  0.43414693  0.11061158  0.26626230  1  0  0.36347  0  3.712343  0  0  0.338197  0  3.976507  0  0  0.351403  0  3.994067  0  0  0.229865  0.329402  0  3.964097  0
C  C42  1  0.43414957  0.38938932  0.76626091  1  0  0.363467  0  3.712324  0  0  0.338304  0  3.976371  0  0  0.351509  0  3.993931  0  0  0.229927  0.329514  0  3.963962  0
C  C43  1  0.93414669  0.61061190  0.23373758  1  0  0.363487  0  3.712377  0  0  0.338207  0  3.976561  0  0  0.351414  0  3.994125  0  0  0.229858  0.329412  0  3.96415  0
C  C44  1  0.84611753  0.95880663  0.65002485  1  0  -0.228295  0  3.700147  0  0  -0.2641  0  3.942451  0  0  -0.267444  0  3.953517  0  0  -0.165197  -0.261387  0  3.934535  0
C  C45  1  0.34611370  0.04119247  0.34997573  1  0  -0.22834  0  3.700259  0  0  -0.264113  0  3.942569  0  0  -0.267449  0  3.953618  0  0  -0.165193  -0.261398  0  3.93465  0
C  C46  1  0.34611802  0.45880736  0.84997508  1  0  -0.22831  0  3.700185  0  0  -0.26415  0  3.942536  0  0  -0.267483  0  3.953591  0  0  -0.165221  -0.261442  0  3.934623  0
C  C47  1  0.84611321  0.54119174  0.15002407  1  0  -0.228344  0  3.700253  0  0  -0.264103  0  3.942506  0  0  -0.267443  0  3.953561  0  0  -0.165148  -0.261388  0  3.934588  0
C  C48  1  0.99808109  0.01041681  0.57820700  1  0  -0.063598  0  3.63191  0  0  -0.102202  0  3.883628  0  0  -0.103298  0  3.896979  0  0  -0.155257  -0.101117  0  3.874065  0
C  C49  1  0.49808057  0.98958252  0.42179226  1  0  -0.063655  0  3.631974  0  0  -0.102338  0  3.883809  0  0  -0.103433  0  3.897154  0  0  -0.155307  -0.101247  0  3.874238  0
C  C50  1  0.49808197  0.51041746  0.92179218  1  0  -0.063487  0  3.63187  0  0  -0.102127  0  3.883684  0  0  -0.103221  0  3.897026  0  0  -0.155252  -0.101036  0  3.874113  0
C  C51  1  0.99807970  0.48958088  0.07820779  1  0  -0.063599  0  3.632033  0  0  -0.102194  0  3.883737  0  0  -0.103291  0  3.897089  0  0  -0.155261  -0.101107  0  3.874173  0
C  C52  1  0.14864379  0.10403927  0.62292954  1  0  -0.214625  0  3.707791  0  0  -0.254411  0  3.955799  0  0  -0.257002  0  3.967487  0  0  -0.158882  -0.252497  0  3.947731  0
C  C53  1  0.64864079  0.89595953  0.37707019  1  0  -0.214557  0  3.707755  0  0  -0.254374  0  3.955812  0  0  -0.256957  0  3.967524  0  0  -0.158925  -0.252466  0  3.947739  0
C  C54  1  0.64864250  0.60403967  0.87707014  1  0  -0.21457  0  3.70774  0  0  -0.254429  0  3.955859  0  0  -0.257019  0  3.967562  0  0  -0.158893  -0.252517  0  3.947789  0
C  C55  1  0.14863917  0.39595913  0.12293030  1  0  -0.214617  0  3.707815  0  0  -0.254419  0  3.955795  0  0  -0.256994  0  3.967501  0  0  -0.158935  -0.25251  0  3.947726  0
C  C56  1  0.06753706  0.23018458  0.66124554  1  0  0.344071  0  3.703219  0  0  0.323213  0  3.971925  0  0  0.33388  0  3.989751  0  0  0.227553  0.316136  0  3.959831  0
C  C57  1  0.56753500  0.76981508  0.33875341  1  0  0.344135  0  3.703188  0  0  0.323296  0  3.971873  0  0  0.333941  0  3.989732  0  0  0.227582  0.316218  0  3.959775  0
C  C58  1  0.56753712  0.73018595  0.83875484  1  0  0.344084  0  3.703179  0  0  0.323258  0  3.971882  0  0  0.333925  0  3.989709  0  0  0.227565  0.316176  0  3.959788  0
C  C59  1  0.06753349  0.26981371  0.16124698  1  0  0.344071  0  3.703206  0  0  0.323268  0  3.971809  0  0  0.333895  0  3.989692  0  0  0.227569  0.316184  0  3.959712  0
N  N60  1  0.97864590  0.75962742  0.73810476  1  0  -0.35981  0  3.188253  0  0  -0.288076  0  3.494909  0  0  -0.307635  0  3.506304  0  0  -0.242771  -0.274876  0  3.487504  0
N  N61  1  0.47864246  0.24037288  0.26189591  1  0  -0.359721  0  3.188394  0  0  -0.287926  0  3.494977  0  0  -0.307487  0  3.506377  0  0  -0.242704  -0.274721  0  3.487567  0
N  N62  1  0.47864468  0.25962809  0.76189448  1  0  -0.359798  0  3.188347  0  0  -0.288076  0  3.494966  0  0  -0.307635  0  3.506363  0  0  -0.242775  -0.274872  0  3.487559  0
N  N63  1  0.97864223  0.74037220  0.23810404  1  0  -0.359787  0  3.188377  0  0  -0.287989  0  3.49497  0  0  -0.30755  0  3.506372  0  0  -0.24276  -0.274787  0  3.48756  0
N  N64  1  0.05774402  0.73657255  0.82547094  1  0  -0.057525  0  2.966879  0  0  -0.052353  0  3.261118  0  0  -0.050793  0  3.273515  0  0  -0.08295  -0.053196  0  3.252987  0
N  N65  1  0.55774420  0.26342710  0.17453015  1  0  -0.05758  0  2.966963  0  0  -0.052422  0  3.261191  0  0  -0.050861  0  3.273588  0  0  -0.082992  -0.053265  0  3.253062  0
N  N66  1  0.55774488  0.23657295  0.67452871  1  0  -0.057524  0  2.966874  0  0  -0.052352  0  3.261111  0  0  -0.050793  0  3.273509  0  0  -0.082947  -0.053197  0  3.252979  0
N  N67  1  0.05774480  0.76342868  0.32546951  1  0  -0.057599  0  2.966824  0  0  -0.052447  0  3.26105  0  0  -0.050887  0  3.273447  0  0  -0.082994  -0.05329  0  3.252918  0
N  N68  1  0.06163073  0.84765912  0.87307387  1  0  -0.080081  0  3.023102  0  0  -0.059555  0  3.314  0  0  -0.060145  0  3.32528  0  0  -0.082199  -0.05899  0  3.306352  0
N  N69  1  0.56163332  0.15234152  0.12692794  1  0  -0.0801  0  3.023135  0  0  -0.059573  0  3.314044  0  0  -0.060161  0  3.325323  0  0  -0.082195  -0.059007  0  3.306398  0
N  N70  1  0.56163291  0.34765851  0.62692582  1  0  -0.080097  0  3.023063  0  0  -0.059569  0  3.313977  0  0  -0.060158  0  3.325257  0  0  -0.082213  -0.059002  0  3.306327  0
N  N71  1  0.06163406  0.65234214  0.37307241  1  0  -0.080022  0  3.023012  0  0  -0.059479  0  3.313916  0  0  -0.060068  0  3.325196  0  0  -0.08216  -0.058917  0  3.306269  0
N  N72  1  0.98516163  0.94501567  0.81753940  1  0  -0.377623  0  3.22229  0  0  -0.312326  0  3.530213  0  0  -0.331547  0  3.541854  0  0  -0.24606  -0.298763  0  3.521898  0
N  N73  1  0.48516027  0.05498463  0.18246128  1  0  -0.377569  0  3.222296  0  0  -0.312281  0  3.530243  0  0  -0.331503  0  3.541883  0  0  -0.246048  -0.298718  0  3.521924  0
N  N74  1  0.48516309  0.44501630  0.68246063  1  0  -0.377561  0  3.222278  0  0  -0.312305  0  3.530198  0  0  -0.331526  0  3.541839  0  0  -0.246051  -0.298741  0  3.521881  0
N  N75  1  0.98516173  0.55498400  0.31753790  1  0  -0.37758  0  3.222237  0  0  -0.31231  0  3.530207  0  0  -0.331531  0  3.541847  0  0  -0.246042  -0.298744  0  3.521889  0
N  N76  1  0.98437057  0.25083583  0.74838846  1  0  -0.353671  0  3.184781  0  0  -0.284752  0  3.492106  0  0  -0.302954  0  3.50306  0  0  -0.232653  -0.272429  0  3.48507  0
N  N77  1  0.48436586  0.74916546  0.25161150  1  0  -0.353718  0  3.184729  0  0  -0.284833  0  3.492081  0  0  -0.30303  0  3.503046  0  0  -0.232704  -0.272508  0  3.485041  0
N  N78  1  0.48436950  0.75083638  0.75161222  1  0  -0.353658  0  3.184687  0  0  -0.284753  0  3.492012  0  0  -0.302952  0  3.502965  0  0  -0.232648  -0.272427  0  3.484972  0
N  N79  1  0.98436547  0.24916491  0.24838990  1  0  -0.353681  0  3.184719  0  0  -0.284819  0  3.492082  0  0  -0.303011  0  3.503058  0  0  -0.232704  -0.272484  0  3.485034  0
N  N80  1  0.93746082  0.37965521  0.75370726  1  0  -0.039334  0  2.941283  0  0  -0.038819  0  3.2276  0  0  -0.035315  0  3.240512  0  0  -0.080596  -0.040941  0  3.218898  0
N  N81  1  0.43745567  0.62034602  0.24629123  1  0  -0.039296  0  2.941154  0  0  -0.03877  0  3.227482  0  0  -0.035265  0  3.240394  0  0  -0.080556  -0.040888  0  3.218773  0
N  N82  1  0.43745828  0.87965575  0.74629342  1  0  -0.039318  0  2.941256  0  0  -0.038796  0  3.227565  0  0  -0.035293  0  3.240476  0  0  -0.080605  -0.04092  0  3.218864  0
N  N83  1  0.93745530  0.12034547  0.25370937  1  0  -0.039389  0  2.941216  0  0  -0.038874  0  3.227556  0  0  -0.035369  0  3.240466  0  0  -0.080611  -0.040994  0  3.218845  0
N  N84  1  0.99083216  0.43429478  0.67226028  1  0  -0.140047  0  3.286204  0  0  -0.08329  0  3.606573  0  0  -0.091887  0  3.616925  0  0  -0.114636  -0.076934  0  3.599548  0
N  N85  1  0.49083144  0.56570554  0.32773681  1  0  -0.13991  0  3.286065  0  0  -0.083154  0  3.606418  0  0  -0.091752  0  3.616773  0  0  -0.114567  -0.076802  0  3.599391  0
N  N86  1  0.49082985  0.93429537  0.82774046  1  0  -0.140086  0  3.286288  0  0  -0.08333  0  3.606663  0  0  -0.091926  0  3.617015  0  0  -0.114643  -0.076971  0  3.599635  0
N  N87  1  0.99082937  0.06570495  0.17226310  1  0  -0.139819  0  3.286184  0  0  -0.083049  0  3.606537  0  0  -0.091646  0  3.616891  0  0  -0.11452  -0.076695  0  3.599509  0
N  N88  1  0.07168302  0.34469192  0.61312806  1  0  -0.299461  0  3.021886  0  0  -0.2623  0  3.285313  0  0  -0.274172  0  3.300064  0  0  -0.207425  -0.254306  0  3.275465  0
N  N89  1  0.57168218  0.65530676  0.38686946  1  0  -0.299643  0  3.021991  0  0  -0.262471  0  3.285417  0  0  -0.274336  0  3.300176  0  0  -0.207503  -0.254476  0  3.275564  0
N  N90  1  0.57168030  0.84469331  0.88687236  1  0  -0.299482  0  3.021936  0  0  -0.262323  0  3.285355  0  0  -0.274194  0  3.300105  0  0  -0.20742  -0.254328  0  3.275506  0
N  N91  1  0.07167907  0.15530636  0.11313090  1  0  -0.29961  0  3.022059  0  0  -0.262462  0  3.285475  0  0  -0.274321  0  3.300239  0  0  -0.207488  -0.254472  0  3.275624  0
O  O92  1  0.71796736  0.66021428  0.56966075  1  0  -0.969356  0  1.918994  0  0  -0.865625  0  2.239888  0  0  -0.895448  0  2.198427  0  0  -0.597578  -0.843886  0  2.26901  0
O  O93  1  0.21796619  0.33978660  0.43033615  1  0  -0.969272  0  1.91918  0  0  -0.865561  0  2.240039  0  0  -0.895385  0  2.198576  0  0  -0.597541  -0.843826  0  2.269156  0
O  O94  1  0.21796662  0.16021307  0.93033900  1  0  -0.969369  0  1.918978  0  0  -0.865621  0  2.239855  0  0  -0.895445  0  2.198393  0  0  -0.597568  -0.843884  0  2.268982  0
O  O95  1  0.71796547  0.83978583  0.06966364  1  0  -0.969256  0  1.919206  0  0  -0.86554  0  2.240071  0  0  -0.895365  0  2.198609  0  0  -0.59755  -0.843809  0  2.269188  0
O  O96  1  0.21977098  0.66407244  0.56681995  1  0  -0.962596  0  1.893214  0  0  -0.861442  0  2.212793  0  0  -0.890462  0  2.171132  0  0  -0.596332  -0.840373  0  2.241898  0
O  O97  1  0.71977069  0.33592746  0.43317838  1  0  -0.962583  0  1.893246  0  0  -0.861428  0  2.212842  0  0  -0.890437  0  2.171158  0  0  -0.596345  -0.840355  0  2.241947  0
O  O98  1  0.71977113  0.16407299  0.93318051  1  0  -0.962569  0  1.893198  0  0  -0.86141  0  2.212777  0  0  -0.890429  0  2.171123  0  0  -0.596324  -0.840342  0  2.241887  0
O  O99  1  0.21977054  0.83592691  0.06682141  1  0  -0.962597  0  1.893264  0  0  -0.861431  0  2.212854  0  0  -0.890436  0  2.171153  0  0  -0.596317  -0.840357  0  2.241941  0
