# generated using pymatgen
data_CuPH16C13(NO)3
_symmetry_space_group_name_H-M   'P 1'
_cell_length_a   9.07077854
_cell_length_b   11.58006501
_cell_length_c   14.48963699
_cell_angle_alpha   95.18991955
_cell_angle_beta   89.99340728
_cell_angle_gamma   90.00628271
_symmetry_Int_Tables_number   1
_chemical_formula_structural   CuPH16C13(NO)3
_chemical_formula_sum   'Cu4 P4 H64 C52 N12 O12'
_cell_volume   1515.75474831
_cell_formula_units_Z   4
loop_
 _symmetry_equiv_pos_site_id
 _symmetry_equiv_pos_as_xyz
  1  'x, y, z'
loop_
 _atom_site_type_symbol
 _atom_site_label
 _atom_site_symmetry_multiplicity
 _atom_site_fract_x
 _atom_site_fract_y
 _atom_site_fract_z
 _atom_site_occupancy
 _atom_site_pbe_bader_charge
 _atom_site_pbe_bader_spin_density
 _atom_site_pbe_cm5_charge
 _atom_site_pbe_ddec_charge
 _atom_site_pbe_ddec_spin_density
 _atom_site_pbe_ddec_sum_bond_order
 _atom_site_pbe_magmom
Cu  Cu0  1  0.99711571  0.10105322  0.71072566  1  1.019074  -0.529304  0.752723  0.777845  -0.694685  2.302751  -0.53
Cu  Cu1  1  0.49713042  0.39894755  0.78929847  1  1.018933  0.529224  0.752723  0.777535  0.72707  2.303015  0.53
Cu  Cu2  1  0.00278269  0.89891190  0.28956422  1  1.021219  -0.551042  0.753456  0.779918  -0.72173  2.295723  -0.552
Cu  Cu3  1  0.50277575  0.60109031  0.21042141  1  1.02138  -0.551027  0.753392  0.779854  -0.721709  2.295579  -0.552
P  P4  1  0.22243850  0.23188154  0.82966728  1  3.321448  -0.003383  0.321072  1.265497  -0.002817  5.420305  -0.003
P  P5  1  0.72244464  0.26812002  0.67034634  1  3.321566  0.00336  0.320927  1.265478  0.003392  5.420247  0.003
P  P6  1  0.77776866  0.76839326  0.16998505  1  3.3239  -0.008227  0.320872  1.26537  -0.013163  5.424968  -0.01
P  P7  1  0.27775470  0.73160546  0.32999708  1  3.324467  -0.008255  0.3209  1.265805  -0.013244  5.424823  -0.01
H  H8  1  0.04244349  0.90936558  0.79965556  1  0.037313  -0.002002  0.101575  0.072942  -0.000847  1.015635  -0.001
H  H9  1  0.54247441  0.59060056  0.70037560  1  0.037895  0.002004  0.101619  0.072886  0.0009  1.015702  0.001
H  H10  1  0.95764015  0.09061318  0.20037918  1  0.038184  -0.002174  0.10182  0.07344  -0.000946  1.015278  -0.001
H  H11  1  0.45760151  0.40941670  0.29959479  1  0.037165  -0.002176  0.101873  0.073285  -0.000946  1.015304  -0.001
H  H12  1  0.13893836  0.00950659  0.87805733  1  0.068922  -0.000486  0.116019  0.110415  -9e-05  0.974932  0.0
H  H13  1  0.63897565  0.49048755  0.62195975  1  0.069017  0.000478  0.116114  0.110334  9.3e-05  0.975086  0.0
H  H14  1  0.86108903  0.99040713  0.12208484  1  0.070413  -0.00056  0.116465  0.110769  -0.000127  0.974589  0.0
H  H15  1  0.36104958  0.50960600  0.37790191  1  0.070564  -0.000558  0.11646  0.110734  -0.000125  0.974498  0.0
H  H16  1  0.21284648  0.80302362  0.88981011  1  0.060625  -0.001087  0.092341  0.097076  -0.000537  1.02959  -0.001
H  H17  1  0.71286135  0.69698447  0.61021021  1  0.06041  0.001099  0.092356  0.097124  0.000544  1.029564  0.001
H  H18  1  0.78722833  0.19693265  0.11023002  1  0.061517  -0.001179  0.092478  0.097069  -0.000546  1.029899  -0.001
H  H19  1  0.28720135  0.30306484  0.38975820  1  0.061628  -0.001168  0.09238  0.096954  -0.000565  1.030064  -0.001
H  H20  1  0.36522238  0.88619437  0.85938083  1  0.017255  1e-05  0.09018  0.086741  2e-05  0.979714  0.0
H  H21  1  0.86525423  0.61384887  0.64060671  1  0.017363  -1.9e-05  0.090159  0.086733  -2.8e-05  0.979643  0.0
H  H22  1  0.63484031  0.11375991  0.14062742  1  0.018348  9e-06  0.090126  0.086847  3.8e-05  0.979885  0.0
H  H23  1  0.13479854  0.38620762  0.35939394  1  0.017994  1.4e-05  0.090227  0.086841  2.9e-05  0.979808  0.0
H  H24  1  0.35904495  0.70019911  0.75790645  1  0.025643  -0.000461  0.088076  0.084526  -0.000172  1.017596  0.0
H  H25  1  0.85906006  0.79983420  0.74209260  1  0.025245  0.000461  0.088052  0.084445  0.000187  1.017477  0.0
H  H26  1  0.64097916  0.29980506  0.24205202  1  0.025623  -0.000922  0.088113  0.08456  -0.000522  1.01751  -0.001
H  H27  1  0.14094419  0.20017414  0.25795726  1  0.025333  -0.000922  0.088025  0.084368  -0.000525  1.017587  -0.001
H  H28  1  0.17648676  0.72765745  0.72452697  1  0.034974  -0.000147  0.088723  0.083412  -5.9e-05  0.983025  0.0
H  H29  1  0.67649524  0.77232793  0.77550479  1  0.035004  0.000146  0.088803  0.083505  6e-05  0.982852  0.0
H  H30  1  0.82350317  0.27232642  0.27549639  1  0.035048  -0.000166  0.08873  0.083471  -5.4e-05  0.982922  0.0
H  H31  1  0.32347816  0.22768861  0.22448488  1  0.035773  -0.000165  0.088705  0.083301  -4.9e-05  0.982981  0.0
H  H32  1  0.35265771  0.78583308  0.60280218  1  0.110352  -0.001635  0.10286  0.117097  -0.000809  0.988089  -0.001
H  H33  1  0.85267883  0.71417717  0.89719301  1  0.110541  0.00163  0.102836  0.117162  0.000863  0.988105  0.001
H  H34  1  0.64717678  0.21430231  0.39720310  1  0.109896  -0.001744  0.102915  0.11741  -0.000886  0.987757  -0.001
H  H35  1  0.14715234  0.28568519  0.10280767  1  0.109995  -0.001766  0.102902  0.117488  -0.000877  0.987679  -0.001
H  H36  1  0.44812219  0.87595102  0.68741624  1  0.042268  7.1e-05  0.094636  0.09518  6e-05  0.990019  0.0
H  H37  1  0.94815606  0.62409087  0.81255971  1  0.042189  -6.7e-05  0.094744  0.095419  -5.4e-05  0.989778  0.0
H  H38  1  0.55177734  0.12411259  0.31260905  1  0.043678  6.2e-05  0.094707  0.095508  6.2e-05  0.989675  0.0
H  H39  1  0.05174347  0.37585361  0.18741338  1  0.043743  5.7e-05  0.09468  0.095511  6e-05  0.989704  0.0
H  H40  1  0.29144157  0.99881312  0.60677261  1  0.099687  0.000123  0.117414  0.085334  0.000212  1.009427  0.0
H  H41  1  0.79145123  0.50119150  0.89323145  1  0.099614  -0.000122  0.117403  0.085289  -0.000201  1.009396  0.0
H  H42  1  0.70842708  0.00126679  0.39334349  1  0.100062  0.00014  0.117608  0.085684  0.000222  1.009644  0.0
H  H43  1  0.20841744  0.49872978  0.10665657  1  0.099946  0.000123  0.117711  0.085769  0.000208  1.009662  0.0
H  H44  1  0.89318283  0.68499612  0.40027120  1  0.09003  -0.000704  0.108994  0.127133  -0.0004  0.997201  0.0
H  H45  1  0.39316967  0.81500405  0.09973030  1  0.090085  0.000354  0.108983  0.12716  0.000159  0.997431  0.0
H  H46  1  0.10690190  0.31500028  0.59980407  1  0.091015  -0.000204  0.109227  0.127482  -2.9e-05  0.996932  0.0
H  H47  1  0.60689082  0.18499810  0.90019076  1  0.091184  -0.000909  0.109263  0.127541  -0.000534  0.997051  0.0
H  H48  1  0.62208920  0.72385204  0.39413845  1  0.129288  6.5e-05  0.102615  0.117758  6.9e-05  1.038078  0.0
H  H49  1  0.12206728  0.77615707  0.10585975  1  0.129048  4.9e-05  0.102599  0.11769  6.3e-05  1.038321  0.0
H  H50  1  0.37799554  0.27615313  0.60583734  1  0.127385  -0.000182  0.102594  0.116564  -0.000212  1.037328  0.0
H  H51  1  0.87799762  0.22383537  0.89415107  1  0.127041  0.000201  0.102509  0.116477  0.000231  1.037391  0.0
H  H52  1  0.50646967  0.87544148  0.49733486  1  0.088263  8e-06  0.099289  0.101547  0.0  1.027276  0.0
H  H53  1  0.00644205  0.62457071  0.00267120  1  0.087844  -3.2e-05  0.099231  0.101432  -2.8e-05  1.027256  0.0
H  H54  1  0.49351474  0.12445792  0.50263587  1  0.088851  3.4e-05  0.099445  0.101551  4e-05  1.02721  0.0
H  H55  1  0.99353135  0.37552405  0.99734790  1  0.088625  5e-06  0.099475  0.101605  1e-06  1.027293  0.0
H  H56  1  0.65791749  0.00273582  0.61351473  1  0.130448  -0.000459  0.106984  0.129924  -0.000268  1.009509  0.0
H  H57  1  0.15789184  0.49726840  0.88649200  1  0.130341  0.000461  0.106997  0.129932  0.000287  1.009573  0.0
H  H58  1  0.34192692  0.99724600  0.38646846  1  0.130616  -0.000487  0.107057  0.129731  -0.000309  1.009303  0.0
H  H59  1  0.84194926  0.50274049  0.11351856  1  0.130887  -0.000485  0.107068  0.129824  -0.000309  1.009331  0.0
H  H60  1  0.36441301  0.13163634  0.70533686  1  0.127192  -2.2e-05  0.114811  0.144123  0.00016  1.034386  0.0
H  H61  1  0.86443253  0.36837369  0.79466019  1  0.127108  2.5e-05  0.114833  0.144091  -0.000158  1.034408  0.0
H  H62  1  0.63583269  0.86807776  0.29442882  1  0.128998  7.2e-05  0.114951  0.1445  0.000189  1.034384  0.0
H  H63  1  0.13582529  0.63190899  0.20556412  1  0.128897  7e-05  0.114958  0.144483  0.000187  1.034375  0.0
H  H64  1  0.39568733  0.06749221  0.81016598  1  0.04727  -0.006977  0.10913  0.129774  -0.003457  0.986804  -0.004
H  H65  1  0.89570521  0.43253331  0.68983400  1  0.047059  0.006959  0.109173  0.12993  0.003598  0.986765  0.004
H  H66  1  0.60441506  0.93263916  0.18976725  1  0.050865  -0.007277  0.109053  0.129845  -0.003633  0.987017  -0.004
H  H67  1  0.10439054  0.56733818  0.31022595  1  0.051029  -0.0073  0.109038  0.12988  -0.003646  0.986981  -0.004
H  H68  1  0.15901514  0.77307796  0.49503305  1  0.579187  -0.00033  0.295018  0.311576  -0.000286  1.01467  -0.001
H  H69  1  0.65903026  0.72691674  0.00496634  1  0.579068  0.000277  0.295058  0.311801  0.000156  1.014358  0.001
H  H70  1  0.84105638  0.22705373  0.50494160  1  0.578678  -0.000304  0.295408  0.311502  -0.000184  1.012454  -0.001
H  H71  1  0.34103022  0.27295190  0.99506029  1  0.578649  -0.000326  0.295442  0.311581  -0.000259  1.012345  -0.001
C  C72  1  0.15137350  0.94732287  0.81664900  1  0.23914  0.000887  -0.075019  -0.085234  3.2e-05  3.862497  0.002
C  C73  1  0.65140442  0.55265784  0.68337115  1  0.238479  -0.000892  -0.075018  -0.084905  0.000172  3.862603  -0.002
C  C74  1  0.84869028  0.05267799  0.18344245  1  0.237546  0.000815  -0.074879  -0.085396  -7.9e-05  3.862332  0.002
C  C75  1  0.34865166  0.44734252  0.31654289  1  0.238847  0.000819  -0.074896  -0.085136  -7.6e-05  3.862161  0.002
C  C76  1  0.25862273  0.85024760  0.83404902  1  -0.024525  -0.006163  -0.169387  -0.164406  -0.004384  3.927108  -0.005
C  C77  1  0.75863734  0.64975270  0.66595504  1  -0.024485  0.006173  -0.169445  -0.164523  0.004575  3.926932  0.005
C  C78  1  0.74142453  0.14971465  0.16598047  1  -0.026072  -0.006538  -0.169546  -0.164695  -0.00461  3.927688  -0.005
C  C79  1  0.24139669  0.35029234  0.33402137  1  -0.026068  -0.006527  -0.169613  -0.164785  -0.004618  3.927675  -0.005
C  C80  1  0.28167283  0.77015269  0.74561403  1  -0.040793  0.000403  -0.167924  -0.137066  0.000303  3.941897  0.0
C  C81  1  0.78169133  0.72985466  0.75439437  1  -0.040167  -0.000404  -0.167958  -0.137044  -0.000285  3.941286  0.0
C  C82  1  0.71830718  0.22984580  0.25439582  1  -0.040067  9.6e-05  -0.167877  -0.137077  8.6e-05  3.941191  0.0
C  C83  1  0.21827545  0.27015152  0.24560082  1  -0.040782  9.6e-05  -0.167712  -0.136499  8.8e-05  3.940659  0.0
C  C84  1  0.33872725  0.83990702  0.66859379  1  -0.074941  -0.005431  -0.161348  -0.192141  -0.003911  3.889903  -0.004
C  C85  1  0.83874949  0.66009522  0.83140462  1  -0.075725  0.00543  -0.161451  -0.192572  0.004089  3.890065  0.004
C  C86  1  0.66116787  0.16015849  0.33145302  1  -0.07753  -0.005705  -0.161253  -0.192659  -0.004115  3.890354  -0.004
C  C87  1  0.16114011  0.33983959  0.16855194  1  -0.077341  -0.005728  -0.161248  -0.192917  -0.004124  3.890269  -0.004
C  C88  1  0.23544923  0.94109413  0.65202498  1  0.301557  -0.001569  0.01468  0.010582  -0.001862  3.817803  0.001
C  C89  1  0.73547082  0.55889656  0.84798011  1  0.301658  0.001569  0.014643  0.010635  0.002065  3.817969  -0.001
C  C90  1  0.76440509  0.05899010  0.34808866  1  0.303115  -0.001595  0.01464  0.010272  -0.001921  3.818273  0.001
C  C91  1  0.26438682  0.44101866  0.15190749  1  0.303176  -0.0016  0.014649  0.010391  -0.001923  3.81862  0.001
C  C92  1  0.09332092  0.90474532  0.60531100  1  0.983787  -0.000842  0.230241  0.306007  -0.000871  3.972149  -0.002
C  C93  1  0.59333907  0.59524378  0.89470423  1  0.983635  0.000823  0.230188  0.305854  0.001018  3.972175  0.002
C  C94  1  0.90653230  0.09532502  0.39480032  1  0.980503  -0.000945  0.230146  0.305244  -0.000952  3.97051  -0.002
C  C95  1  0.40651526  0.40468534  0.10518707  1  0.98044  -0.001024  0.230073  0.304806  -0.001005  3.970777  -0.002
C  C96  1  0.92481892  0.82167906  0.51245521  1  0.353947  -0.003413  0.089822  0.130053  -0.002297  4.041637  -0.003
C  C97  1  0.42482166  0.67831182  0.98755003  1  0.35445  0.004086  0.090046  0.130365  0.003012  4.041636  0.003
C  C98  1  0.07519969  0.17845811  0.48755639  1  0.350964  -0.003684  0.090178  0.130367  -0.002484  4.0403  -0.003
C  C99  1  0.57518590  0.32154611  0.01243723  1  0.352027  -0.004308  0.090118  0.129977  -0.003034  4.040612  -0.003
C  C100  1  0.84275550  0.75311542  0.44666075  1  -0.046024  -0.000506  -0.095982  -0.190915  -0.000237  4.025899  -0.001
C  C101  1  0.34274347  0.74689037  0.05334822  1  -0.046176  0.000927  -0.096006  -0.191061  0.000769  4.025699  0.0
C  C102  1  0.15733586  0.24699293  0.55332130  1  -0.0467  -0.000369  -0.095439  -0.189371  -0.000136  4.024061  -0.001
C  C103  1  0.65733134  0.25300072  0.94666750  1  -0.046998  -0.001355  -0.095498  -0.189442  -0.001022  4.024116  -0.001
C  C104  1  0.69163683  0.77464186  0.44383128  1  -0.085734  0.000391  -0.097839  -0.09014  0.000291  4.009833  0.0
C  C105  1  0.19162238  0.72535975  0.05617036  1  -0.085487  0.000219  -0.097911  -0.090144  0.000174  4.010096  0.0
C  C106  1  0.30844240  0.22537444  0.55612800  1  -0.083077  9.4e-05  -0.097763  -0.090003  7.7e-05  4.009638  0.0
C  C107  1  0.80844362  0.27461812  0.94386225  1  -0.083251  -0.000122  -0.097636  -0.089782  -8.6e-05  4.00993  0.0
C  C108  1  0.62508101  0.86295463  0.50320832  1  -0.100457  0.000335  -0.101833  -0.10807  0.000222  4.035589  0.0
C  C109  1  0.12505976  0.63705168  0.99680440  1  -0.100319  -0.000512  -0.101747  -0.10773  -0.000368  4.035212  0.0
C  C110  1  0.37492105  0.13702695  0.49674310  1  -0.100761  0.00034  -0.101647  -0.107886  0.000266  4.034514  0.0
C  C111  1  0.87493127  0.36295833  0.00323797  1  -0.100798  0.000412  -0.101661  -0.10769  0.000285  4.03466  0.0
C  C112  1  0.70666290  0.93323232  0.56774767  1  -0.011008  -0.00039  -0.0933  -0.163792  -0.000202  3.962315  0.0
C  C113  1  0.20664909  0.56675959  0.93226096  1  -0.01078  0.0009  -0.093339  -0.163974  0.000562  3.962112  0.001
C  C114  1  0.29323994  0.06678501  0.43223239  1  -0.011373  -0.000476  -0.093245  -0.163282  -0.000264  3.961433  0.0
C  C115  1  0.79324713  0.43321122  0.06775531  1  -0.011042  -0.00096  -0.093389  -0.164038  -0.000565  3.961739  -0.001
C  C116  1  0.85824007  0.91151291  0.57162421  1  0.361452  -0.002244  0.08715  0.160475  -0.002259  4.024885  -0.002
C  C117  1  0.35823883  0.58847629  0.92839401  1  0.362399  0.00217  0.086947  0.160102  0.002324  4.025261  0.002
C  C118  1  0.14167710  0.08856194  0.42839701  1  0.355079  -0.00235  0.087304  0.159559  -0.002363  4.024963  -0.002
C  C119  1  0.64167392  0.41144224  0.07158492  1  0.357925  -0.002328  0.087405  0.160189  -0.002324  4.024963  -0.002
C  C120  1  0.31027994  0.10315090  0.76687634  1  -0.213371  -0.001369  -0.088847  -0.388668  -0.001693  3.86367  0.002
C  C121  1  0.81030587  0.39685494  0.73312985  1  -0.213204  0.001367  -0.088809  -0.3888  0.001959  3.863886  -0.002
C  C122  1  0.68986876  0.89697406  0.23301159  1  -0.215744  -0.000961  -0.08842  -0.389238  -0.00099  3.865667  0.003
C  C123  1  0.18984500  0.60301953  0.26697861  1  -0.215494  -0.000968  -0.088514  -0.389542  -0.000994  3.865933  0.003
N  N124  1  0.19599737  0.01584334  0.73841276  1  -0.954215  -0.143288  -0.324778  -0.078116  -0.095246  3.506745  -0.124
N  N125  1  0.69604687  0.48415610  0.76159435  1  -0.954282  0.143294  -0.324895  -0.078097  0.099656  3.506984  0.124
N  N126  1  0.80390216  0.98427554  0.26169907  1  -0.954569  -0.14977  -0.324484  -0.077147  -0.099458  3.50602  -0.129
N  N127  1  0.30385377  0.51572532  0.23829305  1  -0.955734  -0.149804  -0.324565  -0.076977  -0.099473  3.506284  -0.129
N  N128  1  0.96838333  0.96201480  0.62838620  1  -1.204123  -0.070399  -0.396043  -0.436655  -0.047687  3.627022  -0.059
N  N129  1  0.46839420  0.53797100  0.87163903  1  -1.204725  0.070393  -0.395859  -0.436153  0.049898  3.627083  0.059
N  N130  1  0.03145446  0.03800871  0.37172128  1  -1.200103  -0.073038  -0.395641  -0.435638  -0.049366  3.626695  -0.061
N  N131  1  0.53144691  0.46199890  0.12825986  1  -1.203285  -0.073082  -0.39573  -0.435691  -0.04937  3.626703  -0.061
N  N132  1  0.07290956  0.81979663  0.53646088  1  -1.278006  -0.001505  -0.361698  -0.308416  -0.000741  3.508273  -0.001
N  N133  1  0.57291712  0.68020033  0.96354670  1  -1.277787  0.001522  -0.361775  -0.308644  0.00086  3.508269  0.001
N  N134  1  0.92704179  0.18033841  0.46361132  1  -1.268477  -0.001492  -0.361165  -0.306696  -0.000736  3.5076  -0.001
N  N135  1  0.42702430  0.31966924  0.03637785  1  -1.268368  -0.001693  -0.361054  -0.306384  -0.00085  3.507606  -0.001
O  O136  1  0.06307312  0.23048678  0.79009833  1  -1.37742  -0.052461  -0.396578  -0.724361  -0.03272  2.37168  -0.043
O  O137  1  0.56308876  0.26950319  0.70992808  1  -1.377397  0.052003  -0.396546  -0.724298  0.034142  2.371981  0.043
O  O138  1  0.93790594  0.77059626  0.20815773  1  -1.381243  -0.083288  -0.397033  -0.725331  -0.052614  2.372578  -0.07
O  O139  1  0.43787770  0.72943141  0.29180582  1  -1.381137  -0.083624  -0.396972  -0.725577  -0.052832  2.372852  -0.07
O  O140  1  0.22592938  0.21728261  0.93331642  1  -1.458616  -0.005869  -0.395409  -0.75042  -0.003556  2.139163  -0.004
O  O141  1  0.72594214  0.28271836  0.56669622  1  -1.458555  0.003337  -0.39527  -0.750405  0.002063  2.139046  0.002
O  O142  1  0.77333406  0.78241787  0.06626134  1  -1.458037  -0.010068  -0.394597  -0.748222  -0.005872  2.142809  -0.008
O  O143  1  0.27330803  0.71756056  0.43371905  1  -1.458445  -0.012482  -0.394524  -0.748205  -0.007395  2.142599  -0.01
O  O144  1  0.29881599  0.34180080  0.80137707  1  -1.401489  0.064806  -0.400745  -0.728721  0.043856  2.357167  0.057
O  O145  1  0.79880157  0.15818584  0.69861762  1  -1.401647  -0.064925  -0.400831  -0.728828  -0.041882  2.356536  -0.057
O  O146  1  0.70116073  0.65908931  0.19917393  1  -1.406269  -0.08322  -0.401832  -0.731761  -0.053056  2.356623  -0.072
O  O147  1  0.20115307  0.84091398  0.30083405  1  -1.40606  -0.083252  -0.401906  -0.731884  -0.053069  2.356408  -0.072
