# generated using pymatgen
data_Zr3H10C31S6O29
_symmetry_space_group_name_H-M   'P 1'
_cell_length_a   16.59930283
_cell_length_b   16.35056140
_cell_length_c   16.43793520
_cell_angle_alpha   61.74712145
_cell_angle_beta   59.32132091
_cell_angle_gamma   59.84513529
_symmetry_Int_Tables_number   1
_chemical_formula_structural   Zr3H10C31S6O29
_chemical_formula_sum   'Zr6 H20 C62 S12 O58'
_cell_volume   3173.25198976
_cell_formula_units_Z   2
loop_
 _symmetry_equiv_pos_site_id
 _symmetry_equiv_pos_as_xyz
  1  'x, y, z'
loop_
 _atom_site_type_symbol
 _atom_site_label
 _atom_site_symmetry_multiplicity
 _atom_site_fract_x
 _atom_site_fract_y
 _atom_site_fract_z
 _atom_site_occupancy
 _atom_site_pbe_bader_charge
 _atom_site_pbe_bader_spin_density
 _atom_site_pbe_cm5_charge
 _atom_site_pbe_ddec_charge
 _atom_site_pbe_ddec_spin_density
 _atom_site_pbe_ddec_sum_bond_order
 _atom_site_pbe_magmom
Zr  Zr0  1  0.89447127  0.89685536  0.59415160  1  2.632857  0  1.641349  2.368784  0  2.798502  0
Zr  Zr1  1  0.11404895  0.09864155  0.39232458  1  2.630861  0  1.64202  2.367616  0  2.801986  0
Zr  Zr2  1  0.10592997  0.89127116  0.60432085  1  2.638941  0  1.631076  2.38011  0  2.718326  0
Zr  Zr3  1  0.89806316  0.10890695  0.38674233  1  2.639512  0  1.630571  2.380403  0  2.715753  0
Zr  Zr4  1  0.11343166  0.88857960  0.38410622  1  2.642011  0  1.638119  2.379544  0  2.72558  0
Zr  Zr5  1  0.89485588  0.10724369  0.60284124  1  2.62306  0  1.633831  2.357081  0  2.802994  0
H  H6  1  0.08128216  0.74703169  0.57453291  1  0.620574  0  0.335607  0.429864  0  0.849532  0
H  H7  1  0.09673171  0.07908059  0.24249147  1  0.599712  0  0.335145  0.42935  0  0.849026  0
H  H8  1  0.08758846  0.08113689  0.58283376  1  0.608735  0  0.335955  0.433876  0  0.841017  0
H  H9  1  0.74798125  0.08745735  0.57659400  1  0.604072  0  0.335986  0.434105  0  0.841734  0
H  H10  1  0.08465812  0.65223315  0.88041613  1  0.14938  0  0.114079  0.122676  0  1.029741  0
H  H11  1  0.81807387  0.67690772  0.87498034  1  0.171792  0  0.12265  0.139524  0  0.989266  0
H  H12  1  0.88252162  0.38508371  0.14773284  1  0.111433  0  0.113812  0.122481  0  1.029979  0
H  H13  1  0.12995167  0.37962441  0.17229292  1  0.148095  0  0.122786  0.139397  0  0.990022  0
H  H14  1  0.83943148  0.31181886  0.63042201  1  0.676629  0  0.303263  0.349505  0  1.002031  0
H  H15  1  0.16232065  0.58360564  0.23875348  1  0.61595  0  0.330096  0.371911  0  0.888598  0
H  H16  1  0.51518994  0.74362670  0.07741472  1  0.620331  0  0.329843  0.371795  0  0.891311  0
H  H17  1  0.71895286  0.13398366  0.80837987  1  0.645372  0  0.303384  0.349985  0  0.99967  0
H  H18  1  0.15907729  0.76425557  0.92176840  1  0.654476  0  0.312634  0.374283  0  0.943524  0
H  H19  1  0.75288642  0.13174705  0.13835444  1  0.630144  0  0.353155  0.390271  0  0.846008  0
H  H20  1  0.47620640  0.64518364  0.62655754  1  0.643526  0  0.352674  0.390472  0  0.846312  0
H  H21  1  0.65500492  0.42625294  0.25995617  1  0.649717  0  0.312768  0.374859  0  0.943082  0
H  H22  1  0.30174478  0.13751579  0.34527196  1  0.627922  0  0.301393  0.345497  0  1.009239  0
H  H23  1  0.71742271  0.84724786  0.63029774  1  0.649777  0  0.301432  0.345174  0  1.009601  0
H  H24  1  0.26016682  0.56066357  0.87084342  1  0.671215  0  0.319187  0.391968  0  0.924676  0
H  H25  1  0.80834900  0.37568563  0.05581133  1  0.672516  0  0.319271  0.391941  0  0.923647  0
C  C26  1  0.00315901  0.73704279  0.47347017  1  1.569724  0  0.231641  0.655711  0  4.140001  0
C  C27  1  0.28612498  0.97768584  0.23291073  1  1.547547  0  0.231426  0.655231  0  4.139955  0
C  C28  1  0.99800386  0.27477057  0.49668680  1  1.550937  0  0.230172  0.641416  0  4.150637  0
C  C29  1  0.73038805  0.00112925  0.77057693  1  1.5462  0  0.230633  0.642186  0  4.148412  0
C  C30  1  0.97622792  0.74389815  0.76936589  1  1.56593  0  0.240119  0.643037  0  4.093921  0
C  C31  1  0.73609274  0.99180815  0.48583074  1  1.537118  0  0.23137  0.647438  0  4.114548  0
C  C32  1  0.01032216  0.27397666  0.23930783  1  1.559851  0  0.239868  0.64204  0  4.096205  0
C  C33  1  0.28549979  0.99074844  0.48747846  1  1.551664  0  0.230959  0.646406  0  4.118143  0
C  C34  1  0.27074133  0.72091026  0.50385043  1  1.561288  0  0.228479  0.645267  0  4.149283  0
C  C35  1  0.99402899  0.00539970  0.76900582  1  1.555917  0  0.227467  0.647713  0  4.146447  0
C  C36  1  0.73161162  0.27369474  0.50108354  1  1.553473  0  0.22749  0.648275  0  4.146173  0
C  C37  1  0.00445698  0.00839051  0.21626563  1  1.586521  0  0.228324  0.644923  0  4.150494  0
C  C38  1  0.91849117  0.43612346  0.54572597  1  -0.005029  0  -0.015461  -0.088362  0  3.977129  0
C  C39  1  0.07618331  0.58642907  0.41256291  1  0.05723  0  -0.017555  -0.095708  0  3.998534  0
C  C40  1  0.99213711  0.36920699  0.49113120  1  -0.1486  0  -0.018836  -0.158769  0  3.950321  0
C  C41  1  0.00246906  0.64944977  0.47082629  1  -0.168311  0  -0.018048  -0.154245  0  3.945189  0
C  C42  1  0.04390021  0.50931720  0.43753854  1  -0.176089  0  -0.018702  -0.051294  0  4.073382  0
C  C43  1  0.94944970  0.51605040  0.51339526  1  -0.132911  0  -0.012999  -0.02538  0  4.083538  0
C  C44  1  0.42479405  0.91687506  0.08222934  1  0.134118  0  -0.017808  -0.096755  0  4.000182  0
C  C45  1  0.60048808  0.04909634  0.93275795  1  0.017035  0  -0.01558  -0.088261  0  3.978408  0
C  C46  1  0.37743211  0.97469106  0.14561982  1  -0.207773  0  -0.017317  -0.152164  0  3.94157  0
C  C47  1  0.64773844  0.99521423  0.86532290  1  -0.12778  0  -0.018578  -0.159062  0  3.949116  0
C  C48  1  0.52179408  0.01688437  0.01256755  1  -0.130779  0  -0.013341  -0.025515  0  4.081984  0
C  C49  1  0.50941306  0.94166057  0.00536271  1  -0.211893  0  -0.018872  -0.051295  0  4.07453  0
C  C50  1  0.07156263  0.95181473  0.89323459  1  0.020639  0  -0.011404  -0.076722  0  3.966436  0
C  C51  1  0.93575400  0.08400003  0.07688361  1  -0.011136  0  -0.021756  -0.12066  0  4.00919  0
C  C52  1  0.99645903  0.01131127  0.85364420  1  -0.111102  0  -0.020296  -0.152769  0  3.948991  0
C  C53  1  0.00585353  0.01636067  0.12268581  1  -0.07642  0  -0.012919  -0.140496  0  3.929272  0
C  C54  1  0.95643928  0.05658721  0.99622861  1  -0.177082  0  -0.018331  -0.044534  0  4.069214  0
C  C55  1  0.04564206  0.97475306  0.97841041  1  -0.158973  0  -0.015408  -0.043375  0  4.05355  0
C  C56  1  0.40353924  0.58203882  0.57930191  1  0.032857  0  -0.021456  -0.119135  0  4.007494  0
C  C57  1  0.58363269  0.39808581  0.44745350  1  0.057085  0  -0.011441  -0.076879  0  3.970129  0
C  C58  1  0.35524061  0.62757130  0.51173167  1  -0.114526  0  -0.013019  -0.140867  0  3.929609  0
C  C59  1  0.63888951  0.35864366  0.50683062  1  -0.170043  0  -0.020193  -0.152879  0  3.950044  0
C  C60  1  0.50140218  0.48326642  0.47031237  1  -0.120955  0  -0.015527  -0.043092  0  4.055134  0
C  C61  1  0.49093602  0.50132649  0.55198999  1  -0.172882  0  -0.018484  -0.045398  0  4.069651  0
C  C62  1  0.02417397  0.62415693  0.91436118  1  0.007458  0  -0.065058  -0.108313  0  3.896277  0
C  C63  1  0.87369392  0.63778780  0.90975569  1  -0.030788  0  -0.062632  -0.082006  0  3.925465  0
C  C64  1  0.86320459  0.56056928  0.99564812  1  -0.152112  0  -0.010838  -0.140655  0  3.931378  0
C  C65  1  0.93644405  0.50769526  0.04124562  1  0.027083  0  0.009135  0.080557  0  3.955082  0
C  C66  1  0.93716916  0.41900664  0.11962178  1  -0.021856  0  -0.064555  -0.10789  0  3.896769  0
C  C67  1  0.07868606  0.41437105  0.13318213  1  0.004042  0  -0.062793  -0.081967  0  3.926036  0
C  C68  1  0.08050817  0.50024832  0.05593840  1  -0.160055  0  -0.010174  -0.139778  0  3.92898  0
C  C69  1  0.01454245  0.54581072  0.00305088  1  -0.014813  0  0.00884  0.080713  0  3.953722  0
C  C70  1  0.95784312  0.66662090  0.86677560  1  -0.004242  0  -0.007263  -0.021383  0  3.949404  0
C  C71  1  0.00865490  0.37139911  0.16204911  1  0.046745  0  -0.007719  -0.021437  0  3.948811  0
C  C72  1  0.43558644  0.05157795  0.40905335  1  -0.02684  0  -0.019393  -0.097527  0  3.963924  0
C  C73  1  0.60492379  0.91234550  0.54496557  1  0.015522  0  -0.019316  -0.097045  0  3.964735  0
C  C74  1  0.38053538  0.98746389  0.47690588  1  -0.128125  0  -0.021203  -0.166139  0  3.910209  0
C  C75  1  0.65513382  0.98122607  0.48211896  1  -0.14211  0  -0.021391  -0.166969  0  3.90894  0
C  C76  1  0.52618332  0.93805553  0.51592795  1  -0.121622  0  -0.012632  -0.025104  0  4.065397  0
C  C77  1  0.51849590  0.02180849  0.43382800  1  -0.153596  0  -0.012559  -0.02492  0  4.064112  0
C  C78  1  0.81894090  0.43900458  0.62777121  1  1.593277  0  0.223549  0.568988  0  4.16028  0
C  C79  1  0.17976326  0.58813438  0.34593596  1  1.570686  0  0.235816  0.599391  0  4.114548  0
C  C80  1  0.38595867  0.85099186  0.08298173  1  1.574473  0  0.235593  0.600433  0  4.112101  0
C  C81  1  0.61601017  0.13013516  0.93634696  1  1.595783  0  0.224035  0.569558  0  4.161773  0
C  C82  1  0.17562477  0.89393587  0.83720485  1  1.618146  0  0.236905  0.60954  0  4.130939  0
C  C83  1  0.85762353  0.17993171  0.09710050  1  1.54927  0  0.256135  0.625761  0  4.067971  0
C  C84  1  0.36538026  0.60249948  0.67516551  1  1.56176  0  0.255765  0.625713  0  4.06879  0
C  C85  1  0.59333496  0.34189134  0.38986571  1  1.595861  0  0.236679  0.609413  0  4.13251  0
C  C86  1  0.42586762  0.14018198  0.32034977  1  1.584434  0  0.222684  0.573847  0  4.15511  0
C  C87  1  0.61668394  0.82173699  0.63156303  1  1.557534  0  0.222685  0.572319  0  4.157459  0
S  S88  1  0.09550070  0.40411360  0.40311335  1  0.319903  0  0.126252  0.195744  0  2.78423  0
S  S89  1  0.89703574  0.61664330  0.55379677  1  0.418803  0  0.137865  0.219646  0  2.891448  0
S  S90  1  0.43339867  0.05680686  0.11354639  1  0.415392  0  0.137428  0.218115  0  2.883376  0
S  S91  1  0.59698043  0.90775386  0.89981094  1  0.304901  0  0.126176  0.195501  0  2.784109  0
S  S92  1  0.89992412  0.10031042  0.91290688  1  0.30848  0  0.110422  0.173205  0  2.75146  0
S  S93  1  0.09929968  0.92667797  0.06460221  1  0.380911  0  0.151662  0.242817  0  2.792387  0
S  S94  1  0.40953197  0.56921399  0.42227615  1  0.374353  0  0.151301  0.241964  0  2.791957  0
S  S95  1  0.58712591  0.41810060  0.59568363  1  0.300589  0  0.110038  0.172867  0  2.747711  0
S  S96  1  0.43210844  0.89297893  0.56532850  1  0.39113  0  0.1367  0.217461  0  2.894225  0
S  S97  1  0.60769409  0.07167834  0.38946147  1  0.404768  0  0.137639  0.219548  0  2.892689  0
S  S98  1  0.16351357  0.55688173  0.02900320  1  3.103481  0  0.556763  1.185152  0  5.989818  0
S  S99  1  0.75046659  0.53378286  0.05207856  1  3.122191  0  0.556799  1.185476  0  5.988656  0
O  O100  1  0.93249600  0.77275758  0.54463054  1  -1.177121  0  -0.358265  -0.619272  0  2.299399  0
O  O101  1  0.24983104  0.04892066  0.26852672  1  -1.172469  0  -0.358059  -0.618404  0  2.299428  0
O  O102  1  0.07236630  0.23248081  0.43270552  1  -1.178171  0  -0.343073  -0.592061  0  2.312602  0
O  O103  1  0.76192396  0.93745181  0.72805629  1  -1.177167  0  -0.343091  -0.592451  0  2.310131  0
O  O104  1  0.04808914  0.77304244  0.73754248  1  -1.169617  0  -0.340487  -0.602376  0  2.265589  0
O  O105  1  0.77022308  0.06055222  0.42066047  1  -1.172921  0  -0.327503  -0.586017  0  2.238071  0
O  O106  1  0.94108955  0.24221876  0.26845553  1  -1.167169  0  -0.340226  -0.602306  0  2.265671  0
O  O107  1  0.24819202  0.92520334  0.55593024  1  -1.170949  0  -0.327353  -0.585473  0  2.23888  0
O  O108  1  0.24315675  0.75416037  0.43139504  1  -1.160132  0  -0.328897  -0.584483  0  2.245552  0
O  O109  1  0.92446466  0.07285113  0.73553230  1  -1.17825  0  -0.361886  -0.618381  0  2.271871  0
O  O110  1  0.76713136  0.23994188  0.56864517  1  -1.176599  0  -0.362121  -0.618109  0  2.272736  0
O  O111  1  0.07102833  0.93581705  0.24976152  1  -1.165601  0  -0.329061  -0.584323  0  2.248333  0
O  O112  1  0.06226055  0.93290543  0.73440441  1  -1.168719  0  -0.353353  -0.608739  0  2.282695  0
O  O113  1  0.77027229  0.23913423  0.42860394  1  -1.173957  0  -0.353259  -0.609247  0  2.283398  0
O  O114  1  0.93378962  0.07661291  0.25681361  1  -1.180968  0  -0.371208  -0.621699  0  2.301497  0
O  O115  1  0.23246073  0.76144886  0.57213467  1  -1.171157  0  -0.371449  -0.621826  0  2.302909  0
O  O116  1  0.91789058  0.77382650  0.72435465  1  -1.179737  0  -0.362225  -0.612257  0  2.293915  0
O  O117  1  0.24323298  0.06371774  0.42554644  1  -1.202148  0  -0.360983  -0.622468  0  2.372072  0
O  O118  1  0.08378626  0.22882362  0.26918913  1  -1.182736  0  -0.362298  -0.61174  0  2.294789  0
O  O119  1  0.76724185  0.92976256  0.55883832  1  -1.184672  0  -0.360663  -0.622703  0  2.364982  0
O  O120  1  0.76494166  0.07113978  0.73534705  1  -1.1831  0  -0.348287  -0.606842  0  2.364593  0
O  O121  1  0.07307153  0.77102684  0.40675625  1  -1.169588  0  -0.359679  -0.599405  0  2.307638  0
O  O122  1  0.24879195  0.91115806  0.26667811  1  -1.163205  0  -0.359291  -0.599116  0  2.30812  0
O  O123  1  0.92868280  0.23953007  0.56668940  1  -1.18761  0  -0.348315  -0.606916  0  2.36654  0
O  O124  1  0.82030168  0.06324335  0.55321557  1  -1.230613  0  -0.696474  -1.076121  0  2.348344  0
O  O125  1  0.06285497  0.05766396  0.55872445  1  -1.232112  0  -0.697092  -1.076021  0  2.349728  0
O  O126  1  0.06927593  0.05597413  0.31413851  1  -1.222997  0  -0.690733  -1.067709  0  2.34686  0
O  O127  1  0.06019064  0.81867259  0.55141325  1  -1.245453  0  -0.691176  -1.068702  0  2.349257  0
O  O128  1  0.13637327  0.94934971  0.45329061  1  -1.198598  0  -0.791676  -1.151847  0  2.14114  0
O  O129  1  0.96049634  0.95785325  0.44487466  1  -1.198859  0  -0.791561  -1.152367  0  2.140563  0
O  O130  1  0.96047126  0.13169915  0.45294112  1  -1.198231  0  -0.795248  -1.151214  0  2.146988  0
O  O131  1  0.95446056  0.95741492  0.62721556  1  -1.198736  0  -0.795649  -1.15162  0  2.146186  0
O  O132  1  0.78754562  0.36350847  0.66535095  1  -1.174178  0  -0.337258  -0.465979  0  2.296529  0
O  O133  1  0.76876096  0.51194123  0.65805191  1  -1.101302  0  -0.272668  -0.436729  0  2.092258  0
O  O134  1  0.21255589  0.58379517  0.25330937  1  -1.08824  0  -0.321172  -0.450222  0  2.210309  0
O  O135  1  0.23490158  0.58793914  0.37396497  1  -1.09298  0  -0.271453  -0.448986  0  2.118136  0
O  O136  1  0.45022059  0.75875157  0.07719424  1  -1.099019  0  -0.320826  -0.450402  0  2.211138  0
O  O137  1  0.30276611  0.87931263  0.08312953  1  -1.098057  0  -0.271575  -0.449865  0  2.117656  0
O  O138  1  0.68498513  0.16805600  0.86065399  1  -1.156896  0  -0.336951  -0.465948  0  2.295989  0
O  O139  1  0.56404482  0.15930173  0.00999944  1  -1.101502  0  -0.273878  -0.438263  0  2.090717  0
O  O140  1  0.20919119  0.79524917  0.86747026  1  -1.145429  0  -0.326167  -0.462771  0  2.261434  0
O  O141  1  0.22871261  0.94036417  0.76729838  1  -1.099369  0  -0.277657  -0.454383  0  2.059899  0
O  O142  1  0.76192466  0.19221406  0.12496508  1  -1.085177  0  -0.298294  -0.432331  0  2.220793  0
O  O143  1  0.87906104  0.24932586  0.08111849  1  -1.119203  0  -0.257582  -0.454104  0  2.118679  0
O  O144  1  0.42034668  0.63133310  0.68714109  1  -1.10219  0  -0.297329  -0.432217  0  2.223032  0
O  O145  1  0.29088359  0.58587796  0.74475074  1  -1.124968  0  -0.25722  -0.454002  0  2.120541  0
O  O146  1  0.62829918  0.37185018  0.29117789  1  -1.114415  0  -0.326044  -0.463047  0  2.261949  0
O  O147  1  0.56355215  0.27209077  0.43652804  1  -1.102214  0  -0.277014  -0.453653  0  2.061137  0
O  O148  1  0.34543924  0.17877850  0.29687609  1  -1.140163  0  -0.340352  -0.469038  0  2.27476  0
O  O149  1  0.49283761  0.17541364  0.27157277  1  -1.103296  0  -0.280136  -0.445761  0  2.082995  0
O  O150  1  0.68228542  0.79769072  0.67003337  1  -1.157018  0  -0.339786  -0.467397  0  2.279161  0
O  O151  1  0.56453160  0.77203860  0.66529662  1  -1.093138  0  -0.280746  -0.446217  0  2.083601  0
O  O152  1  0.25902187  0.52177951  0.94083873  1  -1.2493  0  -0.341833  -0.511952  0  2.208127  0
O  O153  1  0.19359062  0.51380862  0.11249818  1  -1.28864  0  -0.299399  -0.519618  0  2.140864  0
O  O154  1  0.11407453  0.66342852  0.99849258  1  -1.309555  0  -0.314592  -0.572205  0  2.212945  0
O  O155  1  0.77827208  0.44560075  0.01696635  1  -1.242772  0  -0.341395  -0.511503  0  2.207943  0
O  O156  1  0.68012841  0.61731464  0.00880700  1  -1.299695  0  -0.299758  -0.520234  0  2.139292  0
O  O157  1  0.72368047  0.50333045  0.15864280  1  -1.324203  0  -0.31431  -0.57205  0  2.211749  0
