# generated using pymatgen
data_AgH2(CO)2
_symmetry_space_group_name_H-M   'P 1'
_cell_length_a   8.41115861
_cell_length_b   8.41113427
_cell_length_c   10.00347125
_cell_angle_alpha   114.30602160
_cell_angle_beta   114.30664236
_cell_angle_gamma   91.17961936
_symmetry_Int_Tables_number   1
_chemical_formula_structural   AgH2(CO)2
_chemical_formula_sum   'Ag8 H16 C16 O16'
_cell_volume   572.22357586
_cell_formula_units_Z   8
loop_
 _symmetry_equiv_pos_site_id
 _symmetry_equiv_pos_as_xyz
  1  'x, y, z'
loop_
 _atom_site_type_symbol
 _atom_site_label
 _atom_site_symmetry_multiplicity
 _atom_site_fract_x
 _atom_site_fract_y
 _atom_site_fract_z
 _atom_site_occupancy
 _atom_site_pbe_bader_spin_density
 _atom_site_pbe_cm5_charge
 _atom_site_pbe_ddec_charge
 _atom_site_pbe_ddec_spin_density
 _atom_site_pbe_ddec_sum_bond_order
 _atom_site_pbe_magmom
Ag  Ag0  1  0.77538569  0.02532548  0.05057584  1  0  0.410018  0.454099  0  2.035173  0
Ag  Ag1  1  0.22461361  0.97467483  0.94942307  1  0  0.409994  0.454063  0  2.035306  0
Ag  Ag2  1  0.52532439  0.27538830  0.55057583  1  0  0.409999  0.454083  0  2.035304  0
Ag  Ag3  1  0.47467230  0.72461200  0.44942217  1  0  0.410003  0.454063  0  2.035235  0
Ag  Ag4  1  0.49760806  0.74766951  0.75012199  1  0  0.389492  0.365888  0  2.155455  0
Ag  Ag5  1  0.24766945  0.99760804  0.25012320  1  0  0.389488  0.365863  0  2.155342  0
Ag  Ag6  1  0.50239255  0.25233081  0.24987738  1  0  0.389501  0.365904  0  2.155371  0
Ag  Ag7  1  0.75232925  0.00238959  0.74987458  1  0  0.389487  0.365905  0  2.155392  0
H  H8  1  0.40383094  0.42662372  0.81073816  1  0  0.095465  0.118744  0  1.024169  0
H  H9  1  0.09320839  0.61592276  0.18924424  1  0  0.095612  0.118566  0  1.024676  0
H  H10  1  0.92661781  0.90382983  0.31073463  1  0  0.09546  0.11872  0  1.024061  0
H  H11  1  0.11592228  0.59320388  0.68924323  1  0  0.095624  0.118551  0  1.024684  0
H  H12  1  0.59617026  0.57337928  0.18926033  1  0  0.095472  0.118778  0  1.024184  0
H  H13  1  0.90679482  0.38407757  0.81075503  1  0  0.095617  0.118556  0  1.024687  0
H  H14  1  0.07338209  0.09617316  0.68926641  1  0  0.095485  0.118782  0  1.024107  0
H  H15  1  0.88407602  0.40679777  0.31075479  1  0  0.095616  0.118539  0  1.024685  0
H  H16  1  0.33136577  0.35487945  0.92506596  1  0  0.101091  0.121603  0  1.000866  0
H  H17  1  0.90652393  0.42988730  0.07514295  1  0  0.100693  0.120807  0  1.001532  0
H  H18  1  0.85488088  0.83136604  0.42506745  1  0  0.101099  0.121617  0  1.000886  0
H  H19  1  0.92988565  0.40652081  0.57514003  1  0  0.100678  0.120774  0  1.001543  0
H  H20  1  0.66863483  0.64512087  0.07493541  1  0  0.101076  0.1216  0  1.000883  0
H  H21  1  0.09347567  0.57011435  0.92485652  1  0  0.100687  0.120786  0  1.001547  0
H  H22  1  0.14511902  0.16863696  0.57493360  1  0  0.101081  0.121619  0  1.000836  0
H  H23  1  0.07011234  0.59347950  0.42485843  1  0  0.100671  0.120751  0  1.001564  0
C  C24  1  0.56485217  0.27312578  0.91616098  1  0  0.212243  0.627024  0  4.09469  0
C  C25  1  0.14879555  0.35703286  0.08379571  1  0  0.212308  0.627772  0  4.09477  0
C  C26  1  0.77312946  0.06484722  0.41615788  1  0  0.212203  0.626966  0  4.094314  0
C  C27  1  0.85702516  0.64879190  0.58378877  1  0  0.21233  0.627786  0  4.094791  0
C  C28  1  0.43515045  0.72687187  0.08384416  1  0  0.212232  0.627016  0  4.094464  0
C  C29  1  0.85120988  0.64297150  0.91621272  1  0  0.212312  0.627762  0  4.094671  0
C  C30  1  0.22686883  0.93515442  0.58383814  1  0  0.212212  0.627005  0  4.09432  0
C  C31  1  0.14297062  0.35120438  0.41621054  1  0  0.212355  0.627737  0  4.094734  0
C  C32  1  0.44935551  0.40969313  0.92258071  1  0  -0.166197  -0.268367  0  3.869602  0
C  C33  1  0.02689174  0.48717655  0.07746479  1  0  -0.165807  -0.267223  0  3.869947  0
C  C34  1  0.90969048  0.94935647  0.42258373  1  0  -0.166163  -0.268342  0  3.869643  0
C  C35  1  0.98717750  0.52688953  0.57746448  1  0  -0.165811  -0.267174  0  3.869843  0
C  C36  1  0.55064610  0.59030586  0.07741755  1  0  -0.166189  -0.268437  0  3.869666  0
C  C37  1  0.97311087  0.51282110  0.92253634  1  0  -0.165819  -0.267203  0  3.869857  0
C  C38  1  0.09030781  0.05064518  0.57741730  1  0  -0.166202  -0.268473  0  3.869692  0
C  C39  1  0.01281949  0.47311211  0.42253509  1  0  -0.165829  -0.267168  0  3.869863  0
O  O40  1  0.62627117  0.23632975  0.03714497  1  0  -0.322408  -0.521123  0  2.437311  0
O  O41  1  0.08926729  0.19932928  0.96281044  1  0  -0.322233  -0.521793  0  2.437958  0
O  O42  1  0.73633048  0.12627264  0.53715585  1  0  -0.322416  -0.521167  0  2.436783  0
O  O43  1  0.69933556  0.58926648  0.46281262  1  0  -0.322235  -0.521801  0  2.438243  0
O  O44  1  0.37372913  0.76366923  0.96284882  1  0  -0.322404  -0.521129  0  2.436969  0
O  O45  1  0.91073311  0.80066435  0.03718554  1  0  -0.32221  -0.521761  0  2.438242  0
O  O46  1  0.26366681  0.87373034  0.46284729  1  0  -0.322402  -0.521125  0  2.436941  0
O  O47  1  0.30066374  0.41073384  0.53718729  1  0  -0.322253  -0.521797  0  2.438116  0
O  O48  1  0.29457645  0.90517406  0.70852272  1  0  -0.319728  -0.487113  0  2.458679  0
O  O49  1  0.08601273  0.19654615  0.29156829  1  0  -0.320524  -0.488741  0  2.459468  0
O  O50  1  0.40517503  0.79457022  0.20852179  1  0  -0.319734  -0.487124  0  2.458855  0
O  O51  1  0.69653721  0.58601326  0.79156691  1  0  -0.320529  -0.488812  0  2.459325  0
O  O52  1  0.70542476  0.09482894  0.29148078  1  0  -0.319729  -0.487102  0  2.458826  0
O  O53  1  0.91398526  0.80345416  0.70843417  1  0  -0.320535  -0.488797  0  2.459402  0
O  O54  1  0.59483019  0.20542744  0.79147725  1  0  -0.319744  -0.487166  0  2.458769  0
O  O55  1  0.30345858  0.41398303  0.20843339  1  0  -0.320502  -0.488788  0  2.459558  0
