# generated using pymatgen
data_AlH10C15(NO3)2
_symmetry_space_group_name_H-M   'P 1'
_cell_length_a   6.72700262
_cell_length_b   16.88680448
_cell_length_c   17.86482776
_cell_angle_alpha   85.49508782
_cell_angle_beta   78.83798946
_cell_angle_gamma   83.41596019
_symmetry_Int_Tables_number   1
_chemical_formula_structural   AlH10C15(NO3)2
_chemical_formula_sum   'Al2 H20 C30 N4 O12'
_cell_volume   1974.57273952
_cell_formula_units_Z   2
loop_
 _symmetry_equiv_pos_site_id
 _symmetry_equiv_pos_as_xyz
  1  'x, y, z'
loop_
 _atom_site_type_symbol
 _atom_site_label
 _atom_site_symmetry_multiplicity
 _atom_site_fract_x
 _atom_site_fract_y
 _atom_site_fract_z
 _atom_site_occupancy
 _atom_site_pbe_bader_charge
 _atom_site_pbe_bader_spin_density
 _atom_site_pbe_cm5_charge
 _atom_site_pbe_ddec_charge
 _atom_site_pbe_ddec_spin_density
 _atom_site_pbe_ddec_sum_bond_order
 _atom_site_pbe_magmom
Al  Al0  1  0.50211749  0.49943690  0.49699708  1  2.509119  0  0.401931  1.642287  0  2.579999  0
Al  Al1  1  0.00277474  0.49889774  0.49638291  1  2.505862  0  0.400889  1.654471  0  2.567682  0
H  H2  1  0.75965351  0.58542915  0.43341354  1  0.647945  0  0.354819  0.431097  0  0.851112  0
H  H3  1  0.22917886  0.43695090  0.58269015  1  0.619602  0  0.353925  0.427711  0  0.857013  0
H  H4  1  0.13992734  0.26684909  0.45547271  1  0.082411  0  0.107803  0.110057  0  1.00745  0
H  H5  1  0.21003197  0.11727800  0.45613950  1  0.089582  0  0.101089  0.109158  0  1.029531  0
H  H6  1  0.56904503  0.09809990  0.53014783  1  0.068872  0  0.109625  0.123142  0  1.002254  0
H  H7  1  0.39685753  0.89752024  0.53337536  1  0.067381  0  0.10941  0.121768  0  1.002855  0
H  H8  1  0.82972138  0.88632582  0.45941199  1  0.083496  0  0.100897  0.108912  0  1.030043  0
H  H9  1  0.89946891  0.73727293  0.45999317  1  0.091854  0  0.101968  0.100575  0  1.02067  0
H  H10  1  0.68921950  0.49244533  0.26363093  1  0.141404  0  0.106791  0.117288  0  1.052078  0
H  H11  1  0.76127828  0.49606529  0.12229168  1  0.066605  0  0.102645  0.107557  0  1.012528  0
H  H12  1  0.11737454  0.49716247  0.12341441  1  0.08037  0  0.110884  0.130787  0  0.998741  0
H  H13  1  0.88907382  0.50446584  0.87109907  1  0.083374  0  0.111367  0.131834  0  0.996945  0
H  H14  1  0.31561479  0.50604942  0.73223731  1  0.151408  0  0.10362  0.112691  0  1.057043  0
H  H15  1  0.24526079  0.50353954  0.87332194  1  0.079084  0  0.10283  0.107868  0  1.01212  0
H  H16  1  0.42081036  0.31180725  0.52427242  1  0.525359  0  0.307884  0.31421  0  0.984819  0
H  H17  1  0.34040797  0.21629150  0.54450169  1  0.456421  0  0.30738  0.303703  0  0.957118  0
H  H18  1  0.53836298  0.68291345  0.53971753  1  0.504233  0  0.311751  0.323685  0  0.967752  0
H  H19  1  0.60097333  0.77714997  0.55714875  1  0.454898  0  0.31336  0.310323  0  0.942795  0
H  H20  1  0.00800878  0.49009883  0.32505067  1  0.628294  0  0.31611  0.356761  0  0.965494  0
H  H21  1  0.99120595  0.51279791  0.66911231  1  0.635038  0  0.311559  0.347368  0  0.983198  0
C  C22  1  0.32650646  0.49270224  0.35795187  1  1.459774  0  0.264324  0.652605  0  4.078516  0
C  C23  1  0.21154035  0.64465647  0.49657135  1  1.476563  0  0.258302  0.654491  0  4.08408  0
C  C24  1  0.67776491  0.50561992  0.63704221  1  1.497203  0  0.259684  0.648863  0  4.078428  0
C  C25  1  0.79288843  0.35474617  0.49613655  1  1.481449  0  0.263332  0.657306  0  4.075527  0
C  C26  1  0.81822227  0.26714796  0.49466098  1  0.052147  0  -0.031271  -0.180188  0  3.92792  0
C  C27  1  0.01700648  0.22873192  0.47352529  1  -0.024057  0  -0.086623  -0.067182  0  4.03923  0
C  C28  1  0.05718441  0.14671635  0.47382648  1  -0.045764  0  -0.112222  -0.208733  0  4.017227  0
C  C29  1  0.89118834  0.10024878  0.49608889  1  0.409888  0  0.090208  0.201565  0  4.076721  0
C  C30  1  0.69287682  0.13627228  0.51480302  1  -0.04578  0  -0.091805  -0.262578  0  3.880587  0
C  C31  1  0.64992248  0.22023380  0.51476263  1  0.46699  0  0.117908  0.324238  0  4.059865  0
C  C32  1  0.28824295  0.86107158  0.51824500  1  -0.007444  0  -0.090254  -0.261187  0  3.881409  0
C  C33  1  0.10975214  0.89920737  0.49847776  1  0.350534  0  0.086745  0.199031  0  4.078056  0
C  C34  1  0.96516369  0.85505806  0.47717445  1  -0.009089  0  -0.111041  -0.206346  0  4.016309  0
C  C35  1  0.00551072  0.77313022  0.47739456  1  -0.088065  0  -0.089208  -0.065125  0  4.044782  0
C  C36  1  0.18366714  0.73217191  0.49831875  1  0.066063  0  -0.033464  -0.184683  0  3.928753  0
C  C37  1  0.33004006  0.77699426  0.51951232  1  0.499337  0  0.116479  0.324844  0  4.067809  0
C  C38  1  0.36473562  0.49251433  0.27424562  1  -0.015206  0  -0.037487  -0.20591  0  3.994735  0
C  C39  1  0.56491843  0.49336044  0.23269931  1  -0.002813  0  -0.082085  -0.057396  0  4.009255  0
C  C40  1  0.60594216  0.49534367  0.15385091  1  0.004834  0  -0.097107  -0.159871  0  3.964751  0
C  C41  1  0.44411013  0.49684276  0.11324107  1  0.125975  0  0.009209  0.17164  0  4.134043  0
C  C42  1  0.24361330  0.49588490  0.15367147  1  0.034972  0  -0.096411  -0.252036  0  3.891006  0
C  C43  1  0.20228019  0.49341630  0.23356000  1  0.505028  0  0.096043  0.321889  0  4.069719  0
C  C44  1  0.48487708  0.49927074  0.03244665  1  -0.385398  0  -0.036173  -0.092963  0  4.091979  0
C  C45  1  0.52259957  0.50119032  0.96270057  1  0.006963  0  -0.037895  -0.100956  0  4.093884  0
C  C46  1  0.56265449  0.50334056  0.88192860  1  0.173995  0  0.009481  0.173114  0  4.134324  0
C  C47  1  0.76265515  0.50486819  0.84110387  1  0.032949  0  -0.097212  -0.252363  0  3.890046  0
C  C48  1  0.80262683  0.50725849  0.76125908  1  0.424345  0  0.094025  0.32071  0  4.068841  0
C  C49  1  0.64035152  0.50670790  0.72077535  1  0.042873  0  -0.039434  -0.208702  0  3.99455  0
C  C50  1  0.44059955  0.50558972  0.76276061  1  -0.056591  0  -0.083416  -0.055978  0  4.010814  0
C  C51  1  0.40047505  0.50419909  0.84157429  1  -0.094417  0  -0.095077  -0.157498  0  3.964826  0
N  N52  1  0.91021194  0.01582499  0.49881126  1  -0.547012  0  -0.145134  -0.129345  0  3.263376  0
N  N53  1  0.08935774  0.98348259  0.49941601  1  -0.481974  0  -0.145744  -0.130289  0  3.260143  0
N  N54  1  0.45379587  0.25241987  0.53577529  1  -1.290226  0  -0.58536  -0.602862  0  3.345116  0
N  N55  1  0.50437556  0.74287446  0.54123447  1  -1.276048  0  -0.580525  -0.603905  0  3.351927  0
O  O56  1  0.47301763  0.49639562  0.39259694  1  -1.259963  0  -0.232426  -0.576997  0  2.33395  0
O  O57  1  0.05811424  0.60850820  0.49107262  1  -1.280058  0  -0.248358  -0.617748  0  2.349412  0
O  O58  1  0.86594034  0.50722744  0.60165282  1  -1.258831  0  -0.243473  -0.620179  0  2.388065  0
O  O59  1  0.61364904  0.39094543  0.49698985  1  -1.268027  0  -0.238236  -0.604687  0  2.372704  0
O  O60  1  0.52969298  0.50240639  0.60302832  1  -1.258091  0  -0.237403  -0.587915  0  2.341614  0
O  O61  1  0.94966056  0.39039153  0.49770093  1  -1.268339  0  -0.245134  -0.606475  0  2.340665  0
O  O62  1  0.13895639  0.49019780  0.39277836  1  -1.268619  0  -0.238961  -0.611238  0  2.40089  0
O  O63  1  0.38964564  0.60883213  0.50003109  1  -1.277057  0  -0.241509  -0.618721  0  2.373316  0
O  O64  1  0.76000313  0.53436344  0.46223110  1  -1.454421  0  -0.448901  -0.992394  0  2.186718  0
O  O65  1  0.24376215  0.46462513  0.53262895  1  -1.426451  0  -0.450011  -0.990229  0  2.183552  0
O  O66  1  0.00623463  0.49250048  0.26895003  1  -1.138532  0  -0.340931  -0.434282  0  2.315241  0
O  O67  1  0.99764905  0.51011870  0.72492428  1  -1.156222  0  -0.343983  -0.436588  0  2.315387  0
