# generated using pymatgen
data_DyH27C24S6(NO3)3
_symmetry_space_group_name_H-M   'P 1'
_cell_length_a   7.73331407
_cell_length_b   11.64503828
_cell_length_c   17.45600000
_cell_angle_alpha   93.89469034
_cell_angle_beta   94.77278800
_cell_angle_gamma   91.85264252
_symmetry_Int_Tables_number   1
_chemical_formula_structural   DyH27C24S6(NO3)3
_chemical_formula_sum   'Dy2 H54 C48 S12 N6 O18'
_cell_volume   1561.78597249
_cell_formula_units_Z   2
loop_
 _symmetry_equiv_pos_site_id
 _symmetry_equiv_pos_as_xyz
  1  'x, y, z'
loop_
 _atom_site_type_symbol
 _atom_site_label
 _atom_site_symmetry_multiplicity
 _atom_site_fract_x
 _atom_site_fract_y
 _atom_site_fract_z
 _atom_site_occupancy
 _atom_site_hle17_bader_spin_density
 _atom_site_hle17_ddec_charge
 _atom_site_hle17_ddec_spin_density
 _atom_site_hle17_ddec_sum_bond_order
 _atom_site_hle17_magmom
 _atom_site_hse06_10hf_bader_spin_density
 _atom_site_hse06_10hf_ddec_charge
 _atom_site_hse06_10hf_ddec_spin_density
 _atom_site_hse06_10hf_ddec_sum_bond_order
 _atom_site_hse06_10hf_magmom
 _atom_site_hse06_bader_spin_density
 _atom_site_hse06_ddec_charge
 _atom_site_hse06_ddec_spin_density
 _atom_site_hse06_ddec_sum_bond_order
 _atom_site_hse06_magmom
 _atom_site_pbe_bader_charge
 _atom_site_pbe_bader_spin_density
 _atom_site_pbe_cm5_charge
 _atom_site_pbe_ddec_charge
 _atom_site_pbe_ddec_spin_density
 _atom_site_pbe_ddec_sum_bond_order
 _atom_site_pbe_magmom
Dy  Dy0  1  0.78047538  0.58877498  0.75357495  1  0  2.187449  0  1.65193  0  0  2.043665  0  2.122322  0  0  2.093474  0  2.081339  0  2.15614  0  1.48032  2.005638  0  2.15502  0
Dy  Dy1  1  0.21952784  0.41122377  0.24642517  1  0  2.187474  0  1.651939  0  0  2.043701  0  2.122346  0  0  2.093501  0  2.081369  0  2.156045  0  1.480369  2.005666  0  2.155073  0
H  H2  1  0.43866520  0.69332149  0.96227029  1  0  0.08866  0  0.967643  0  0  0.103452  0  1.023414  0  0  0.106146  0  1.021208  0  0.093695  0  0.104968  0.101492  0  1.024991  0
H  H3  1  0.56134316  0.30667639  0.03772826  1  0  0.088673  0  0.967663  0  0  0.103468  0  1.023419  0  0  0.10616  0  1.021218  0  0.093803  0  0.104991  0.10151  0  1.024993  0
H  H4  1  0.33678150  0.82004608  0.07257608  1  0  0.095679  0  0.98446  0  0  0.100142  0  1.056873  0  0  0.103647  0  1.055873  0  0.09197  0  0.095468  0.097692  0  1.057669  0
H  H5  1  0.66321773  0.17995093  0.92741981  1  0  0.095659  0  0.984457  0  0  0.100133  0  1.056841  0  0  0.103638  0  1.055838  0  0.091979  0  0.095453  0.097679  0  1.057643  0
H  H6  1  0.53754201  0.98056149  0.13068450  1  0  0.061453  0  0.963393  0  0  0.065559  0  1.039524  0  0  0.068493  0  1.035936  0  0.105516  0  0.101516  0.063432  0  1.042093  0
H  H7  1  0.46245103  0.01944070  0.86931540  1  0  0.061453  0  0.963413  0  0  0.065547  0  1.039559  0  0  0.06848  0  1.035972  0  0.105544  0  0.101496  0.06342  0  1.042128  0
H  H8  1  0.18084680  0.42617252  0.71985349  1  0  0.126576  0  0.935106  0  0  0.13339  0  0.997941  0  0  0.138095  0  0.993179  0  0.159234  0  0.11735  0.129997  0  1.001249  0
H  H9  1  0.81915398  0.57382881  0.28014609  1  0  0.126602  0  0.935111  0  0  0.133434  0  0.99792  0  0  0.138139  0  0.993155  0  0.159267  0  0.117363  0.130041  0  1.001226  0
H  H10  1  0.95884855  0.26191713  0.71101084  1  0  0.112197  0  0.983285  0  0  0.115474  0  1.055353  0  0  0.119636  0  1.053393  0  0.138517  0  0.100079  0.112488  0  1.056919  0
H  H11  1  0.04114199  0.73808678  0.28899305  1  0  0.112231  0  0.983366  0  0  0.115539  0  1.05535  0  0  0.119697  0  1.053414  0  0.138621  0  0.100114  0.11255  0  1.056911  0
H  H12  1  0.06596403  0.06158231  0.72104455  1  0  0.058279  0  0.96488  0  0  0.059302  0  1.04438  0  0  0.062314  0  1.041522  0  0.078432  0  0.098791  0.057116  0  1.046393  0
H  H13  1  0.93402532  0.93842332  0.27895594  1  0  0.058206  0  0.964857  0  0  0.059233  0  1.044393  0  0  0.06223  0  1.04155  0  0.078106  0  0.098748  0.057044  0  1.046412  0
H  H14  1  0.72011686  0.12171411  0.49048800  1  0  0.055415  0  0.959052  0  0  0.066327  0  1.02435  0  0  0.068286  0  1.023014  0  0.052935  0  0.104234  0.064905  0  1.025336  0
H  H15  1  0.27989270  0.87828205  0.50950880  1  0  0.055316  0  0.959163  0  0  0.066245  0  1.024462  0  0  0.068202  0  1.023125  0  0.052893  0  0.10421  0.064824  0  1.025446  0
H  H16  1  0.72888309  0.92612494  0.42184860  1  0  0.108944  0  0.964169  0  0  0.118102  0  1.024096  0  0  0.121061  0  1.024289  0  0.066165  0  0.102683  0.116003  0  1.024134  0
H  H17  1  0.27112757  0.07386777  0.57815610  1  0  0.109022  0  0.964163  0  0  0.118151  0  1.024107  0  0  0.121113  0  1.024294  0  0.066075  0  0.102736  0.116052  0  1.024146  0
H  H18  1  0.70009680  0.75269702  0.50147637  1  0  0.09939  0  0.950022  0  0  0.113575  0  1.00581  0  0  0.116642  0  1.003381  0  0.118764  0  0.10855  0.111322  0  1.007639  0
H  H19  1  0.29991261  0.24729655  0.49852604  1  0  0.099368  0  0.950043  0  0  0.113571  0  1.005805  0  0  0.11664  0  1.003371  0  0.118591  0  0.108542  0.111318  0  1.007634  0
H  H20  1  0.19936546  0.75144548  0.86358830  1  0  0.156186  0  0.938904  0  0  0.171637  0  1.000423  0  0  0.173963  0  0.999435  0  0.111275  0  0.105748  0.169939  0  1.001191  0
H  H21  1  0.80063926  0.24855671  0.13641145  1  0  0.156225  0  0.938891  0  0  0.171659  0  1.000426  0  0  0.173987  0  0.999437  0  0.111295  0  0.10575  0.169961  0  1.001192  0
H  H22  1  0.34896658  0.85150952  0.82780791  1  0  0.152742  0  0.937385  0  0  0.172475  0  0.994953  0  0  0.173595  0  0.995341  0  0.109337  0  0.107482  0.17161  0  0.994785  0
H  H23  1  0.65104199  0.14849180  0.17219195  1  0  0.152694  0  0.937418  0  0  0.172463  0  0.994947  0  0  0.173584  0  0.995335  0  0.109356  0  0.107471  0.171597  0  0.994778  0
H  H24  1  0.34377134  0.70179461  0.79205963  1  0  0.173643  0  0.92115  0  0  0.189583  0  0.977759  0  0  0.1926  0  0.976369  0  0.136086  0  0.116122  0.187421  0  0.978776  0
H  H25  1  0.65623203  0.29820672  0.20793947  1  0  0.173615  0  0.921159  0  0  0.189561  0  0.977762  0  0  0.192574  0  0.976375  0  0.136103  0  0.116122  0.187401  0  0.97877  0
H  H26  1  0.14912229  0.85739083  0.61726899  1  0  0.131544  0  0.945407  0  0  0.15236  0  1.00125  0  0  0.153567  0  1.001656  0  0.06257  0  0.098414  0.151465  0  1.001044  0
H  H27  1  0.85087979  0.14261049  0.38273120  1  0  0.131521  0  0.945433  0  0  0.152338  0  1.001278  0  0  0.153545  0  1.001685  0  0.062565  0  0.098416  0.151447  0  1.001067  0
H  H28  1  0.31638162  0.76486275  0.65364595  1  0  0.15858  0  0.923423  0  0  0.179679  0  0.972437  0  0  0.182012  0  0.971746  0  0.09312  0  0.108105  0.177953  0  0.973069  0
H  H29  1  0.68362310  0.23513944  0.34635610  1  0  0.158564  0  0.923442  0  0  0.179687  0  0.972419  0  0  0.18202  0  0.971728  0  0.093125  0  0.108096  0.177961  0  0.97305  0
H  H30  1  0.31780423  0.91623663  0.68786322  1  0  0.146983  0  0.994619  0  0  0.153602  0  1.073293  0  0  0.156267  0  1.072795  0  0.131339  0  0.097345  0.151661  0  1.073708  0
H  H31  1  0.68219909  0.08376383  0.31213698  1  0  0.14697  0  0.994597  0  0  0.153573  0  1.073303  0  0  0.156237  0  1.072805  0  0.131346  0  0.097328  0.151632  0  1.073718  0
H  H32  1  0.83047277  0.32931356  0.89151698  1  0  0.166345  0  0.948  0  0  0.183527  0  1.0034  0  0  0.186392  0  1.00178  0  0.147493  0  0.107959  0.181358  0  1.004727  0
H  H33  1  0.16952267  0.67068518  0.10848171  1  0  0.166356  0  0.948022  0  0  0.183516  0  1.003443  0  0  0.1864  0  1.0018  0  0.147557  0  0.107939  0.181347  0  1.004769  0
H  H34  1  0.98794986  0.31076350  0.97225631  1  0  0.138909  0  0.969762  0  0  0.14875  0  1.04468  0  0  0.150044  0  1.045731  0  0.098261  0  0.095863  0.147746  0  1.044033  0
H  H35  1  0.01204543  0.68923266  0.02774283  1  0  0.138926  0  0.96978  0  0  0.148782  0  1.044674  0  0  0.150076  0  1.045724  0  0.098263  0  0.095847  0.147778  0  1.044027  0
H  H36  1  0.04179971  0.27855499  0.87448000  1  0  0.154346  0  0.932638  0  0  0.174715  0  0.985005  0  0  0.175965  0  0.986248  0  0.093836  0  0.105455  0.173744  0  0.984272  0
H  H37  1  0.95818919  0.72144289  0.12551955  1  0  0.15435  0  0.932605  0  0  0.174775  0  0.984904  0  0  0.176026  0  0.986144  0  0.093784  0  0.105486  0.173804  0  0.984172  0
H  H38  1  0.33495012  0.54258587  0.90923571  1  0  0.163608  0  0.937453  0  0  0.181844  0  0.99147  0  0  0.184535  0  0.989862  0  0.10531  0  0.111133  0.179775  0  0.99282  0
H  H39  1  0.66505160  0.45740942  0.09076076  1  0  0.163606  0  0.937558  0  0  0.181842  0  0.991575  0  0  0.18453  0  0.989973  0  0.105269  0  0.111128  0.179776  0  0.992922  0
H  H40  1  0.30911760  0.38919557  0.89352833  1  0  0.152448  0  0.935787  0  0  0.171315  0  0.990134  0  0  0.172492  0  0.99175  0  0.098706  0  0.106129  0.170409  0  0.989105  0
H  H41  1  0.69088278  0.61079887  0.10646863  1  0  0.15242  0  0.935776  0  0  0.171283  0  0.990146  0  0  0.172461  0  0.991763  0  0.098794  0  0.106121  0.170379  0  0.989113  0
H  H42  1  0.29693902  0.45680303  0.98907478  1  0  0.152352  0  0.94137  0  0  0.168973  0  1.001975  0  0  0.170682  0  1.002177  0  0.125572  0  0.105379  0.167665  0  1.001929  0
H  H43  1  0.70306141  0.54319226  0.01092107  1  0  0.152347  0  0.941311  0  0  0.168946  0  1.001949  0  0  0.170662  0  1.002143  0  0.12544  0  0.105371  0.167639  0  1.001904  0
H  H44  1  0.09306105  0.35298866  0.55382740  1  0  0.14481  0  0.94466  0  0  0.161932  0  1.005907  0  0  0.163729  0  1.005627  0  0.088528  0  0.104426  0.160576  0  1.006215  0
H  H45  1  0.90693563  0.64700922  0.44617243  1  0  0.144831  0  0.944623  0  0  0.161957  0  1.005858  0  0  0.163753  0  1.005581  0  0.088486  0  0.104437  0.1606  0  1.006166  0
H  H46  1  0.93441311  0.31621413  0.47494783  1  0  0.149703  0  0.936389  0  0  0.16916  0  0.994513  0  0  0.171003  0  0.994281  0  0.060439  0  0.105917  0.167752  0  0.994794  0
H  H47  1  0.06558747  0.68378375  0.52505043  1  0  0.149725  0  0.936412  0  0  0.169213  0  0.994489  0  0  0.171058  0  0.994253  0  0.060592  0  0.105909  0.167805  0  0.99477  0
H  H48  1  0.91996203  0.25027080  0.56615387  1  0  0.15141  0  0.951415  0  0  0.167566  0  1.013237  0  0  0.169287  0  1.013592  0  0.082651  0  0.104452  0.166266  0  1.013096  0
H  H49  1  0.08003246  0.74973397  0.43384677  1  0  0.151396  0  0.951408  0  0  0.167561  0  1.013237  0  0  0.169282  0  1.013591  0  0.082605  0  0.104434  0.166257  0  1.013094  0
H  H50  1  0.53150898  0.43986628  0.57765847  1  0  0.16645  0  0.931439  0  0  0.183907  0  0.986378  0  0  0.186688  0  0.985334  0  0.113385  0  0.112723  0.181867  0  0.987152  0
H  H51  1  0.46849998  0.56014193  0.42234172  1  0  0.166479  0  0.931383  0  0  0.183928  0  0.98634  0  0  0.186713  0  0.985285  0  0.113411  0  0.112723  0.181886  0  0.987119  0
H  H52  1  0.61715703  0.29718946  0.57807768  1  0  0.154676  0  0.937381  0  0  0.168447  0  1.003168  0  0  0.170584  0  1.002782  0  0.107375  0  0.105097  0.16684  0  1.003543  0
H  H53  1  0.38284669  0.70281789  0.42192113  1  0  0.154753  0  0.937324  0  0  0.168554  0  1.00305  0  0  0.170693  0  1.002658  0  0.107234  0  0.105142  0.166947  0  1.003427  0
H  H54  1  0.58624030  0.36870488  0.48861462  1  0  0.155547  0  0.93603  0  0  0.175028  0  0.991116  0  0  0.177173  0  0.990653  0  0.125326  0  0.105292  0.173392  0  0.991581  0
H  H55  1  0.41376851  0.63130075  0.51138487  1  0  0.155576  0  0.936062  0  0  0.175042  0  0.991144  0  0  0.177176  0  0.990697  0  0.125323  0  0.105319  0.173407  0  0.991608  0
C  C56  1  0.77653355  0.88820051  0.99405722  1  0  0.177606  0  3.770519  0  0  0.17415  0  4.034775  0  0  0.185697  0  4.052211  0  0.422416  0  0.11423  0.166446  0  4.022902  0
C  C57  1  0.22346598  0.11180168  0.00594464  1  0  0.177695  0  3.77043  0  0  0.174241  0  4.034682  0  0  0.185798  0  4.052105  0  0.422567  0  0.114285  0.166537  0  4.022809  0
C  C58  1  0.67612388  0.79084886  0.95972748  1  0  -0.15551  0  3.726358  0  0  -0.131953  0  3.954004  0  0  -0.14527  0  3.976475  0  0.013089  0  -0.026737  -0.123579  0  3.939169  0
C  C59  1  0.32387949  0.20915247  0.04027334  1  0  -0.155518  0  3.726323  0  0  -0.131957  0  3.953978  0  0  -0.145281  0  3.976451  0  0.013021  0  -0.026738  -0.123582  0  3.939142  0
C  C60  1  0.51669443  0.76711691  0.98879052  1  0  -0.006886  0  3.732272  0  0  -0.031656  0  3.975275  0  0  -0.025434  0  3.992192  0  -0.118797  0  -0.070098  -0.035392  0  3.963713  0
C  C61  1  0.48330739  0.23288011  0.01120947  1  0  -0.006901  0  3.732365  0  0  -0.031674  0  3.975371  0  0  -0.025454  0  3.992293  0  -0.118912  0  -0.070121  -0.035407  0  3.963804  0
C  C62  1  0.46106012  0.83559950  0.04952205  1  0  -0.145085  0  3.765737  0  0  -0.162794  0  4.028045  0  0  -0.170325  0  4.048021  0  -0.036358  0  -0.102293  -0.15812  0  4.014652  0
C  C63  1  0.53894450  0.16440096  0.95047877  1  0  -0.145144  0  3.765584  0  0  -0.162851  0  4.027906  0  0  -0.170382  0  4.047881  0  -0.036399  0  -0.102337  -0.158178  0  4.014513  0
C  C64  1  0.57223225  0.92635148  0.08111834  1  0  0.155101  0  3.72968  0  0  0.125004  0  3.995812  0  0  0.133791  0  4.010974  0  0.489354  0  0.046505  0.119395  0  3.985373  0
C  C65  1  0.42776453  0.07364812  0.91888158  1  0  0.155134  0  3.729522  0  0  0.125046  0  3.995641  0  0  0.133835  0  4.0108  0  0.489414  0  0.046549  0.119437  0  3.985203  0
C  C66  1  0.73328875  0.71501032  0.89538668  1  0  0.630301  0  3.966845  0  0  0.58619  0  4.25639  0  0  0.621057  0  4.248404  0  1.544777  0  0.181942  0.562673  0  4.260836  0
C  C67  1  0.26671482  0.28499445  0.10461258  1  0  0.63028  0  3.966784  0  0  0.586141  0  4.256358  0  0  0.621011  0  4.248376  0  1.545653  0  0.181929  0.562625  0  4.2608  0
C  C68  1  0.44391803  0.20008761  0.74118984  1  0  0.187842  0  3.751497  0  0  0.18331  0  4.021978  0  0  0.19379  0  4.040254  0  0.467479  0  0.122409  0.176281  0  4.009662  0
C  C69  1  0.55607092  0.79991113  0.25880689  1  0  0.18784  0  3.751778  0  0  0.183395  0  4.022167  0  0  0.193883  0  4.040436  0  0.467248  0  0.122314  0.176359  0  4.009863  0
C  C70  1  0.39569924  0.31610646  0.73742669  1  0  -0.151777  0  3.738168  0  0  -0.130465  0  3.970558  0  0  -0.142963  0  3.99259  0  -0.052856  0  -0.02203  -0.122651  0  3.956025  0
C  C71  1  0.60429360  0.68389228  0.26257190  1  0  -0.1519  0  3.738268  0  0  -0.130702  0  3.970797  0  0  -0.143201  0  3.992825  0  -0.052725  0  -0.022074  -0.122886  0  3.956266  0
C  C72  1  0.21980653  0.33760837  0.72388061  1  0  0.000176  0  3.680978  0  0  -0.027649  0  3.928968  0  0  -0.021041  0  3.943067  0  -0.073257  0  -0.063773  -0.031651  0  3.919365  0
C  C73  1  0.78018761  0.66239037  0.27611803  1  0  0.000268  0  3.680943  0  0  -0.02757  0  3.928966  0  0  -0.020954  0  3.943055  0  -0.073046  0  -0.063759  -0.031568  0  3.919356  0
C  C74  1  0.09709031  0.24653081  0.71851051  1  0  -0.142225  0  3.747172  0  0  -0.155366  0  4.000959  0  0  -0.162365  0  4.020299  0  -0.048797  0  -0.097968  -0.151032  0  3.988079  0
C  C75  1  0.90290149  0.75347224  0.28149167  1  0  -0.142402  0  3.74719  0  0  -0.155519  0  4.000954  0  0  -0.162525  0  4.020285  0  -0.047914  0  -0.097972  -0.151177  0  3.988064  0
C  C76  1  0.15745835  0.13573519  0.72371836  1  0  0.128321  0  3.742671  0  0  0.105769  0  3.997791  0  0  0.113309  0  4.013136  0  0.468757  0  0.039448  0.10099  0  3.987287  0
C  C77  1  0.84252955  0.86426786  0.27628310  1  0  0.1286  0  3.742475  0  0  0.106009  0  3.997589  0  0  0.113563  0  4.012945  0  0.468214  0  0.039535  0.101231  0  3.987082  0
C  C78  1  0.52514244  0.41419457  0.74799406  1  0  0.639317  0  3.957644  0  0  0.595463  0  4.244768  0  0  0.629582  0  4.237924  0  1.543258  0  0.182674  0.572502  0  4.248384  0
C  C79  1  0.47485155  0.58580159  0.25200560  1  0  0.639482  0  3.957464  0  0  0.595655  0  4.244571  0  0  0.629773  0  4.237727  0  1.543025  0  0.18276  0.572696  0  4.248189  0
C  C80  1  0.68151118  0.85607124  0.60594339  1  0  -0.148225  0  3.729413  0  0  -0.128055  0  3.962892  0  0  -0.140323  0  3.98487  0  -0.046359  0  -0.023411  -0.120409  0  3.948426  0
C  C81  1  0.31849329  0.14392664  0.39405902  1  0  -0.148345  0  3.729267  0  0  -0.128197  0  3.962773  0  0  -0.140467  0  3.984753  0  -0.046267  0  -0.023428  -0.12055  0  3.948307  0
C  C82  1  0.68265694  0.97048540  0.63973376  1  0  0.189102  0  3.731632  0  0  0.186955  0  4.000344  0  0  0.197878  0  4.017733  0  0.451918  0  0.123084  0.179657  0  3.988589  0
C  C83  1  0.31734244  0.02951420  0.36026453  1  0  0.189156  0  3.731632  0  0  0.187044  0  4.000301  0  0  0.197965  0  4.017695  0  0.451836  0  0.123107  0.179743  0  3.988551  0
C  C84  1  0.71254884  0.04422178  0.52218064  1  0  0.13405  0  3.772529  0  0  0.108784  0  4.032296  0  0  0.116529  0  4.048606  0  0.500554  0  0.041863  0.10387  0  4.021061  0
C  C85  1  0.28746063  0.95577266  0.47781722  1  0  0.134048  0  3.772609  0  0  0.108758  0  4.032355  0  0  0.116504  0  4.048663  0  0.500947  0  0.041791  0.103843  0  4.021121  0
C  C86  1  0.71698660  0.93563254  0.48362423  1  0  -0.142773  0  3.757108  0  0  -0.156156  0  4.008491  0  0  -0.163293  0  4.028812  0  -0.00939  0  -0.100664  -0.151714  0  3.994843  0
C  C87  1  0.28303709  0.06436103  0.51638042  1  0  -0.142635  0  3.757112  0  0  -0.155972  0  4.008457  0  0  -0.16311  0  4.028778  0  -0.009577  0  -0.100525  -0.15153  0  3.994809  0
C  C88  1  0.70006165  0.84072541  0.52701398  1  0  -0.006718  0  3.715943  0  0  -0.031184  0  3.957854  0  0  -0.025664  0  3.974619  0  -0.041521  0  -0.067255  -0.034432  0  3.94637  0
C  C89  1  0.29995555  0.15926817  0.47299043  1  0  -0.006795  0  3.716013  0  0  -0.03127  0  3.957923  0  0  -0.025754  0  3.974698  0  -0.041591  0  -0.067348  -0.034516  0  3.946436  0
C  C90  1  0.66954158  0.75322934  0.65170324  1  0  0.619624  0  4.002032  0  0  0.57297  0  4.294382  0  0  0.607491  0  4.286643  0  1.564376  0  0.17778  0.549714  0  4.298658  0
C  C91  1  0.33045271  0.24677199  0.34830297  1  0  0.620064  0  4.001552  0  0  0.5734  0  4.293908  0  0  0.607922  0  4.286164  0  1.564346  0  0.178002  0.550145  0  4.298185  0
C  C92  1  0.26743652  0.77296204  0.81362777  1  0  -0.420343  0  3.514344  0  0  -0.49002  0  3.75706  0  0  -0.493084  0  3.760804  0  -0.263513  0  -0.224243  -0.487668  0  3.754535  0
C  C93  1  0.73257080  0.22704015  0.18637208  1  0  -0.420328  0  3.514418  0  0  -0.490008  0  3.757103  0  0  -0.493074  0  3.760853  0  -0.263534  0  -0.224238  -0.487669  0  3.754608  0
C  C94  1  0.23728729  0.83887781  0.66704766  1  0  -0.438473  0  3.56348  0  0  -0.507896  0  3.81258  0  0  -0.51238  0  3.817755  0  -0.252194  0  -0.236883  -0.504608  0  3.809182  0
C  C95  1  0.76271468  0.16112179  0.33295188  1  0  -0.438412  0  3.563484  0  0  -0.507839  0  3.81257  0  0  -0.512322  0  3.817748  0  -0.252171  0  -0.236857  -0.504551  0  3.809167  0
C  C96  1  0.96835973  0.33387786  0.91231803  1  0  -0.436026  0  3.551525  0  0  -0.505284  0  3.798062  0  0  -0.508866  0  3.802716  0  -0.27023  0  -0.233826  -0.502555  0  3.794951  0
C  C97  1  0.03163446  0.66612174  0.08768237  1  0  -0.436098  0  3.551564  0  0  -0.505401  0  3.798116  0  0  -0.509001  0  3.802753  0  -0.270239  0  -0.233823  -0.502668  0  3.794998  0
C  C98  1  0.26892543  0.46528217  0.92700680  1  0  -0.420409  0  3.52584  0  0  -0.487411  0  3.766961  0  0  -0.49113  0  3.771689  0  -0.265499  0  -0.227282  -0.484653  0  3.763911  0
C  C99  1  0.73107635  0.53471398  0.07299028  1  0  -0.420376  0  3.525903  0  0  -0.487376  0  3.767059  0  0  -0.491098  0  3.771791  0  -0.265394  0  -0.227262  -0.484616  0  3.764001  0
C  C100  1  0.95640404  0.32775710  0.53801497  1  0  -0.449036  0  3.598508  0  0  -0.525138  0  3.853831  0  0  -0.529563  0  3.860449  0  -0.194625  0  -0.233905  -0.521864  0  3.849354  0
C  C101  1  0.04359280  0.67224336  0.46198384  1  0  -0.449093  0  3.598534  0  0  -0.525251  0  3.853834  0  0  -0.529679  0  3.860451  0  -0.194829  0  -0.233894  -0.521967  0  3.849351  0
C  C102  1  0.61937676  0.37982665  0.55119817  1  0  -0.44023  0  3.533955  0  0  -0.509751  0  3.777332  0  0  -0.513911  0  3.781703  0  -0.275208  0  -0.230554  -0.506623  0  3.774405  0
C  C103  1  0.38062960  0.62018157  0.44880192  1  0  -0.440421  0  3.533957  0  0  -0.50991  0  3.777285  0  0  -0.514061  0  3.781665  0  -0.275182  0  -0.230661  -0.506784  0  3.774359  0
S  S104  1  0.97382054  0.92862631  0.95848430  1  0  0.020333  0  2.439316  0  0  0.005181  0  2.809548  0  0  0.004977  0  2.806537  0  0.14113  0  0.04181  0.005202  0  2.8114  0
S  S105  1  0.02617909  0.07137760  0.04151764  1  0  0.020343  0  2.439304  0  0  0.00519  0  2.80953  0  0  0.004981  0  2.806517  0  0.150381  0  0.041834  0.005212  0  2.811381  0
S  S106  1  0.66881697  0.17019613  0.75680094  1  0  0.011844  0  2.515651  0  0  0.001534  0  2.904351  0  0  0.002273  0  2.898467  0  0.063606  0  0.047803  0.001108  0  2.908282  0
S  S107  1  0.33117961  0.82980003  0.24319423  1  0  0.011919  0  2.515579  0  0  0.001585  0  2.904239  0  0  0.002322  0  2.898357  0  0.063512  0  0.047868  0.001162  0  2.90817  0
S  S108  1  0.66851848  0.99353947  0.74136458  1  0  0.027876  0  2.504195  0  0  0.007764  0  2.895213  0  0  0.008877  0  2.889832  0  0.142077  0  0.050769  0.006942  0  2.898802  0
S  S109  1  0.33147686  0.00645755  0.25863459  1  0  0.027842  0  2.50412  0  0  0.007723  0  2.895112  0  0  0.008837  0  2.889732  0  0.142217  0  0.05072  0.006904  0  2.898694  0
S  S110  1  0.10121374  0.80365974  0.74095564  1  0  0.752627  0  3.565846  0  0  0.727828  0  4.010024  0  0  0.744526  0  4.005705  0  1.196234  0  0.309228  0.71602  0  4.012729  0
S  S111  1  0.89879113  0.19634503  0.25904539  1  0  0.752658  0  3.565747  0  0  0.727879  0  4.009933  0  0  0.744576  0  4.00561  0  1.196299  0  0.309273  0.716071  0  4.012638  0
S  S112  1  0.03903810  0.48187352  0.90801006  1  0  0.691373  0  3.660286  0  0  0.6683  0  4.106973  0  0  0.684513  0  4.104309  0  1.177788  0  0.300159  0.656789  0  4.108445  0
S  S113  1  0.96096382  0.51812522  0.09198887  1  0  0.691428  0  3.660314  0  0  0.66837  0  4.107015  0  0  0.684577  0  4.104361  0  1.177566  0  0.300177  0.656859  0  4.108485  0
S  S114  1  0.83283003  0.44703186  0.57052578  1  0  0.744827  0  3.58262  0  0  0.722186  0  4.020829  0  0  0.740004  0  4.016002  0  1.210343  0  0.308618  0.709605  0  4.023811  0
S  S115  1  0.16717489  0.55297377  0.42947299  1  0  0.744905  0  3.582564  0  0  0.722267  0  4.020779  0  0  0.740086  0  4.015944  0  1.210533  0  0.308673  0.709693  0  4.02376  0
N  N116  1  0.72477893  0.95239961  0.05454632  1  0  -0.346229  0  3.127862  0  0  -0.303273  0  3.394664  0  0  -0.318027  0  3.410453  0  -1.187526  0  -0.322666  -0.293182  0  3.383658  0
N  N117  1  0.27521665  0.04760172  0.94545478  1  0  -0.346268  0  3.127856  0  0  -0.303312  0  3.394672  0  0  -0.318062  0  3.410438  0  -1.187617  0  -0.322681  -0.293222  0  3.383668  0
N  N118  1  0.32671248  0.11229523  0.73282674  1  0  -0.369626  0  3.173998  0  0  -0.326847  0  3.438209  0  0  -0.342073  0  3.455725  0  -1.203852  0  -0.324312  -0.316484  0  3.426114  0
N  N119  1  0.67327267  0.88770523  0.26717279  1  0  -0.369785  0  3.174137  0  0  -0.327016  0  3.438318  0  0  -0.342238  0  3.455817  0  -1.203942  0  -0.324322  -0.31665  0  3.426223  0
N  N120  1  0.69657485  0.06203625  0.59782181  1  0  -0.366458  0  3.146806  0  0  -0.331272  0  3.418961  0  0  -0.345377  0  3.435192  0  -1.222422  0  -0.326904  -0.32166  0  3.407719  0
N  N121  1  0.30343232  0.93796336  0.40217793  1  0  -0.366446  0  3.146872  0  0  -0.331281  0  3.419029  0  0  -0.345383  0  3.43526  0  -1.222547  0  -0.326883  -0.321669  0  3.407789  0
O  O122  1  0.87510915  0.73925133  0.86656093  1  0  -0.676502  0  2.048942  0  0  -0.626885  0  2.298614  0  0  -0.652927  0  2.29141  0  -1.165095  0  -0.339099  -0.608313  0  2.302647  0
O  O123  1  0.12488798  0.26075430  0.13343699  1  0  -0.676539  0  2.048883  0  0  -0.626883  0  2.298545  0  0  -0.652921  0  2.291324  0  -1.165864  0  -0.339091  -0.608305  0  2.302575  0
O  O124  1  0.63838893  0.62588630  0.86945423  1  0  -0.719207  0  1.978186  0  0  -0.675277  0  2.223402  0  0  -0.700437  0  2.215404  0  -1.190551  0  -0.39525  -0.657375  0  2.228106  0
O  O125  1  0.36161075  0.37411847  0.13054260  1  0  -0.719128  0  1.978165  0  0  -0.675229  0  2.223477  0  0  -0.700367  0  2.21543  0  -1.190535  0  -0.395228  -0.657325  0  2.22818  0
O  O126  1  0.49034035  0.50972273  0.71948501  1  0  -0.684214  0  1.942704  0  0  -0.640623  0  2.175567  0  0  -0.664328  0  2.16632  0  -1.174826  0  -0.384292  -0.623869  0  2.18125  0
O  O127  1  0.50965240  0.49027428  0.28051865  1  0  -0.684197  0  1.942693  0  0  -0.640599  0  2.175536  0  0  -0.664306  0  2.16629  0  -1.174776  0  -0.384279  -0.623842  0  2.18122  0
O  O128  1  0.67155108  0.39927424  0.78498563  1  0  -0.680536  0  2.033762  0  0  -0.626549  0  2.273191  0  0  -0.653291  0  2.267298  0  -1.157855  0  -0.363268  -0.607557  0  2.276397  0
O  O129  1  0.32844406  0.60071933  0.21501511  1  0  -0.680698  0  2.03377  0  0  -0.626701  0  2.273197  0  0  -0.653449  0  2.267316  0  -1.157827  0  -0.363397  -0.607706  0  2.276406  0
O  O130  1  0.67473065  0.65273806  0.61923956  1  0  -0.695818  0  2.035784  0  0  -0.652294  0  2.282516  0  0  -0.677051  0  2.27517  0  -1.183457  0  -0.355478  -0.634796  0  2.286854  0
O  O131  1  0.32526618  0.34726240  0.38076671  1  0  -0.695871  0  2.03561  0  0  -0.652343  0  2.282346  0  0  -0.677102  0  2.275002  0  -1.18355  0  -0.35546  -0.634843  0  2.28668  0
O  O132  1  0.66244190  0.77041244  0.72478774  1  0  -0.678047  0  2.059403  0  0  -0.621401  0  2.306177  0  0  -0.64903  0  2.301482  0  -1.158428  0  -0.369682  -0.601769  0  2.308603  0
O  O133  1  0.33754740  0.22959233  0.27521730  1  0  -0.678429  0  2.059312  0  0  -0.621766  0  2.306109  0  0  -0.649397  0  2.301406  0  -1.158178  0  -0.369923  -0.60213  0  2.308539  0
O  O134  1  0.01725755  0.68683810  0.71017178  1  0  -0.745218  0  1.986984  0  0  -0.689759  0  2.26398  0  0  -0.710986  0  2.255264  0  -1.256882  0  -0.43742  -0.674341  0  2.269356  0
O  O135  1  0.98274462  0.31316495  0.28982964  1  0  -0.745193  0  1.986834  0  0  -0.689812  0  2.263921  0  0  -0.711033  0  2.255193  0  -1.256994  0  -0.437468  -0.674389  0  2.269296  0
O  O136  1  0.01399315  0.50853062  0.82374503  1  0  -0.701978  0  2.014997  0  0  -0.643539  0  2.292826  0  0  -0.665305  0  2.284948  0  -1.251113  0  -0.414842  -0.627741  0  2.297503  0
O  O137  1  0.98600748  0.49146812  0.17625327  1  0  -0.702  0  2.014874  0  0  -0.643535  0  2.292655  0  0  -0.665299  0  2.284783  0  -1.251071  0  -0.414858  -0.627767  0  2.297416  0
O  O138  1  0.86804874  0.45391061  0.65795774  1  0  -0.707098  0  1.988767  0  0  -0.646383  0  2.262913  0  0  -0.66824  0  2.255068  0  -1.253053  0  -0.411209  -0.630692  0  2.267792  0
O  O139  1  0.13195483  0.54609416  0.34204152  1  0  -0.707096  0  1.988737  0  0  -0.646421  0  2.262937  0  0  -0.668276  0  2.255089  0  -1.253041  0  -0.41123  -0.630739  0  2.267824  0
