# generated using pymatgen
data_Al4H41C64N2ClO20
_symmetry_space_group_name_H-M   'P 1'
_cell_length_a   6.65835015
_cell_length_b   22.41659098
_cell_length_c   23.84410379
_cell_angle_alpha   112.74306303
_cell_angle_beta   89.96043234
_cell_angle_gamma   89.94756400
_symmetry_Int_Tables_number   1
_chemical_formula_structural   Al4H41C64N2ClO20
_chemical_formula_sum   'Al4 H41 C64 N2 Cl1 O20'
_cell_volume   3282.19486938
_cell_formula_units_Z   1
loop_
 _symmetry_equiv_pos_site_id
 _symmetry_equiv_pos_as_xyz
  1  'x, y, z'
loop_
 _atom_site_type_symbol
 _atom_site_label
 _atom_site_symmetry_multiplicity
 _atom_site_fract_x
 _atom_site_fract_y
 _atom_site_fract_z
 _atom_site_occupancy
 _atom_site_pbe_bader_charge
 _atom_site_pbe_bader_spin_density
 _atom_site_pbe_cm5_charge
 _atom_site_pbe_ddec_charge
 _atom_site_pbe_ddec_spin_density
 _atom_site_pbe_ddec_sum_bond_order
 _atom_site_pbe_magmom
Al  Al0  1  0.11949194  0.49942713  0.49935549  1  2.502722  0  0.39916  1.648813  0  2.580666  0
Al  Al1  1  0.61904716  0.50227377  0.50234259  1  2.502051  0  0.398805  1.649046  0  2.58045  0
Al  Al2  1  0.69052782  0.00238010  0.00286417  1  2.502012  0  0.398245  1.645613  0  2.579258  0
Al  Al3  1  0.19082169  0.99965017  0.00052957  1  2.502546  0  0.397761  1.647188  0  2.583358  0
H  H4  1  0.62701871  0.07356124  0.86701351  1  0.079607  0  0.102899  0.112087  0  1.010206  0
H  H5  1  0.62820518  0.13643459  0.80003736  1  0.058569  0  0.096622  0.093035  0  1.020575  0
H  H6  1  0.23932502  0.13036584  0.91629323  1  0.074179  0  0.105517  0.117926  0  1.004678  0
H  H7  1  0.17057696  0.16498402  0.72711232  1  0.031933  0  0.10404  0.105038  0  0.993627  0
H  H8  1  0.15003464  0.23152548  0.66586604  1  0.053118  0  0.103233  0.103417  0  1.001879  0
H  H9  1  0.63954716  0.33272989  0.77115343  1  0.067454  0  0.103006  0.10323  0  1.001198  0
H  H10  1  0.66153466  0.26627103  0.83275426  1  0.072712  0  0.100271  0.103051  0  1.003965  0
H  H11  1  0.56252218  0.33721774  0.68015176  1  0.038949  0  0.096254  0.090964  0  1.031179  0
H  H12  1  0.55322530  0.40333086  0.61676153  1  0.091737  0  0.108489  0.112245  0  1.005037  0
H  H13  1  0.19508362  0.39470878  0.60238113  1  0.134881  0  0.109578  0.114537  0  1.004741  0
H  H14  1  0.20845989  0.32988933  0.66682274  1  0.039903  0  0.096485  0.091874  0  1.032146  0
H  H15  1  0.13871119  0.31433707  0.35467052  1  0.117633  0  0.100368  0.105343  0  1.033804  0
H  H16  1  0.56337006  0.38261628  0.32258744  1  0.109676  0  0.111203  0.118988  0  0.985746  0
H  H17  1  0.53718911  0.28943101  0.22287591  1  0.10302  0  0.10538  0.109168  0  0.986804  0
H  H18  1  0.24503695  0.11629543  0.17954152  1  0.10963  0  0.115863  0.138756  0  0.984809  0
H  H19  1  0.67112226  0.18633418  0.14843651  1  0.105467  0  0.112207  0.122442  0  0.989276  0
H  H20  1  0.64437252  0.68460290  0.65034917  1  0.085739  0  0.10283  0.112399  0  1.013433  0
H  H21  1  0.05637909  0.61972103  0.67554334  1  0.08191  0  0.109584  0.128554  0  0.996497  0
H  H22  1  0.77670817  0.78700221  0.72517869  1  0.074575  0  0.104494  0.107175  0  0.993336  0
H  H23  1  0.75052784  0.87995416  0.82520514  1  0.091012  0  0.109185  0.11642  0  0.99227  0
H  H24  1  0.16620618  0.81735326  0.85407597  1  0.071206  0  0.106698  0.103949  0  1.016202  0
H  H25  1  0.11687522  0.89678650  0.10332702  1  0.103356  0  0.109498  0.113784  0  1.0059  0
H  H26  1  0.10167910  0.83052068  0.16638909  1  0.048253  0  0.09717  0.092554  0  1.030437  0
H  H27  1  0.74693309  0.83908886  0.18211549  1  0.038902  0  0.09689  0.091846  0  1.030577  0
H  H28  1  0.75880952  0.90410526  0.11778234  1  0.073357  0  0.108452  0.111692  0  1.006805  0
H  H29  1  0.69387919  0.73893406  0.18027545  1  0.034445  0  0.101565  0.1007  0  1.004567  0
H  H30  1  0.67920655  0.67144574  0.24037476  1  0.046382  0  0.101383  0.100261  0  1.005391  0
H  H31  1  0.11947277  0.76182915  0.31985175  1  0.059126  0  0.101589  0.100745  0  1.004435  0
H  H32  1  0.13424797  0.82927772  0.25970869  1  0.052623  0  0.101752  0.100537  0  1.00608  0
H  H33  1  0.06705652  0.66191862  0.31861349  1  0.056385  0  0.096277  0.091535  0  1.031345  0
H  H34  1  0.05546564  0.59854926  0.38445925  1  0.095468  0  0.107564  0.111471  0  1.007077  0
H  H35  1  0.69765484  0.60529087  0.39778658  1  0.117944  0  0.108345  0.112605  0  1.007429  0
H  H36  1  0.71229196  0.67051251  0.33376728  1  0.036442  0  0.096952  0.092676  0  1.030358  0
H  H37  1  0.87086342  0.68186352  0.76382853  1  0.457035  0  0.309117  0.305413  0  0.935943  0
H  H38  1  0.94590936  0.75411634  0.81489610  1  0.435529  0  0.299191  0.289147  0  0.976118  0
H  H39  1  0.28119463  0.22612011  0.82393296  1  0.443053  0  0.294527  0.284056  0  0.998905  0
H  H40  1  0.40273192  0.19611922  0.87078314  1  0.457552  0  0.299855  0.294802  0  0.973054  0
H  H41  1  0.37609845  0.41653248  0.46525810  1  0.609997  0  0.355687  0.433342  0  0.849492  0
H  H42  1  0.87485786  0.58592485  0.53003488  1  0.651997  0  0.357032  0.434531  0  0.846009  0
H  H43  1  0.43775836  0.07569493  0.99493844  1  0.597776  0  0.352256  0.428174  0  0.857006  0
H  H44  1  0.93419492  0.91634677  0.96720003  1  0.641764  0  0.352715  0.429805  0  0.854029  0
C  C45  1  0.36490434  0.59234070  0.59783078  1  1.565267  0  0.271664  0.651275  0  4.077519  0
C  C46  1  0.36993217  0.56246472  0.43633818  1  1.578564  0  0.262066  0.63402  0  4.115417  0
C  C47  1  0.86627393  0.40905792  0.40390604  1  1.561167  0  0.269653  0.647367  0  4.087204  0
C  C48  1  0.86882660  0.43935086  0.56517273  1  1.582302  0  0.263595  0.633646  0  4.116226  0
C  C49  1  0.75877666  0.10082656  0.86380588  1  -0.036125  0  -0.108563  -0.14086  0  4.038617  0
C  C50  1  0.76005476  0.13644043  0.82725600  1  -0.033621  0  -0.100575  -0.133711  0  4.063473  0
C  C51  1  0.92889091  0.17169036  0.82255103  1  -0.000885  0  -0.018393  -0.040543  0  3.959032  0
C  C52  1  0.10536104  0.17005155  0.85548267  1  0.376156  0  0.097291  0.263832  0  4.079444  0
C  C53  1  0.10512244  0.13231012  0.89082906  1  0.047  0  -0.097996  -0.208728  0  3.933871  0
C  C54  1  0.93392429  0.09890843  0.89584507  1  -0.075049  0  -0.021454  -0.029445  0  4.027848  0
C  C55  1  0.05632858  0.20278869  0.73791234  1  -0.078018  0  -0.095025  -0.143003  0  4.011506  0
C  C56  1  0.04446724  0.24032356  0.70321733  1  0.003292  0  -0.090679  -0.125287  0  3.995403  0
C  C57  1  0.89453658  0.28781485  0.71411247  1  -0.045265  0  -0.009254  0.063267  0  4.006515  0
C  C58  1  0.75511799  0.29547135  0.76072725  1  -0.074501  0  -0.090308  -0.125123  0  3.995451  0
C  C59  1  0.76719736  0.25794327  0.79546103  1  -0.037728  0  -0.093419  -0.133976  0  3.994771  0
C  C60  1  0.91842444  0.21104875  0.78507308  1  -0.017422  0  -0.009552  0.082992  0  4.00844  0
C  C61  1  0.70226289  0.35032563  0.66391963  1  -0.052628  0  -0.093158  -0.138035  0  3.986472  0
C  C62  1  0.69562906  0.38688632  0.62824295  1  -0.0113  0  -0.079883  -0.080355  0  3.975535  0
C  C63  1  0.87345731  0.40244442  0.60549094  1  -0.023832  0  -0.017144  -0.048551  0  3.977976  0
C  C64  1  0.05790888  0.38168332  0.61986916  1  -0.088686  0  -0.08048  -0.081513  0  3.978362  0
C  C65  1  0.06383395  0.34513363  0.65543906  1  0.011218  0  -0.092617  -0.137139  0  3.989854  0
C  C66  1  0.88621352  0.32814925  0.67772599  1  -0.05138  0  -0.004144  0.074524  0  3.999491  0
C  C67  1  0.85441968  0.35357360  0.34396473  1  0.008324  0  -0.012895  -0.033491  0  3.982914  0
C  C68  1  0.95646911  0.14704586  0.15804598  1  -0.027885  0  -0.012253  -0.019436  0  3.99815  0
C  C69  1  0.14122835  0.20350470  0.25075828  1  -0.010583  0  0.015663  0.103785  0  4.039414  0
C  C70  1  0.12757468  0.15283588  0.19516386  1  0.035362  0  -0.090418  -0.174095  0  3.971299  0
C  C71  1  0.80373700  0.19231842  0.17693629  1  -0.014592  0  -0.076604  -0.145457  0  3.933777  0
C  C72  1  0.82012705  0.24666577  0.23243716  1  -0.030338  0  -0.002698  0.087982  0  4.003489  0
C  C73  1  0.99267706  0.25335807  0.27079367  1  0.024748  0  -0.008756  0.019176  0  3.974615  0
C  C74  1  0.00725661  0.30816573  0.32583783  1  -0.050765  0  -0.081843  -0.130382  0  3.944996  0
C  C75  1  0.68237111  0.34653314  0.30686634  1  -0.044441  0  -0.08517  -0.098963  0  3.992957  0
C  C76  1  0.66808516  0.29491305  0.25198564  1  -0.019442  0  -0.087063  -0.128192  0  4.004186  0
C  C77  1  0.35253869  0.64748767  0.65803594  1  -0.037499  0  -0.018103  -0.016199  0  4.05031  0
C  C78  1  0.45439925  0.85281270  0.84486080  1  -0.02554  0  -0.020105  -0.045186  0  4.00442  0
C  C79  1  0.64449814  0.79294592  0.75394459  1  -0.124514  0  -0.091005  -0.137676  0  4.015359  0
C  C80  1  0.63013025  0.84449770  0.80891087  1  -0.019206  0  -0.091064  -0.110118  0  4.01345  0
C  C81  1  0.29819537  0.80885316  0.82489838  1  -0.039535  0  -0.079813  -0.122518  0  3.946591  0
C  C82  1  0.31180522  0.75408526  0.76974756  1  0.015893  0  -0.011442  -0.022242  0  3.9407  0
C  C83  1  0.48977132  0.74573002  0.73316060  1  0.023343  0  -0.008709  0.088105  0  4.036613  0
C  C84  1  0.50923156  0.69131926  0.67795264  1  -0.043502  0  -0.103466  -0.198493  0  3.994516  0
C  C85  1  0.17621183  0.65524173  0.69297084  1  -0.018029  0  -0.106946  -0.241749  0  3.958291  0
C  C86  1  0.15483414  0.70636971  0.74901090  1  0.413181  0  0.098875  0.261015  0  4.094838  0
C  C87  1  0.25346612  0.88378409  0.12109497  1  -0.081036  0  -0.080163  -0.082239  0  3.979738  0
C  C88  1  0.24633204  0.84723393  0.15665026  1  -0.000528  0  -0.091559  -0.135242  0  3.985677  0
C  C89  1  0.42343140  0.82954571  0.17862872  1  0.006996  0  -0.001533  0.079581  0  3.994128  0
C  C90  1  0.60820139  0.85079706  0.16427037  1  -0.047683  0  -0.092042  -0.137469  0  3.984721  0
C  C91  1  0.61604206  0.88746925  0.12875404  1  0.025583  0  -0.079874  -0.080916  0  3.979842  0
C  C92  1  0.43864632  0.90389024  0.10647542  1  -0.042098  0  -0.017623  -0.051914  0  3.98417  0
C  C93  1  0.56880796  0.74497693  0.21158805  1  -0.026041  0  -0.091231  -0.125584  0  3.994589  0
C  C94  1  0.56050525  0.70679129  0.24565854  1  -0.027359  0  -0.091115  -0.126699  0  3.995943  0
C  C95  1  0.39823546  0.71127637  0.28494793  1  0.012841  0  -0.009155  0.062563  0  4.006707  0
C  C96  1  0.24444918  0.75570457  0.28848931  1  -0.037756  0  -0.090971  -0.125138  0  3.992289  0
C  C97  1  0.25276561  0.79387291  0.25440151  1  -0.033819  0  -0.091528  -0.127342  0  3.996676  0
C  C98  1  0.41511781  0.78942623  0.21517531  1  -0.059005  0  -0.009372  0.062204  0  4.007662  0
C  C99  1  0.20591221  0.65052739  0.33663819  1  -0.06932  0  -0.092527  -0.138608  0  3.988306  0
C  C100  1  0.19823585  0.61476247  0.37299400  1  -0.018124  0  -0.080775  -0.081703  0  3.980623  0
C  C101  1  0.37577304  0.59868799  0.39546102  1  -0.010941  0  -0.018696  -0.050011  0  3.978378  0
C  C102  1  0.56080474  0.61813509  0.38003044  1  -0.080489  0  -0.081008  -0.081914  0  3.978829  0
C  C103  1  0.56778339  0.65402357  0.34385817  1  -0.009584  0  -0.092341  -0.136841  0  3.987098  0
C  C104  1  0.39043958  0.67145352  0.32179577  1  -0.067728  0  -0.002795  0.07815  0  3.997043  0
C  C105  1  0.44487766  0.94103994  0.06656287  1  1.557831  0  0.267283  0.638639  0  4.106871  0
C  C106  1  0.44157309  0.90782388  0.90497595  1  1.572417  0  0.263503  0.642422  0  4.103849  0
C  C107  1  0.93604961  0.06225874  0.93640085  1  1.56152  0  0.266293  0.645801  0  4.086846  0
C  C108  1  0.94750592  0.09193532  0.09773836  1  1.575302  0  0.270371  0.64083  0  4.096785  0
N  N109  1  0.98944214  0.70985528  0.78510839  1  -1.232938  0  -0.594789  -0.609844  0  3.328491  0
N  N110  1  0.27056160  0.20766186  0.85644137  1  -1.268477  0  -0.603706  -0.62886  0  3.362296  0
Cl  Cl111  1  0.34253100  0.20578940  0.29762745  1  -0.216245  0  -0.003838  -0.083047  0  1.504444  0
O  O112  1  0.53893038  0.55030072  0.45467563  1  -1.257181  0  -0.239125  -0.599549  0  2.368163  0
O  O113  1  0.19833166  0.56887885  0.57286911  1  -1.268022  0  -0.23419  -0.594093  0  2.35527  0
O  O114  1  0.03792727  0.45133235  0.54683376  1  -1.256747  0  -0.237578  -0.594578  0  2.364714  0
O  O115  1  0.19825946  0.54737350  0.45063617  1  -1.259074  0  -0.239732  -0.597411  0  2.339229  0
O  O116  1  0.03941090  0.42848527  0.42619629  1  -1.260233  0  -0.23491  -0.58955  0  2.32243  0
O  O117  1  0.53820567  0.57314474  0.57535020  1  -1.260184  0  -0.236498  -0.593282  0  2.325635  0
O  O118  1  0.37070092  0.46178060  0.49215156  1  -1.413318  0  -0.448398  -0.99337  0  2.205227  0
O  O119  1  0.69908226  0.43229843  0.42880597  1  -1.26611  0  -0.233136  -0.594315  0  2.351708  0
O  O120  1  0.69738413  0.45500681  0.55133714  1  -1.259892  0  -0.238318  -0.593078  0  2.341445  0
O  O121  1  0.87048689  0.53939233  0.50889903  1  -1.455149  0  -0.448746  -0.996022  0  2.215661  0
O  O122  1  0.26751618  0.92946320  0.92529881  1  -1.261181  0  -0.242092  -0.603588  0  2.326427  0
O  O123  1  0.61512270  0.96047856  0.05597652  1  -1.252538  0  -0.235025  -0.587065  0  2.335953  0
O  O124  1  0.77689521  0.07584291  0.07225447  1  -1.252123  0  -0.233968  -0.585253  0  2.326958  0
O  O125  1  0.60844141  0.92832463  0.93167575  1  -1.265584  0  -0.239976  -0.605747  0  2.356251  0
O  O126  1  0.76572904  0.04527757  0.94973684  1  -1.250561  0  -0.240165  -0.603991  0  2.35686  0
O  O127  1  0.27796179  0.94983670  0.04485963  1  -1.25348  0  -0.235242  -0.592445  0  2.368492  0
O  O128  1  0.43908996  0.03969188  0.00785381  1  -1.401818  0  -0.447665  -0.988092  0  2.198847  0
O  O129  1  0.10583429  0.05139706  0.95551849  1  -1.260964  0  -0.241222  -0.606572  0  2.334026  0
O  O130  1  0.11475136  0.06581094  0.07596247  1  -1.255724  0  -0.23009  -0.577608  0  2.356573  0
O  O131  1  0.93953327  0.96194801  0.99285684  1  -1.446573  0  -0.448534  -0.992664  0  2.209659  0
