# generated using pymatgen
data_ZnH18C22(N2O3)2
_symmetry_space_group_name_H-M   'P 1'
_cell_length_a   5.86590381
_cell_length_b   16.35768565
_cell_length_c   13.85810454
_cell_angle_alpha   85.25532313
_cell_angle_beta   77.71749199
_cell_angle_gamma   79.75112141
_symmetry_Int_Tables_number   1
_chemical_formula_structural   ZnH18C22(N2O3)2
_chemical_formula_sum   'Zn2 H36 C44 N8 O12'
_cell_volume   1277.16096838
_cell_formula_units_Z   2
loop_
 _symmetry_equiv_pos_site_id
 _symmetry_equiv_pos_as_xyz
  1  'x, y, z'
loop_
 _atom_site_type_symbol
 _atom_site_label
 _atom_site_symmetry_multiplicity
 _atom_site_fract_x
 _atom_site_fract_y
 _atom_site_fract_z
 _atom_site_occupancy
 _atom_site_hle17_bader_spin_density
 _atom_site_hle17_ddec_charge
 _atom_site_hle17_ddec_spin_density
 _atom_site_hle17_ddec_sum_bond_order
 _atom_site_hle17_magmom
 _atom_site_hse06_10hf_bader_spin_density
 _atom_site_hse06_10hf_ddec_charge
 _atom_site_hse06_10hf_ddec_spin_density
 _atom_site_hse06_10hf_ddec_sum_bond_order
 _atom_site_hse06_10hf_magmom
 _atom_site_hse06_bader_spin_density
 _atom_site_hse06_ddec_charge
 _atom_site_hse06_ddec_spin_density
 _atom_site_hse06_ddec_sum_bond_order
 _atom_site_hse06_magmom
 _atom_site_pbe_bader_spin_density
 _atom_site_pbe_cm5_charge
 _atom_site_pbe_ddec_charge
 _atom_site_pbe_ddec_spin_density
 _atom_site_pbe_ddec_sum_bond_order
 _atom_site_pbe_magmom
Zn  Zn0  1  0.33281055  0.25012258  0.74971176  1  0  0.989166  0  1.875792  0  0  0.788592  0  2.363519  0  0  0.835998  0  2.30878  0  0  0.70304  0.755773  0  2.401036  0
Zn  Zn1  1  0.66717901  0.74987273  0.25029137  1  0  0.989168  0  1.876228  0  0  0.788711  0  2.363883  0  0  0.836097  0  2.30913  0  0  0.703076  0.755863  0  2.401491  0
H  H2  1  0.26614364  0.43578746  0.75260639  1  0  0.088505  0  0.931763  0  0  0.098852  0  0.990486  0  0  0.100647  0  0.989552  0  0  0.123448  0.097473  0  0.99124  0
H  H3  1  0.45341048  0.06438777  0.74719786  1  0  0.089138  0  0.931926  0  0  0.099412  0  0.99079  0  0  0.101214  0  0.989823  0  0  0.12371  0.098019  0  0.991546  0
H  H4  1  0.73375548  0.56420506  0.24746499  1  0  0.088414  0  0.931692  0  0  0.098781  0  0.990419  0  0  0.10057  0  0.989485  0  0  0.123425  0.097401  0  0.991175  0
H  H5  1  0.54665413  0.93561101  0.25274902  1  0  0.088818  0  0.932135  0  0  0.099132  0  0.990978  0  0  0.100922  0  0.990016  0  0  0.123621  0.097752  0  0.991718  0
H  H6  1  0.44773214  0.54106001  0.81483360  1  0  0.116806  0  0.933436  0  0  0.128836  0  0.988075  0  0  0.132325  0  0.986747  0  0  0.117328  0.126308  0  0.989235  0
H  H7  1  0.80253878  0.95911193  0.68564294  1  0  0.11645  0  0.933765  0  0  0.128868  0  0.987993  0  0  0.132369  0  0.986648  0  0  0.117296  0.126345  0  0.989148  0
H  H8  1  0.55216081  0.45892821  0.18524834  1  0  0.116781  0  0.93391  0  0  0.128873  0  0.988424  0  0  0.132356  0  0.98711  0  0  0.117348  0.126348  0  0.989584  0
H  H9  1  0.19754680  0.04090674  0.31429835  1  0  0.116313  0  0.934046  0  0  0.128781  0  0.988211  0  0  0.132275  0  0.986881  0  0  0.11737  0.12626  0  0.989364  0
H  H10  1  0.91082810  0.33837292  0.93099530  1  0  0.116849  0  0.949249  0  0  0.121799  0  1.015019  0  0  0.126063  0  1.012304  0  0  0.114521  0.118696  0  1.017199  0
H  H11  1  0.18049601  0.16177792  0.56846704  1  0  0.116996  0  0.948732  0  0  0.121536  0  1.014982  0  0  0.12576  0  1.012318  0  0  0.114593  0.118454  0  1.017148  0
H  H12  1  0.08915663  0.66160817  0.06902423  1  0  0.116812  0  0.949191  0  0  0.121829  0  1.01487  0  0  0.126087  0  1.012159  0  0  0.114541  0.11873  0  1.017051  0
H  H13  1  0.81952405  0.83826517  0.43150719  1  0  0.11702  0  0.949347  0  0  0.121577  0  1.015532  0  0  0.125797  0  1.012874  0  0  0.114517  0.118492  0  1.017693  0
H  H14  1  0.70510744  0.24069861  0.86568451  1  0  0.098681  0  0.94103  0  0  0.104671  0  1.005546  0  0  0.107401  0  1.003283  0  0  0.121967  0.102636  0  1.007245  0
H  H15  1  0.81164121  0.25946760  0.63315681  1  0  0.097945  0  0.942914  0  0  0.104727  0  1.006506  0  0  0.107347  0  1.004339  0  0  0.122086  0.102753  0  1.008124  0
H  H16  1  0.29489571  0.75928366  0.13432249  1  0  0.098712  0  0.940566  0  0  0.104517  0  1.00532  0  0  0.107243  0  1.003063  0  0  0.121889  0.102484  0  1.007013  0
H  H17  1  0.18834855  0.74055376  0.36683007  1  0  0.098057  0  0.942952  0  0  0.10468  0  1.006579  0  0  0.107312  0  1.004387  0  0  0.122095  0.102696  0  1.008219  0
H  H18  1  0.76249393  0.60858980  0.81405614  1  0  0.131517  0  0.924766  0  0  0.156328  0  0.97486  0  0  0.157429  0  0.974953  0  0  0.105475  0.155441  0  0.974907  0
H  H19  1  0.18419873  0.89180974  0.68653898  1  0  0.131164  0  0.92436  0  0  0.155803  0  0.974775  0  0  0.156959  0  0.974791  0  0  0.105191  0.154916  0  0.974826  0
H  H20  1  0.23754549  0.39136574  0.18595311  1  0  0.131479  0  0.924773  0  0  0.15634  0  0.974817  0  0  0.157444  0  0.974906  0  0  0.105479  0.155456  0  0.974867  0
H  H21  1  0.81586930  0.10824210  0.31344021  1  0  0.131141  0  0.924537  0  0  0.155772  0  0.975014  0  0  0.156913  0  0.97505  0  0  0.105191  0.154884  0  0.975064  0
H  H22  1  0.88113600  0.63151350  0.91639679  1  0  0.138953  0  0.943937  0  0  0.154651  0  1.00562  0  0  0.158019  0  1.002752  0  0  0.103395  0.152193  0  1.0077  0
H  H23  1  0.42766795  0.86862667  0.58395153  1  0  0.138017  0  0.944981  0  0  0.15392  0  1.006516  0  0  0.157266  0  1.003688  0  0  0.102919  0.151481  0  1.008579  0
H  H24  1  0.11902502  0.36844749  0.08357534  1  0  0.138974  0  0.943879  0  0  0.154655  0  1.005572  0  0  0.158035  0  1.002697  0  0  0.103512  0.152201  0  1.007652  0
H  H25  1  0.57246855  0.13141106  0.41606171  1  0  0.138017  0  0.944853  0  0  0.154042  0  1.006266  0  0  0.157389  0  1.003436  0  0  0.102918  0.151594  0  1.008341  0
H  H26  1  0.57694118  0.62432983  0.93183059  1  0  0.130033  0  0.938454  0  0  0.152616  0  0.996332  0  0  0.153036  0  0.997773  0  0  0.102305  0.152304  0  0.995327  0
H  H27  1  0.13141821  0.87572272  0.56908868  1  0  0.129374  0  0.937389  0  0  0.152167  0  0.995287  0  0  0.152578  0  0.996729  0  0  0.102239  0.151858  0  0.994296  0
H  H28  1  0.42317943  0.37568055  0.06818886  1  0  0.129864  0  0.938516  0  0  0.152498  0  0.996381  0  0  0.152921  0  0.997821  0  0  0.102182  0.152186  0  0.995381  0
H  H29  1  0.86876414  0.12428308  0.43088370  1  0  0.129436  0  0.937136  0  0  0.152269  0  0.995054  0  0  0.15268  0  0.99649  0  0  0.102265  0.151957  0  0.99407  0
H  H30  1  0.80533945  0.43302516  0.65546691  1  0  0.109577  0  0.977059  0  0  0.116214  0  1.046193  0  0  0.119425  0  1.045253  0  0  0.097317  0.113967  0  1.0469  0
H  H31  1  0.89251367  0.06694474  0.84497234  1  0  0.109943  0  0.976654  0  0  0.116341  0  1.046068  0  0  0.119563  0  1.045108  0  0  0.097312  0.114075  0  1.046809  0
H  H32  1  0.19451549  0.56701399  0.34459952  1  0  0.109576  0  0.976857  0  0  0.116072  0  1.046186  0  0  0.119276  0  1.045269  0  0  0.097255  0.113827  0  1.046894  0
H  H33  1  0.10752036  0.93298921  0.15495338  1  0  0.109515  0  0.976722  0  0  0.116346  0  1.045693  0  0  0.11955  0  1.044776  0  0  0.097303  0.114064  0  1.046455  0
H  H34  1  0.48971774  0.61239435  0.54614621  1  0  0.379881  0  0.903869  0  0  0.35612  0  0.974328  0  0  0.367911  0  0.961188  0  0  0.293657  0.347792  0  0.983449  0
H  H35  1  0.64704541  0.88738902  0.95486895  1  0  0.380527  0  0.904269  0  0  0.356751  0  0.97468  0  0  0.368547  0  0.961518  0  0  0.293787  0.348424  0  0.98383  0
H  H36  1  0.51019116  0.38766857  0.45393960  1  0  0.38005  0  0.903668  0  0  0.356308  0  0.974076  0  0  0.368098  0  0.960933  0  0  0.29371  0.347987  0  0.983196  0
H  H37  1  0.35297983  0.11255731  0.04504470  1  0  0.380542  0  0.904393  0  0  0.35674  0  0.974854  0  0  0.368532  0  0.961698  0  0  0.293781  0.348415  0  0.983993  0
C  C38  1  0.40666636  0.41694667  0.79411678  1  0  0.145669  0  3.675987  0  0  0.111252  0  3.930814  0  0  0.119228  0  3.9484  0  0  0.056237  0.106045  0  3.91896  0
C  C39  1  0.61700141  0.08321833  0.70569337  1  0  0.145175  0  3.67546  0  0  0.110528  0  3.930552  0  0  0.118525  0  3.948182  0  0  0.056004  0.105369  0  3.918635  0
C  C40  1  0.59324554  0.58303836  0.20594725  1  0  0.146005  0  3.676067  0  0  0.11145  0  3.930884  0  0  0.119437  0  3.948457  0  0  0.056249  0.106248  0  3.919025  0
C  C41  1  0.38305078  0.91679228  0.29425450  1  0  0.145467  0  3.675557  0  0  0.110784  0  3.930807  0  0  0.118787  0  3.948417  0  0  0.056078  0.105622  0  3.9189  0
C  C42  1  0.51032932  0.47541146  0.82918010  1  0  -0.127755  0  3.673721  0  0  -0.149447  0  3.927516  0  0  -0.156764  0  3.947959  0  0  -0.071272  -0.144817  0  3.913926  0
C  C43  1  0.81426448  0.02475157  0.67100349  1  0  -0.127  0  3.676149  0  0  -0.149001  0  3.929732  0  0  -0.156352  0  3.95022  0  0  -0.071157  -0.144365  0  3.91612  0
C  C44  1  0.48957649  0.52457421  0.17088809  1  0  -0.127829  0  3.673996  0  0  -0.149496  0  3.927786  0  0  -0.156812  0  3.948219  0  0  -0.071093  -0.144871  0  3.914206  0
C  C45  1  0.18581573  0.97526834  0.32893728  1  0  -0.126662  0  3.676082  0  0  -0.148748  0  3.929756  0  0  -0.156089  0  3.950242  0  0  -0.071273  -0.144107  0  3.916132  0
C  C46  1  0.69357282  0.44830847  0.88075177  1  0  0.050283  0  3.734827  0  0  0.060538  0  3.971065  0  0  0.06349  0  3.993308  0  0  0.015318  0.05879  0  3.955942  0
C  C47  1  0.02237653  0.05185125  0.61930313  1  0  0.04819  0  3.739908  0  0  0.058401  0  3.975515  0  0  0.061375  0  3.99776  0  0  0.014694  0.056636  0  3.960407  0
C  C48  1  0.30636761  0.55167961  0.11929904  1  0  0.050684  0  3.734736  0  0  0.060724  0  3.971166  0  0  0.063676  0  3.993408  0  0  0.015368  0.058972  0  3.956051  0
C  C49  1  0.97769414  0.94817990  0.38064679  1  0  0.047689  0  3.740223  0  0  0.057969  0  3.975942  0  0  0.060906  0  3.998169  0  0  0.014721  0.056232  0  3.960848  0
C  C50  1  0.76584656  0.36206696  0.89335874  1  0  -0.132547  0  3.69372  0  0  -0.152556  0  3.946314  0  0  -0.159304  0  3.96531  0  0  -0.071742  -0.148391  0  3.933875  0
C  C51  1  0.02131217  0.13809872  0.60626774  1  0  -0.130762  0  3.692208  0  0  -0.150792  0  3.945105  0  0  -0.157493  0  3.964059  0  0  -0.071499  -0.146669  0  3.932711  0
C  C52  1  0.23411175  0.63791918  0.10667640  1  0  -0.132824  0  3.693697  0  0  -0.152803  0  3.94624  0  0  -0.159544  0  3.965238  0  0  -0.071969  -0.14863  0  3.933781  0
C  C53  1  0.97872025  0.86193498  0.39369520  1  0  -0.130707  0  3.693275  0  0  -0.150788  0  3.946002  0  0  -0.157489  0  3.964962  0  0  -0.071377  -0.146658  0  3.93359  0
C  C54  1  0.65319528  0.30767488  0.85680986  1  0  0.146384  0  3.673379  0  0  0.113036  0  3.924897  0  0  0.120455  0  3.941936  0  0  0.054057  0.10818  0  3.913495  0
C  C55  1  0.81764596  0.19248924  0.64245401  1  0  0.146877  0  3.675292  0  0  0.113124  0  3.926564  0  0  0.120666  0  3.943637  0  0  0.054918  0.10821  0  3.915132  0
C  C56  1  0.34676131  0.69231001  0.14322593  1  0  0.14666  0  3.67291  0  0  0.113392  0  3.924355  0  0  0.120804  0  3.94141  0  0  0.05423  0.10854  0  3.91294  0
C  C57  1  0.18236371  0.80753267  0.35751734  1  0  0.146774  0  3.6753  0  0  0.113346  0  3.92641  0  0  0.120882  0  3.943491  0  0  0.054939  0.108448  0  3.914966  0
C  C58  1  0.80852630  0.50729501  0.92109115  1  0  0.268293  0  3.65407  0  0  0.270023  0  3.915745  0  0  0.277917  0  3.931664  0  0  0.153732  0.264579  0  3.904763  0
C  C59  1  0.23656013  0.99284135  0.57909155  1  0  0.268748  0  3.65533  0  0  0.271823  0  3.915112  0  0  0.279707  0  3.931061  0  0  0.154887  0.266392  0  3.904114  0
C  C60  1  0.19144182  0.49268683  0.07895599  1  0  0.267871  0  3.655316  0  0  0.269729  0  3.916895  0  0  0.277627  0  3.932828  0  0  0.153313  0.264284  0  3.905906  0
C  C61  1  0.76353112  0.00719108  0.42086336  1  0  0.269667  0  3.654814  0  0  0.272517  0  3.914817  0  0  0.280496  0  3.930626  0  0  0.155043  0.266985  0  3.903964  0
C  C62  1  0.75683950  0.59814826  0.89381822  1  0  -0.379804  0  3.702547  0  0  -0.458043  0  3.929312  0  0  -0.460648  0  3.93548  0  0  -0.234666  -0.45596  0  3.925012  0
C  C63  1  0.24768180  0.90203406  0.60669093  1  0  -0.377183  0  3.701649  0  0  -0.456015  0  3.927913  0  0  -0.458622  0  3.934132  0  0  -0.233735  -0.453954  0  3.923563  0
C  C64  1  0.24324030  0.40182907  0.10618953  1  0  -0.379542  0  3.702636  0  0  -0.457897  0  3.929364  0  0  -0.460519  0  3.935523  0  0  -0.234597  -0.455807  0  3.925068  0
C  C65  1  0.75243869  0.09799851  0.39328947  1  0  -0.377557  0  3.701065  0  0  -0.456487  0  3.927391  0  0  -0.459106  0  3.933585  0  0  -0.23387  -0.454389  0  3.923083  0
C  C66  1  0.24892124  0.35564673  0.58937118  1  0  0.645271  0  3.906624  0  0  0.596625  0  4.197434  0  0  0.631713  0  4.188387  0  0  0.199666  0.572797  0  4.202771  0
C  C67  1  0.19410389  0.14456540  0.91022149  1  0  0.642852  0  3.909776  0  0  0.593589  0  4.200834  0  0  0.62865  0  4.191813  0  0  0.198507  0.569782  0  4.206155  0
C  C68  1  0.75097767  0.64440805  0.41070601  1  0  0.645081  0  3.906297  0  0  0.596681  0  4.196868  0  0  0.631753  0  4.187825  0  0  0.199761  0.572858  0  4.202201  0
C  C69  1  0.80589756  0.85538165  0.08971282  1  0  0.643275  0  3.908555  0  0  0.59369  0  4.199706  0  0  0.628772  0  4.190685  0  0  0.1986  0.569888  0  4.205028  0
C  C70  1  0.12001738  0.42912218  0.54247965  1  0  -0.177321  0  3.786813  0  0  -0.163833  0  4.03136  0  0  -0.173158  0  4.052525  0  0  -0.037912  -0.157471  0  4.016991  0
C  C71  1  0.09180576  0.07095480  0.95725507  1  0  -0.17792  0  3.786646  0  0  -0.162818  0  4.029717  0  0  -0.172114  0  4.050867  0  0  -0.037881  -0.156508  0  4.015398  0
C  C72  1  0.87984355  0.57090885  0.45757961  1  0  -0.177994  0  3.787023  0  0  -0.164588  0  4.031692  0  0  -0.173924  0  4.052872  0  0  -0.038233  -0.158237  0  4.017337  0
C  C73  1  0.90825137  0.92897976  0.04266801  1  0  -0.177915  0  3.78635  0  0  -0.161957  0  4.028725  0  0  -0.171333  0  4.049965  0  0  -0.037707  -0.155639  0  4.014396  0
C  C74  1  0.88911905  0.46298642  0.58754979  1  0  -0.171113  0  3.725622  0  0  -0.204975  0  3.986017  0  0  -0.206427  0  4.003549  0  0  -0.108616  -0.20397  0  3.974233  0
C  C75  1  0.93915648  0.03698449  0.91265855  1  0  -0.171241  0  3.724901  0  0  -0.205091  0  3.985396  0  0  -0.206523  0  4.002869  0  0  -0.108639  -0.204061  0  3.973605  0
C  C76  1  0.11074489  0.53704587  0.41251287  1  0  -0.170629  0  3.725396  0  0  -0.204342  0  3.985683  0  0  -0.205801  0  4.003226  0  0  -0.108464  -0.203336  0  3.973907  0
C  C77  1  0.06092633  0.96294383  0.08725754  1  0  -0.170785  0  3.724864  0  0  -0.205323  0  3.985093  0  0  -0.206728  0  4.002639  0  0  -0.108567  -0.204286  0  3.973287  0
C  C78  1  0.76570711  0.53351014  0.54674804  1  0  0.309587  0  3.829138  0  0  0.295548  0  4.097616  0  0  0.306182  0  4.114242  0  0  0.074623  0.288079  0  4.086278  0
C  C79  1  0.84540295  0.96637639  0.95370627  1  0  0.309745  0  3.827148  0  0  0.294065  0  4.096698  0  0  0.304703  0  4.113366  0  0  0.073985  0.286592  0  4.085376  0
C  C80  1  0.23416400  0.46652025  0.45330823  1  0  0.308845  0  3.829644  0  0  0.294968  0  4.097797  0  0  0.305598  0  4.114417  0  0  0.074398  0.287493  0  4.08647  0
C  C81  1  0.15466203  0.03355567  0.04621364  1  0  0.309862  0  3.827778  0  0  0.294582  0  4.097352  0  0  0.305187  0  4.114026  0  0  0.074339  0.28713  0  4.085994  0
N  N82  1  0.47549946  0.33461227  0.80807010  1  0  -0.333856  0  3.305908  0  0  -0.247099  0  3.588307  0  0  -0.266695  0  3.601991  0  0  -0.328739  -0.233949  0  3.578994  0
N  N83  1  0.61779365  0.16555069  0.69131618  1  0  -0.334063  0  3.306609  0  0  -0.247202  0  3.589081  0  0  -0.266866  0  3.602819  0  0  -0.32921  -0.234058  0  3.579778  0
N  N84  1  0.52443673  0.66537143  0.19197489  1  0  -0.334302  0  3.30645  0  0  -0.247315  0  3.588618  0  0  -0.266911  0  3.602302  0  0  -0.328854  -0.234173  0  3.579318  0
N  N85  1  0.38222938  0.83446248  0.30864789  1  0  -0.334111  0  3.30658  0  0  -0.24738  0  3.589088  0  0  -0.267031  0  3.602804  0  0  -0.329268  -0.234253  0  3.579807  0
N  N86  1  0.94735159  0.47284669  0.98065692  1  0  -0.249292  0  3.06893  0  0  -0.226492  0  3.355644  0  0  -0.236915  0  3.374548  0  0  -0.205796  -0.219264  0  3.34274  0
N  N87  1  0.40102351  0.02718424  0.51932422  1  0  -0.250547  0  3.067665  0  0  -0.228405  0  3.354446  0  0  -0.238835  0  3.37334  0  0  -0.2069  -0.221175  0  3.341543  0
N  N88  1  0.05252371  0.52713033  0.01942600  1  0  -0.249654  0  3.069847  0  0  -0.22689  0  3.35652  0  0  -0.237318  0  3.37543  0  0  -0.205695  -0.219657  0  3.34361  0
N  N89  1  0.59904988  0.97284813  0.48062041  1  0  -0.250755  0  3.067801  0  0  -0.228509  0  3.354601  0  0  -0.238969  0  3.373464  0  0  -0.206924  -0.221249  0  3.341741  0
O  O90  1  0.13501016  0.32395507  0.67053996  1  0  -0.650911  0  2.069855  0  0  -0.574144  0  2.349215  0  0  -0.60275  0  2.334223  0  0  -0.33544  -0.554071  0  2.358725  0
O  O91  1  0.12916179  0.17629509  0.82929146  1  0  -0.650962  0  2.073296  0  0  -0.573567  0  2.351796  0  0  -0.602256  0  2.337158  0  0  -0.335047  -0.553465  0  2.361122  0
O  O92  1  0.86489508  0.67606599  0.32951486  1  0  -0.650871  0  2.069707  0  0  -0.574404  0  2.349227  0  0  -0.602963  0  2.334188  0  0  -0.335731  -0.554325  0  2.358743  0
O  O93  1  0.87081224  0.82365696  0.17065050  1  0  -0.651102  0  2.073269  0  0  -0.57365  0  2.351841  0  0  -0.602327  0  2.337161  0  0  -0.334865  -0.55355  0  2.361182  0
O  O94  1  0.46211076  0.32738197  0.55138405  1  0  -0.616642  0  1.924577  0  0  -0.56668  0  2.134761  0  0  -0.589272  0  2.124167  0  0  -0.318954  -0.550926  0  2.141548  0
O  O95  1  0.34156648  0.17289760  0.94785204  1  0  -0.615282  0  1.924675  0  0  -0.565254  0  2.135251  0  0  -0.587798  0  2.124682  0  0  -0.318481  -0.549547  0  2.142032  0
O  O96  1  0.53783629  0.67271652  0.44872025  1  0  -0.616471  0  1.92421  0  0  -0.566547  0  2.134232  0  0  -0.58914  0  2.123645  0  0  -0.318908  -0.550784  0  2.141013  0
O  O97  1  0.65844255  0.82705501  0.05207497  1  0  -0.615431  0  1.924059  0  0  -0.565446  0  2.134802  0  0  -0.587986  0  2.124219  0  0  -0.318709  -0.549728  0  2.141571  0
O  O98  1  0.54181808  0.56451174  0.59232489  1  0  -0.530695  0  2.062815  0  0  -0.487461  0  2.263248  0  0  -0.506613  0  2.254787  0  0  -0.371193  -0.47364  0  2.268649  0
O  O99  1  0.69749179  0.93528824  0.90855431  1  0  -0.531148  0  2.061818  0  0  -0.48767  0  2.262717  0  0  -0.506814  0  2.254243  0  0  -0.371177  -0.473898  0  2.268156  0
O  O100  1  0.45806323  0.43552614  0.40773294  1  0  -0.530744  0  2.062919  0  0  -0.487585  0  2.263256  0  0  -0.50673  0  2.254786  0  0  -0.371194  -0.473777  0  2.268665  0
O  O101  1  0.30257200  0.06465062  0.09135590  1  0  -0.531242  0  2.062686  0  0  -0.487809  0  2.263519  0  0  -0.506945  0  2.255063  0  0  -0.371371  -0.474038  0  2.268944  0
