# generated using pymatgen
data_GdH6C7O9
_symmetry_space_group_name_H-M   'P 1'
_cell_length_a   7.41224010
_cell_length_b   9.43369574
_cell_length_c   14.61323407
_cell_angle_alpha   90.00008566
_cell_angle_beta   102.73073748
_cell_angle_gamma   90.00004826
_symmetry_Int_Tables_number   1
_chemical_formula_structural   GdH6C7O9
_chemical_formula_sum   'Gd4 H24 C28 O36'
_cell_volume   996.70759079
_cell_formula_units_Z   4
loop_
 _symmetry_equiv_pos_site_id
 _symmetry_equiv_pos_as_xyz
  1  'x, y, z'
loop_
 _atom_site_type_symbol
 _atom_site_label
 _atom_site_symmetry_multiplicity
 _atom_site_fract_x
 _atom_site_fract_y
 _atom_site_fract_z
 _atom_site_occupancy
 _atom_site_hle17_bader_spin_density
 _atom_site_hle17_ddec_charge
 _atom_site_hle17_ddec_spin_density
 _atom_site_hle17_ddec_sum_bond_order
 _atom_site_hle17_magmom
 _atom_site_hse06_10hf_bader_spin_density
 _atom_site_hse06_10hf_ddec_charge
 _atom_site_hse06_10hf_ddec_spin_density
 _atom_site_hse06_10hf_ddec_sum_bond_order
 _atom_site_hse06_10hf_magmom
 _atom_site_hse06_bader_spin_density
 _atom_site_hse06_ddec_charge
 _atom_site_hse06_ddec_spin_density
 _atom_site_hse06_ddec_sum_bond_order
 _atom_site_hse06_magmom
 _atom_site_pbe_bader_spin_density
 _atom_site_pbe_cm5_charge
 _atom_site_pbe_ddec_charge
 _atom_site_pbe_ddec_spin_density
 _atom_site_pbe_ddec_sum_bond_order
 _atom_site_pbe_magmom
Gd  Gd0  1  0.62077850  0.44722936  0.35361547  1  0  2.223786  0  1.80684  0  0  2.135799  0  2.171786  0  0  2.186643  0  2.118372  0  0  1.469624  2.092612  0  2.220884  0
Gd  Gd1  1  0.87922279  0.94723151  0.14638443  1  0  2.223712  0  1.806988  0  0  2.135734  0  2.171909  0  0  2.186571  0  2.118504  0  0  1.469595  2.09256  0  2.220995  0
Gd  Gd2  1  0.37922778  0.55277154  0.64639233  1  0  2.22386  0  1.80681  0  0  2.135896  0  2.17176  0  0  2.186799  0  2.118257  0  0  1.469692  2.092732  0  2.220809  0
Gd  Gd3  1  0.12077437  0.05276727  0.85360879  1  0  2.223859  0  1.806777  0  0  2.135881  0  2.171691  0  0  2.186706  0  2.118308  0  0  1.46968  2.092661  0  2.220831  0
H  H4  1  0.72199057  0.96123508  0.63567561  1  0  0.135888  0  0.952298  0  0  0.145595  0  1.011097  0  0  0.149292  0  1.008521  0  0  0.116823  0.142805  0  1.013183  0
H  H5  1  0.77801048  0.46124999  0.86432360  1  0  0.135862  0  0.952378  0  0  0.1456  0  1.011151  0  0  0.149299  0  1.008576  0  0  0.116778  0.14281  0  1.013235  0
H  H6  1  0.27800441  0.03876370  0.36432699  1  0  0.135885  0  0.952349  0  0  0.145597  0  1.011127  0  0  0.149291  0  1.008561  0  0  0.116827  0.142811  0  1.013208  0
H  H7  1  0.22199547  0.53876363  0.13567869  1  0  0.135866  0  0.952401  0  0  0.1456  0  1.011164  0  0  0.149296  0  1.008593  0  0  0.116786  0.142812  0  1.013247  0
H  H8  1  0.83181939  0.19333976  0.55006215  1  0  0.138499  0  0.967512  0  0  0.146311  0  1.02737  0  0  0.150176  0  1.025074  0  0  0.115322  0.143308  0  1.029403  0
H  H9  1  0.66818797  0.69335105  0.94993538  1  0  0.138519  0  0.967521  0  0  0.146276  0  1.02744  0  0  0.15014  0  1.025149  0  0  0.115335  0.143274  0  1.029473  0
H  H10  1  0.16817244  0.80665689  0.44993398  1  0  0.138472  0  0.967532  0  0  0.146241  0  1.027446  0  0  0.150104  0  1.025154  0  0  0.115314  0.143239  0  1.02948  0
H  H11  1  0.33183466  0.30666151  0.05006990  1  0  0.138498  0  0.967487  0  0  0.14628  0  1.027397  0  0  0.150145  0  1.025103  0  0  0.115331  0.143278  0  1.029431  0
H  H12  1  0.19938105  0.44635994  0.28842852  1  0  0.443528  0  0.787162  0  0  0.428626  0  0.834567  0  0  0.436372  0  0.826529  0  0  0.33957  0.422994  0  0.840437  0
H  H13  1  0.30060966  0.94637812  0.21157321  1  0  0.443543  0  0.78725  0  0  0.428716  0  0.834527  0  0  0.436464  0  0.826479  0  0  0.339596  0.423083  0  0.840403  0
H  H14  1  0.80062444  0.55364732  0.71156619  1  0  0.443633  0  0.787123  0  0  0.428703  0  0.834574  0  0  0.436451  0  0.826532  0  0  0.339566  0.423069  0  0.840449  0
H  H15  1  0.69938803  0.05363550  0.78842896  1  0  0.443543  0  0.787116  0  0  0.428666  0  0.834485  0  0  0.436411  0  0.826446  0  0  0.339606  0.423034  0  0.840354  0
H  H16  1  0.26758847  0.55758582  0.36689710  1  0  0.43177  0  0.864247  0  0  0.398378  0  0.938935  0  0  0.409756  0  0.922161  0  0  0.305346  0.390268  0  0.95088  0
H  H17  1  0.23241200  0.05759589  0.13309495  1  0  0.431717  0  0.864188  0  0  0.398311  0  0.939016  0  0  0.409685  0  0.922249  0  0  0.305327  0.390201  0  0.950959  0
H  H18  1  0.73242025  0.44241084  0.63310546  1  0  0.431779  0  0.864269  0  0  0.39839  0  0.93892  0  0  0.409769  0  0.922144  0  0  0.305363  0.390278  0  0.950868  0
H  H19  1  0.76758227  0.94240713  0.86689593  1  0  0.431714  0  0.864286  0  0  0.39832  0  0.939006  0  0  0.409698  0  0.922233  0  0  0.305341  0.39021  0  0.950951  0
H  H20  1  0.52953778  0.21812592  0.19300001  1  0  0.44996  0  0.827312  0  0  0.422802  0  0.887397  0  0  0.433315  0  0.871901  0  0  0.314442  0.415132  0  0.898715  0
H  H21  1  0.97047560  0.71812746  0.30700153  1  0  0.449864  0  0.827378  0  0  0.422744  0  0.887433  0  0  0.433252  0  0.871949  0  0  0.314439  0.415077  0  0.898747  0
H  H22  1  0.47046403  0.78187498  0.80700187  1  0  0.449962  0  0.82727  0  0  0.4228  0  0.887393  0  0  0.433314  0  0.871896  0  0  0.314438  0.415132  0  0.89871  0
H  H23  1  0.02953296  0.28187556  0.69299827  1  0  0.450009  0  0.827262  0  0  0.422844  0  0.887358  0  0  0.433361  0  0.871855  0  0  0.314433  0.415175  0  0.898676  0
H  H24  1  0.37590653  0.20321451  0.24834346  1  0  0.439465  0  0.832452  0  0  0.41559  0  0.891151  0  0  0.425719  0  0.876016  0  0  0.313845  0.408264  0  0.902079  0
H  H25  1  0.12408858  0.70321891  0.25164684  1  0  0.439484  0  0.832404  0  0  0.415604  0  0.891127  0  0  0.425734  0  0.875991  0  0  0.313878  0.408275  0  0.90206  0
H  H26  1  0.62407940  0.79678427  0.75164593  1  0  0.439487  0  0.832449  0  0  0.41561  0  0.891133  0  0  0.425741  0  0.875995  0  0  0.31385  0.408282  0  0.902065  0
H  H27  1  0.87592449  0.29677987  0.74835956  1  0  0.439474  0  0.832477  0  0  0.415641  0  0.891098  0  0  0.425771  0  0.875962  0  0  0.313838  0.408306  0  0.902042  0
C  C28  1  0.60121072  0.72867384  0.49800459  1  0  0.702016  0  3.916276  0  0  0.653321  0  4.215042  0  0  0.689123  0  4.20249  0  0  0.231453  0.629533  0  4.221545  0
C  C29  1  0.89877750  0.22868262  0.00198973  1  0  0.702119  0  3.916334  0  0  0.653554  0  4.214901  0  0  0.689337  0  4.202369  0  0  0.231564  0.629767  0  4.221394  0
C  C30  1  0.39878849  0.27132282  0.50199978  1  0  0.702045  0  3.916358  0  0  0.653438  0  4.214991  0  0  0.689231  0  4.202449  0  0  0.231502  0.629651  0  4.22148  0
C  C31  1  0.10121422  0.77132040  0.99800433  1  0  0.702004  0  3.916541  0  0  0.653437  0  4.215116  0  0  0.689226  0  4.202576  0  0  0.231492  0.629649  0  4.221609  0
C  C32  1  0.68783099  0.86804448  0.49539520  1  0  0.0699  0  3.659739  0  0  0.062884  0  3.924271  0  0  0.06302  0  3.939242  0  0  0.067909  0.062233  0  3.914206  0
C  C33  1  0.81214788  0.36804473  0.00459972  1  0  0.069816  0  3.660076  0  0  0.062747  0  3.924657  0  0  0.062883  0  3.939593  0  0  0.067825  0.062139  0  3.914595  0
C  C34  1  0.31216562  0.13195642  0.50461166  1  0  0.06985  0  3.659814  0  0  0.062737  0  3.924419  0  0  0.062896  0  3.939348  0  0  0.067783  0.062092  0  3.914352  0
C  C35  1  0.18784123  0.63195616  0.99539683  1  0  0.069739  0  3.660096  0  0  0.062632  0  3.924686  0  0  0.062789  0  3.939618  0  0  0.067736  0.062015  0  3.914622  0
C  C36  1  0.73151407  0.97170703  0.56311424  1  0  -0.119  0  3.707768  0  0  -0.153483  0  3.975074  0  0  -0.154286  0  3.993054  0  0  -0.094738  -0.152815  0  3.963483  0
C  C37  1  0.76846747  0.47171152  0.93688035  1  0  -0.118972  0  3.707942  0  0  -0.153439  0  3.975184  0  0  -0.15426  0  3.993171  0  0  -0.094629  -0.152766  0  3.963579  0
C  C38  1  0.26847240  0.02829599  0.43688410  1  0  -0.119021  0  3.707636  0  0  -0.153464  0  3.974929  0  0  -0.154282  0  3.992911  0  0  -0.094671  -0.152795  0  3.963333  0
C  C39  1  0.23153148  0.52829468  0.06311990  1  0  -0.118987  0  3.707892  0  0  -0.153452  0  3.975183  0  0  -0.154267  0  3.993162  0  0  -0.094606  -0.152781  0  3.963584  0
C  C40  1  0.78995622  0.09117933  0.51902613  1  0  -0.126528  0  3.710961  0  0  -0.162165  0  3.982003  0  0  -0.16419  0  4.000413  0  0  -0.096907  -0.161154  0  3.970397  0
C  C41  1  0.71003864  0.59118435  0.98097215  1  0  -0.126562  0  3.711002  0  0  -0.162119  0  3.982077  0  0  -0.164146  0  4.0005  0  0  -0.096901  -0.161103  0  3.970464  0
C  C42  1  0.21003700  0.90881839  0.48097014  1  0  -0.12644  0  3.710866  0  0  -0.162015  0  3.98193  0  0  -0.164038  0  4.00034  0  0  -0.096857  -0.161006  0  3.970329  0
C  C43  1  0.28996873  0.40881973  0.01903097  1  0  -0.126456  0  3.710886  0  0  -0.162083  0  3.981972  0  0  -0.16411  0  4.000384  0  0  -0.096953  -0.161071  0  3.970366  0
C  C44  1  0.78169162  0.05327996  0.42707266  1  0  0.065794  0  3.668129  0  0  0.056763  0  3.937464  0  0  0.057948  0  3.951629  0  0  0.073588  0.055287  0  3.928436  0
C  C45  1  0.71828681  0.55328397  0.07292398  1  0  0.065909  0  3.668171  0  0  0.056767  0  3.937664  0  0  0.057916  0  3.951833  0  0  0.073544  0.055331  0  3.928644  0
C  C46  1  0.21829209  0.94671140  0.57292542  1  0  0.065921  0  3.668008  0  0  0.056794  0  3.937438  0  0  0.057976  0  3.951598  0  0  0.073573  0.055319  0  3.928417  0
C  C47  1  0.28171361  0.44671587  0.92707778  1  0  0.065834  0  3.668093  0  0  0.056787  0  3.937501  0  0  0.057965  0  3.951664  0  0  0.073612  0.05534  0  3.928479  0
C  C48  1  0.82999572  0.13138712  0.34846046  1  0  0.703262  0  3.930282  0  0  0.656452  0  4.22671  0  0  0.69254  0  4.213069  0  0  0.235291  0.632318  0  4.234331  0
C  C49  1  0.66999383  0.63138918  0.15153596  1  0  0.703121  0  3.930557  0  0  0.656393  0  4.226934  0  0  0.692479  0  4.213297  0  0  0.235287  0.63226  0  4.234553  0
C  C50  1  0.16999340  0.86860424  0.65153609  1  0  0.703252  0  3.93039  0  0  0.656491  0  4.226794  0  0  0.69258  0  4.213154  0  0  0.235371  0.632355  0  4.234415  0
C  C51  1  0.33000948  0.36860642  0.84846813  1  0  0.703365  0  3.930536  0  0  0.656507  0  4.227056  0  0  0.692595  0  4.213415  0  0  0.235332  0.632374  0  4.23467  0
C  C52  1  0.96343241  0.46158990  0.53897145  1  0  0.570298  0  3.890912  0  0  0.524721  0  4.19037  0  0  0.554704  0  4.181428  0  0  0.225757  0.504653  0  4.194862  0
C  C53  1  0.53656144  0.96159267  0.96102227  1  0  0.570159  0  3.89114  0  0  0.524653  0  4.190447  0  0  0.554633  0  4.181508  0  0  0.225716  0.504588  0  4.194934  0
C  C54  1  0.03658297  0.53840570  0.46102765  1  0  0.570349  0  3.89083  0  0  0.524751  0  4.190362  0  0  0.554731  0  4.181423  0  0  0.225901  0.504689  0  4.194848  0
C  C55  1  0.46343589  0.03840505  0.03897371  1  0  0.570136  0  3.891  0  0  0.524549  0  4.190424  0  0  0.554527  0  4.181485  0  0  0.225728  0.504486  0  4.19491  0
O  O56  1  0.79292898  0.43075251  0.52130541  1  0  -0.655325  0  2.142309  0  0  -0.606877  0  2.381062  0  0  -0.631835  0  2.373483  0  0  -0.327203  -0.588949  0  2.385866  0
O  O57  1  0.70708169  0.93075010  0.97869471  1  0  -0.655248  0  2.14188  0  0  -0.606865  0  2.380618  0  0  -0.631827  0  2.37305  0  0  -0.327219  -0.588938  0  2.385423  0
O  O58  1  0.20709645  0.56924945  0.47870083  1  0  -0.655387  0  2.142061  0  0  -0.606978  0  2.380883  0  0  -0.63195  0  2.373316  0  0  -0.327319  -0.589057  0  2.385686  0
O  O59  1  0.29291559  0.06924868  0.02130058  1  0  -0.655351  0  2.14197  0  0  -0.606902  0  2.380701  0  0  -0.631867  0  2.373142  0  0  -0.327253  -0.588967  0  2.385495  0
O  O60  1  0.56363619  0.65496562  0.42366200  1  0  -0.71872  0  2.079683  0  0  -0.681075  0  2.341296  0  0  -0.704087  0  2.325366  0  0  -0.408562  -0.664316  0  2.351476  0
O  O61  1  0.93636870  0.15497036  0.07633729  1  0  -0.718831  0  2.079445  0  0  -0.681208  0  2.34098  0  0  -0.704223  0  2.325065  0  0  -0.408609  -0.664447  0  2.351156  0
O  O62  1  0.43636636  0.34502680  0.57635228  1  0  -0.718755  0  2.079532  0  0  -0.68113  0  2.341084  0  0  -0.704158  0  2.32516  0  0  -0.408635  -0.664373  0  2.351267  0
O  O63  1  0.06364083  0.84502948  0.92365576  1  0  -0.718729  0  2.079616  0  0  -0.681122  0  2.34115  0  0  -0.704135  0  2.325233  0  0  -0.408601  -0.664353  0  2.351332  0
O  O64  1  0.28127190  0.52820913  0.30294903  1  0  -0.851094  0  1.857175  0  0  -0.807219  0  2.04115  0  0  -0.826149  0  2.013001  0  0  -0.584483  -0.793174  0  2.061028  0
O  O65  1  0.21872453  0.02822784  0.19704535  1  0  -0.851082  0  1.857224  0  0  -0.807254  0  2.041126  0  0  -0.826178  0  2.012977  0  0  -0.58451  -0.793219  0  2.061013  0
O  O66  1  0.71873677  0.47179707  0.69705284  1  0  -0.851201  0  1.857179  0  0  -0.807309  0  2.041164  0  0  -0.826246  0  2.013003  0  0  -0.584513  -0.79327  0  2.061049  0
O  O67  1  0.78126991  0.97178260  0.80294829  1  0  -0.851078  0  1.857188  0  0  -0.807194  0  2.041095  0  0  -0.826119  0  2.012945  0  0  -0.584528  -0.793152  0  2.060982  0
O  O68  1  0.56690273  0.69345868  0.57668687  1  0  -0.746211  0  2.068987  0  0  -0.705197  0  2.330033  0  0  -0.731938  0  2.31899  0  0  -0.408988  -0.684902  0  2.33636  0
O  O69  1  0.93309106  0.19346640  0.92331344  1  0  -0.746184  0  2.068961  0  0  -0.705241  0  2.330003  0  0  -0.731952  0  2.31894  0  0  -0.409006  -0.68495  0  2.336361  0
O  O70  1  0.43309694  0.30654434  0.42332508  1  0  -0.746151  0  2.068929  0  0  -0.705194  0  2.330002  0  0  -0.731901  0  2.318925  0  0  -0.408945  -0.684933  0  2.336416  0
O  O71  1  0.06690074  0.80653980  0.07668200  1  0  -0.74613  0  2.069011  0  0  -0.705179  0  2.330046  0  0  -0.731893  0  2.31898  0  0  -0.408969  -0.684903  0  2.336423  0
O  O72  1  0.46607283  0.27174121  0.23475772  1  0  -0.882318  0  1.842505  0  0  -0.842815  0  2.027919  0  0  -0.860311  0  1.995227  0  0  -0.617107  -0.829449  0  2.051338  0
O  O73  1  0.03393404  0.77174878  0.26524337  1  0  -0.882256  0  1.84258  0  0  -0.842767  0  2.028046  0  0  -0.860258  0  1.995355  0  0  -0.617129  -0.829401  0  2.051466  0
O  O74  1  0.53392474  0.72825757  0.76524239  1  0  -0.882351  0  1.842526  0  0  -0.842853  0  2.027952  0  0  -0.860354  0  1.995253  0  0  -0.61712  -0.829492  0  2.05137  0
O  O75  1  0.96607300  0.22825318  0.73475424  1  0  -0.882386  0  1.842569  0  0  -0.842945  0  2.027791  0  0  -0.86044  0  1.995099  0  0  -0.617093  -0.829571  0  2.051214  0
O  O76  1  0.72105033  0.91601922  0.41195469  1  0  -0.168078  0  2.384289  0  0  -0.101256  0  2.600668  0  0  -0.115294  0  2.607667  0  0  -0.101151  -0.091795  0  2.595976  0
O  O77  1  0.77891346  0.41601543  0.08803948  1  0  -0.168011  0  2.384279  0  0  -0.101216  0  2.60076  0  0  -0.115181  0  2.6077  0  0  -0.101104  -0.091859  0  2.596129  0
O  O78  1  0.27893911  0.08397108  0.58804736  1  0  -0.16815  0  2.384554  0  0  -0.101264  0  2.600955  0  0  -0.115295  0  2.60793  0  0  -0.101133  -0.091816  0  2.596271  0
O  O79  1  0.22106468  0.58397699  0.91195737  1  0  -0.168036  0  2.384414  0  0  -0.101189  0  2.600819  0  0  -0.115214  0  2.60779  0  0  -0.1011  -0.091807  0  2.596172  0
O  O80  1  0.83690661  0.26620916  0.35438439  1  0  -0.734625  0  2.016665  0  0  -0.695652  0  2.26291  0  0  -0.721101  0  2.250399  0  0  -0.405054  -0.677437  0  2.270866  0
O  O81  1  0.66309148  0.76621226  0.14561297  1  0  -0.734659  0  2.016773  0  0  -0.695703  0  2.262988  0  0  -0.72115  0  2.250475  0  0  -0.405102  -0.6775  0  2.27097  0
O  O82  1  0.16308820  0.73378432  0.64561545  1  0  -0.73463  0  2.016692  0  0  -0.695674  0  2.262948  0  0  -0.721132  0  2.25043  0  0  -0.405132  -0.677467  0  2.27091  0
O  O83  1  0.33690606  0.23378970  0.85438645  1  0  -0.734633  0  2.016792  0  0  -0.69564  0  2.263064  0  0  -0.721083  0  2.25055  0  0  -0.405066  -0.677421  0  2.271024  0
O  O84  1  0.86312099  0.06039366  0.28044754  1  0  -0.716258  0  2.067004  0  0  -0.678829  0  2.329883  0  0  -0.702573  0  2.312984  0  0  -0.416796  -0.660487  0  2.340534  0
O  O85  1  0.63687811  0.56040011  0.21954974  1  0  -0.716173  0  2.067052  0  0  -0.678727  0  2.329852  0  0  -0.702472  0  2.312956  0  0  -0.416734  -0.660378  0  2.340499  0
O  O86  1  0.13687918  0.93959982  0.71955008  1  0  -0.716303  0  2.067163  0  0  -0.678865  0  2.329978  0  0  -0.702607  0  2.313078  0  0  -0.41682  -0.660512  0  2.340628  0
O  O87  1  0.36312244  0.43960185  0.78045408  1  0  -0.716356  0  2.067118  0  0  -0.678895  0  2.330002  0  0  -0.702653  0  2.313097  0  0  -0.416825  -0.660555  0  2.340648  0
O  O88  1  0.07834437  0.43532435  0.61500490  1  0  -0.656094  0  2.087535  0  0  -0.612741  0  2.326386  0  0  -0.63694  0  2.316798  0  0  -0.348016  -0.594977  0  2.332108  0
O  O89  1  0.42165699  0.93533136  0.88499513  1  0  -0.655951  0  2.08803  0  0  -0.612612  0  2.326806  0  0  -0.636793  0  2.31722  0  0  -0.347946  -0.594844  0  2.332527  0
O  O90  1  0.92167943  0.56465853  0.38499707  1  0  -0.655965  0  2.087665  0  0  -0.61263  0  2.326511  0  0  -0.636813  0  2.316927  0  0  -0.348017  -0.594867  0  2.332233  0
O  O91  1  0.57833761  0.06466636  0.11500127  1  0  -0.655851  0  2.087928  0  0  -0.612494  0  2.326737  0  0  -0.636677  0  2.317155  0  0  -0.347903  -0.594733  0  2.332456  0
