# generated using pymatgen
data_CdH9C13NO5
_symmetry_space_group_name_H-M   'P 1'
_cell_length_a   7.80262113
_cell_length_b   8.43999163
_cell_length_c   10.41991160
_cell_angle_alpha   68.23085376
_cell_angle_beta   82.79373594
_cell_angle_gamma   96.07371256
_symmetry_Int_Tables_number   1
_chemical_formula_structural   CdH9C13NO5
_chemical_formula_sum   'Cd2 H18 C26 N2 O10'
_cell_volume   623.52345871
_cell_formula_units_Z   2
loop_
 _symmetry_equiv_pos_site_id
 _symmetry_equiv_pos_as_xyz
  1  'x, y, z'
loop_
 _atom_site_type_symbol
 _atom_site_label
 _atom_site_symmetry_multiplicity
 _atom_site_fract_x
 _atom_site_fract_y
 _atom_site_fract_z
 _atom_site_occupancy
 _atom_site_hle17_bader_spin_density
 _atom_site_hle17_ddec_charge
 _atom_site_hle17_ddec_spin_density
 _atom_site_hle17_ddec_sum_bond_order
 _atom_site_hle17_magmom
 _atom_site_hse06_10hf_bader_spin_density
 _atom_site_hse06_10hf_ddec_charge
 _atom_site_hse06_10hf_ddec_spin_density
 _atom_site_hse06_10hf_ddec_sum_bond_order
 _atom_site_hse06_10hf_magmom
 _atom_site_hse06_bader_spin_density
 _atom_site_hse06_ddec_charge
 _atom_site_hse06_ddec_spin_density
 _atom_site_hse06_ddec_sum_bond_order
 _atom_site_hse06_magmom
 _atom_site_pbe_bader_spin_density
 _atom_site_pbe_cm5_charge
 _atom_site_pbe_ddec_charge
 _atom_site_pbe_ddec_spin_density
 _atom_site_pbe_ddec_sum_bond_order
 _atom_site_pbe_magmom
Cd  Cd0  1  0.47627536  0.68666067  0.34394516  1  0  1.194149  0  1.635631  0  0  1.012256  0  2.083001  0  0  1.069076  0  2.028433  0  0  0.779803  0.969091  0  2.121695  0
Cd  Cd1  1  0.52371832  0.31332735  0.65606870  1  0  1.194117  0  1.635876  0  0  1.012248  0  2.083259  0  0  1.069067  0  2.028688  0  0  0.779815  0.969087  0  2.12197  0
H  H2  1  0.96990112  0.66090383  0.01104460  1  0  0.102105  0  0.94332  0  0  0.112983  0  1.002342  0  0  0.116181  0  1.000393  0  0  0.1062  0.110357  0  1.00404  0
H  H3  1  0.03006811  0.33908819  0.98897987  1  0  0.102018  0  0.943352  0  0  0.112914  0  1.002369  0  0  0.116114  0  1.000412  0  0  0.106177  0.110257  0  1.0041  0
H  H4  1  0.10728253  0.68887392  0.77346866  1  0  0.108133  0  0.944752  0  0  0.11792  0  1.005704  0  0  0.12139  0  1.004073  0  0  0.107146  0.115382  0  1.007001  0
H  H5  1  0.89273652  0.31117955  0.22654549  1  0  0.107858  0  0.944923  0  0  0.11772  0  1.005797  0  0  0.121189  0  1.004171  0  0  0.10716  0.11518  0  1.007098  0
H  H6  1  0.47212456  0.69432058  0.87881589  1  0  0.098629  0  0.959978  0  0  0.108553  0  1.022739  0  0  0.1118  0  1.02058  0  0  0.108247  0.10623  0  1.024434  0
H  H7  1  0.52788548  0.30570697  0.12115374  1  0  0.098538  0  0.959825  0  0  0.108547  0  1.02249  0  0  0.111799  0  1.020326  0  0  0.108182  0.106211  0  1.024182  0
H  H8  1  0.16082702  0.59113319  0.60408539  1  0  0.100005  0  0.93233  0  0  0.106854  0  0.999592  0  0  0.110125  0  0.996131  0  0  0.120829  0.10457  0  1.001865  0
H  H9  1  0.83915722  0.40884759  0.39591765  1  0  0.099956  0  0.932308  0  0  0.106807  0  0.99958  0  0  0.11008  0  0.996117  0  0  0.120793  0.104526  0  1.001855  0
H  H10  1  0.20074564  0.83751214  0.17298385  1  0  0.08712  0  0.931978  0  0  0.098366  0  0.990111  0  0  0.101264  0  0.987182  0  0  0.118398  0.096161  0  0.992365  0
H  H11  1  0.79925122  0.16247747  0.82701202  1  0  0.08709  0  0.931977  0  0  0.098295  0  0.990157  0  0  0.101198  0  0.987224  0  0  0.118394  0.096091  0  0.992414  0
H  H12  1  0.93239912  0.97344139  0.20214585  1  0  0.108357  0  0.950117  0  0  0.119297  0  1.005852  0  0  0.122283  0  1.005127  0  0  0.108359  0.117481  0  1.005965  0
H  H13  1  0.06760018  0.02656088  0.79785041  1  0  0.108406  0  0.950089  0  0  0.119347  0  1.005831  0  0  0.122333  0  1.005106  0  0  0.108389  0.117532  0  1.005945  0
H  H14  1  0.79296901  0.93051882  0.44156849  1  0  0.107225  0  0.936257  0  0  0.121422  0  0.989941  0  0  0.123541  0  0.988855  0  0  0.114129  0.119932  0  0.990782  0
H  H15  1  0.20703960  0.06948648  0.55842815  1  0  0.107319  0  0.936196  0  0  0.121486  0  0.989886  0  0  0.123605  0  0.9888  0  0  0.11413  0.119982  0  0.990742  0
H  H16  1  0.56507116  0.06188530  0.29746770  1  0  0.422818  0  0.885758  0  0  0.387862  0  0.956599  0  0  0.3999  0  0.939243  0  0  0.282661  0.379266  0  0.968956  0
H  H17  1  0.43492373  0.93810161  0.70254539  1  0  0.42279  0  0.885768  0  0  0.387841  0  0.956597  0  0  0.399878  0  0.939243  0  0  0.282661  0.37925  0  0.968946  0
H  H18  1  0.55780985  0.03934946  0.15219113  1  0  0.4243  0  0.836256  0  0  0.3979  0  0.90872  0  0  0.407481  0  0.896585  0  0  0.305288  0.390975  0  0.917053  0
H  H19  1  0.44223320  0.96063956  0.84781549  1  0  0.424241  0  0.836189  0  0  0.397855  0  0.908646  0  0  0.407439  0  0.896615  0  0  0.305278  0.390928  0  0.916983  0
C  C20  1  0.62767523  0.68741795  0.09298794  1  0  0.62426  0  3.949151  0  0  0.579128  0  4.233427  0  0  0.612709  0  4.230037  0  0  0.187101  0.556343  0  4.234944  0
C  C21  1  0.37229540  0.31256854  0.90701188  1  0  0.624056  0  3.949114  0  0  0.578909  0  4.233372  0  0  0.612502  0  4.229991  0  0  0.186842  0.556126  0  4.234885  0
C  C22  1  0.71301849  0.68357611  0.95776861  1  0  -0.053917  0  3.76346  0  0  -0.028916  0  3.996617  0  0  -0.037694  0  4.02002  0  0  -0.017483  -0.024268  0  3.98196  0
C  C23  1  0.28697118  0.31642039  0.04222994  1  0  -0.054025  0  3.763179  0  0  -0.028911  0  3.996203  0  0  -0.037736  0  4.019665  0  0  -0.017437  -0.024269  0  3.981538  0
C  C24  1  0.89081289  0.67344868  0.92972443  1  0  -0.058738  0  3.725648  0  0  -0.085788  0  3.976182  0  0  -0.083663  0  3.994783  0  0  -0.078358  -0.08551  0  3.962314  0
C  C25  1  0.10917079  0.32657036  0.07028613  1  0  -0.058706  0  3.725685  0  0  -0.08584  0  3.976253  0  0  -0.083696  0  3.994858  0  0  -0.07844  -0.085531  0  3.962403  0
C  C26  1  0.96661955  0.68714806  0.79680208  1  0  -0.11048  0  3.712331  0  0  -0.12829  0  3.967921  0  0  -0.1332  0  3.98824  0  0  -0.081147  -0.124821  0  3.953199  0
C  C27  1  0.03339086  0.31289115  0.20319530  1  0  -0.110063  0  3.712097  0  0  -0.127958  0  3.967656  0  0  -0.132869  0  3.987977  0  0  -0.081106  -0.124494  0  3.952926  0
C  C28  1  0.86788532  0.70948368  0.68903989  1  0  0.061906  0  3.729633  0  0  0.062144  0  3.967049  0  0  0.06568  0  3.991234  0  0  0.004349  0.060711  0  3.950269  0
C  C29  1  0.13214382  0.29053610  0.31096382  1  0  0.061863  0  3.729199  0  0  0.062216  0  3.966498  0  0  0.065755  0  3.990678  0  0  0.004458  0.06078  0  3.949712  0
C  C30  1  0.68560010  0.70829749  0.72111379  1  0  -0.111817  0  3.723046  0  0  -0.09019  0  3.958838  0  0  -0.099459  0  3.981312  0  0  -0.015755  -0.084706  0  3.944502  0
C  C31  1  0.31443556  0.29172975  0.27886342  1  0  -0.111734  0  3.723503  0  0  -0.090234  0  3.959259  0  0  -0.099502  0  3.98173  0  0  -0.015813  -0.084745  0  3.944903  0
C  C32  1  0.61226541  0.69655622  0.85386160  1  0  -0.083353  0  3.753114  0  0  -0.118136  0  4.000026  0  0  -0.116844  0  4.020972  0  0  -0.081958  -0.119513  0  3.987538  0
C  C33  1  0.38772517  0.30346517  0.14614009  1  0  -0.083122  0  3.753505  0  0  -0.117956  0  4.000311  0  0  -0.116653  0  4.021278  0  0  -0.081815  -0.119316  0  3.987799  0
C  C34  1  0.56166396  0.71887818  0.61996149  1  0  0.664936  0  3.901118  0  0  0.60709  0  4.203089  0  0  0.642378  0  4.194787  0  0  0.212088  0.583065  0  4.207884  0
C  C35  1  0.43835232  0.28111048  0.38002917  1  0  0.664857  0  3.901023  0  0  0.607175  0  4.202753  0  0  0.642457  0  4.194449  0  0  0.21201  0.583162  0  4.207546  0
C  C36  1  0.95711947  0.74779492  0.54464531  1  0  0.007082  0  3.752077  0  0  0.024087  0  3.99287  0  0  0.018618  0  4.016431  0  0  -0.000544  0.027111  0  3.977043  0
C  C37  1  0.04290008  0.25221527  0.45534531  1  0  0.006921  0  3.752272  0  0  0.023898  0  3.992993  0  0  0.018428  0  4.016556  0  0  -0.00066  0.026928  0  3.977153  0
C  C38  1  0.10644195  0.67799834  0.51834554  1  0  0.099387  0  3.649631  0  0  0.058474  0  3.906405  0  0  0.066332  0  3.923119  0  0  0.051756  0.054633  0  3.893654  0
C  C39  1  0.89355780  0.32199508  0.48165201  1  0  0.09947  0  3.649353  0  0  0.058574  0  3.906097  0  0  0.066429  0  3.922817  0  0  0.051836  0.054728  0  3.893353  0
C  C40  1  0.12805996  0.81593494  0.27616952  1  0  0.118889  0  3.711593  0  0  0.085897  0  3.963107  0  0  0.093469  0  3.981693  0  0  0.044578  0.082069  0  3.949742  0
C  C41  1  0.87193404  0.18405094  0.72382370  1  0  0.118974  0  3.711441  0  0  0.08603  0  3.962994  0  0  0.093601  0  3.981572  0  0  0.044592  0.082205  0  3.949637  0
C  C42  1  0.98137948  0.89109355  0.29266056  1  0  -0.097878  0  3.744889  0  0  -0.110438  0  3.998936  0  0  -0.117386  0  4.020795  0  0  -0.081418  -0.106166  0  3.984067  0
C  C43  1  0.01862297  0.10890028  0.70733377  1  0  -0.097894  0  3.745078  0  0  -0.110484  0  3.999105  0  0  -0.117431  0  4.02096  0  0  -0.081439  -0.106215  0  3.984237  0
C  C44  1  0.90008621  0.86221754  0.42758805  1  0  -0.025875  0  3.664725  0  0  -0.052493  0  3.912042  0  0  -0.048649  0  3.930021  0  0  -0.059699  -0.055514  0  3.900437  0
C  C45  1  0.09992469  0.13778618  0.57241457  1  0  -0.026017  0  3.66487  0  0  -0.05258  0  3.912108  0  0  -0.048734  0  3.930084  0  0  -0.059702  -0.055594  0  3.900502  0
N  N46  1  0.19142510  0.71514187  0.38751463  1  0  -0.35703  0  3.322578  0  0  -0.276931  0  3.600521  0  0  -0.298626  0  3.619123  0  0  -0.340279  -0.261963  0  3.586049  0
N  N47  1  0.80855977  0.28484437  0.61248311  1  0  -0.35699  0  3.322327  0  0  -0.276939  0  3.600283  0  0  -0.298631  0  3.618883  0  0  -0.340279  -0.261977  0  3.585828  0
O  O48  1  0.59062561  0.98601145  0.24421619  1  0  -0.837937  0  1.862539  0  0  -0.775813  0  2.066056  0  0  -0.797766  0  2.034079  0  0  -0.580341  -0.760333  0  2.088237  0
O  O49  1  0.40936908  0.01397303  0.75579561  1  0  -0.837823  0  1.862537  0  0  -0.775712  0  2.066023  0  0  -0.797664  0  2.03415  0  0  -0.580307  -0.760231  0  2.088203  0
O  O50  1  0.70028257  0.63165252  0.20108908  1  0  -0.636651  0  1.925061  0  0  -0.574739  0  2.158498  0  0  -0.604421  0  2.151271  0  0  -0.334009  -0.554098  0  2.163685  0
O  O51  1  0.29967827  0.36833970  0.79891008  1  0  -0.636644  0  1.924913  0  0  -0.574755  0  2.158322  0  0  -0.60445  0  2.15112  0  0  -0.333988  -0.554111  0  2.163506  0
O  O52  1  0.48423345  0.74815929  0.09435102  1  0  -0.662931  0  1.909073  0  0  -0.602801  0  2.136518  0  0  -0.631131  0  2.12737  0  0  -0.342545  -0.582501  0  2.141675  0
O  O53  1  0.51574659  0.25182948  0.90564262  1  0  -0.662742  0  1.908968  0  0  -0.602622  0  2.136438  0  0  -0.630951  0  2.127288  0  0  -0.342373  -0.582319  0  2.141593  0
O  O54  1  0.44652650  0.81352333  0.61199017  1  0  -0.590389  0  1.963324  0  0  -0.538785  0  2.191929  0  0  -0.563275  0  2.18284  0  0  -0.298441  -0.52129  0  2.197358  0
O  O55  1  0.55345625  0.18644109  0.38801240  1  0  -0.590295  0  1.963282  0  0  -0.538786  0  2.191865  0  0  -0.563281  0  2.182788  0  0  -0.298324  -0.521295  0  2.19729  0
O  O56  1  0.58142662  0.62572195  0.54600928  1  0  -0.702326  0  2.128228  0  0  -0.616958  0  2.405808  0  0  -0.650152  0  2.392498  0  0  -0.338993  -0.592752  0  2.414693  0
O  O57  1  0.41861481  0.37424942  0.45399720  1  0  -0.702401  0  2.128269  0  0  -0.617042  0  2.405742  0  0  -0.650239  0  2.392431  0  0  -0.338996  -0.592817  0  2.41457  0
