# generated using pymatgen
data_CdH14C8(N2O3)2
_symmetry_space_group_name_H-M   'P 1'
_cell_length_a   4.69497026
_cell_length_b   9.26186982
_cell_length_c   14.87149933
_cell_angle_alpha   96.80523255
_cell_angle_beta   89.95807893
_cell_angle_gamma   104.53405832
_symmetry_Int_Tables_number   1
_chemical_formula_structural   CdH14C8(N2O3)2
_chemical_formula_sum   'Cd2 H28 C16 N8 O12'
_cell_volume   621.28750541
_cell_formula_units_Z   2
loop_
 _symmetry_equiv_pos_site_id
 _symmetry_equiv_pos_as_xyz
  1  'x, y, z'
loop_
 _atom_site_type_symbol
 _atom_site_label
 _atom_site_symmetry_multiplicity
 _atom_site_fract_x
 _atom_site_fract_y
 _atom_site_fract_z
 _atom_site_occupancy
 _atom_site_hle17_bader_spin_density
 _atom_site_hle17_ddec_charge
 _atom_site_hle17_ddec_spin_density
 _atom_site_hle17_ddec_sum_bond_order
 _atom_site_hle17_magmom
 _atom_site_hse06_10hf_bader_spin_density
 _atom_site_hse06_10hf_ddec_charge
 _atom_site_hse06_10hf_ddec_spin_density
 _atom_site_hse06_10hf_ddec_sum_bond_order
 _atom_site_hse06_10hf_magmom
 _atom_site_hse06_bader_spin_density
 _atom_site_hse06_ddec_charge
 _atom_site_hse06_ddec_spin_density
 _atom_site_hse06_ddec_sum_bond_order
 _atom_site_hse06_magmom
 _atom_site_pbe_bader_spin_density
 _atom_site_pbe_cm5_charge
 _atom_site_pbe_ddec_charge
 _atom_site_pbe_ddec_spin_density
 _atom_site_pbe_ddec_sum_bond_order
 _atom_site_pbe_magmom
Cd  Cd0  1  0.99999594  0.00000284  0.00000145  1  0  1.167335  0  1.623033  0  0  0.99027  0  2.067794  0  0  1.040446  0  2.018185  0  0  0.770174  0.953745  0  2.101702  0
Cd  Cd1  1  0.00000268  0.99999894  0.49999906  1  0  1.166932  0  1.616891  0  0  0.990128  0  2.06051  0  0  1.040137  0  2.011205  0  0  0.769841  0.952844  0  2.096023  0
H  H2  1  0.79274825  0.13192456  0.86506694  1  0  0.297819  0  0.888337  0  0  0.294943  0  0.930491  0  0  0.300325  0  0.927553  0  0  0.300256  0.290916  0  0.932948  0
H  H3  1  0.66108610  0.86913002  0.63534031  1  0  0.298541  0  0.886382  0  0  0.295612  0  0.928587  0  0  0.301045  0  0.925586  0  0  0.300291  0.292022  0  0.930496  0
H  H4  1  0.20724012  0.86807455  0.13493161  1  0  0.297836  0  0.88841  0  0  0.294945  0  0.930574  0  0  0.300328  0  0.927638  0  0  0.300266  0.29092  0  0.933024  0
H  H5  1  0.33892570  0.13086910  0.36466026  1  0  0.298605  0  0.886392  0  0  0.295688  0  0.928553  0  0  0.30112  0  0.92555  0  0  0.300321  0.292097  0  0.930465  0
H  H6  1  0.72498630  0.22472395  0.95783973  1  0  0.294658  0  0.906914  0  0  0.282366  0  0.968993  0  0  0.287963  0  0.965821  0  0  0.295385  0.278394  0  0.971233  0
H  H7  1  0.49907142  0.77798996  0.54249835  1  0  0.293441  0  0.908997  0  0  0.281928  0  0.970129  0  0  0.287555  0  0.966936  0  0  0.294697  0.277683  0  0.973002  0
H  H8  1  0.27500152  0.77527405  0.04215942  1  0  0.294684  0  0.906825  0  0  0.282396  0  0.968891  0  0  0.287992  0  0.96572  0  0  0.295395  0.278424  0  0.971132  0
H  H9  1  0.50093390  0.22200468  0.45750325  1  0  0.293425  0  0.909016  0  0  0.281911  0  0.970167  0  0  0.287538  0  0.966977  0  0  0.294695  0.277666  0  0.973039  0
H  H10  1  0.47270608  0.54119102  0.85522202  1  0  0.301322  0  0.92277  0  0  0.281061  0  0.991571  0  0  0.289287  0  0.985011  0  0  0.306518  0.275246  0  0.996361  0
H  H11  1  0.93150990  0.45994579  0.64494644  1  0  0.301325  0  0.922424  0  0  0.281662  0  0.990356  0  0  0.289899  0  0.983748  0  0  0.306668  0.275763  0  0.995318  0
H  H12  1  0.52727860  0.45880924  0.14477863  1  0  0.301259  0  0.922775  0  0  0.281043  0  0.991511  0  0  0.289265  0  0.984954  0  0  0.30652  0.275228  0  0.996298  0
H  H13  1  0.06850134  0.54005220  0.35505405  1  0  0.301334  0  0.922517  0  0  0.281692  0  0.990393  0  0  0.289926  0  0.983785  0  0  0.306668  0.275792  0  0.995358  0
H  H14  1  0.25757476  0.35507372  0.97810366  1  0  0.109396  0  0.930366  0  0  0.120441  0  0.996166  0  0  0.123264  0  0.994517  0  0  0.114631  0.11833  0  0.997503  0
H  H15  1  0.89591541  0.64393657  0.52058549  1  0  0.110317  0  0.929666  0  0  0.121056  0  0.994979  0  0  0.123818  0  0.993449  0  0  0.114645  0.118669  0  0.996258  0
H  H16  1  0.74240688  0.64493326  0.02189477  1  0  0.109368  0  0.930384  0  0  0.120433  0  0.996194  0  0  0.123256  0  0.994539  0  0  0.114614  0.118371  0  0.997484  0
H  H17  1  0.10410121  0.35606366  0.47941381  1  0  0.110349  0  0.929631  0  0  0.121091  0  0.994917  0  0  0.123855  0  0.993389  0  0  0.114676  0.118704  0  0.996198  0
H  H18  1  0.29411785  0.27538006  0.86706780  1  0  0.096395  0  0.938253  0  0  0.111391  0  0.998762  0  0  0.1137  0  0.997112  0  0  0.114222  0.109471  0  1.000646  0
H  H19  1  0.01812595  0.72333660  0.63108201  1  0  0.096733  0  0.939622  0  0  0.110821  0  1.000985  0  0  0.113198  0  0.99928  0  0  0.11397  0.109039  0  1.002335  0
H  H20  1  0.70587063  0.72462355  0.13293107  1  0  0.096331  0  0.938263  0  0  0.111326  0  0.998776  0  0  0.11362  0  0.997147  0  0  0.114186  0.109411  0  1.000662  0
H  H21  1  0.98188373  0.27666251  0.36891789  1  0  0.096731  0  0.939599  0  0  0.110777  0  1.000993  0  0  0.113154  0  0.999294  0  0  0.113961  0.108995  0  1.002343  0
H  H22  1  0.98411670  0.69269875  0.83644931  1  0  0.109355  0  0.94649  0  0  0.117823  0  1.013956  0  0  0.121006  0  1.01147  0  0  0.113911  0.115496  0  1.015931  0
H  H23  1  0.29341822  0.30985170  0.66645010  1  0  0.107663  0  0.94404  0  0  0.117184  0  1.01048  0  0  0.120364  0  1.008007  0  0  0.113923  0.114771  0  1.012438  0
H  H24  1  0.01587986  0.30730824  0.16355181  1  0  0.109405  0  0.946478  0  0  0.117863  0  1.013964  0  0  0.121068  0  1.011457  0  0  0.113918  0.115537  0  1.015934  0
H  H25  1  0.70659896  0.69014965  0.33354927  1  0  0.107717  0  0.944065  0  0  0.117237  0  1.01053  0  0  0.120419  0  1.008059  0  0  0.113943  0.11482  0  1.012491  0
H  H26  1  0.25705206  0.69936976  0.75319958  1  0  0.094395  0  0.944658  0  0  0.107401  0  1.007744  0  0  0.109105  0  1.00664  0  0  0.108769  0.106389  0  1.008624  0
H  H27  1  0.56459239  0.30208862  0.74776934  1  0  0.094622  0  0.943515  0  0  0.107449  0  1.007143  0  0  0.109156  0  1.006005  0  0  0.108701  0.105596  0  1.008459  0
H  H28  1  0.74295312  0.30064175  0.24680454  1  0  0.094406  0  0.94469  0  0  0.107439  0  1.007763  0  0  0.109144  0  1.006665  0  0  0.108751  0.106428  0  1.008642  0
H  H29  1  0.43541616  0.69790822  0.25222905  1  0  0.094597  0  0.943537  0  0  0.107455  0  1.007148  0  0  0.109163  0  1.006009  0  0  0.10871  0.105601  0  1.008463  0
C  C30  1  0.13820021  0.31390868  0.91280145  1  0  -0.069878  0  3.665504  0  0  -0.128833  0  3.927782  0  0  -0.1288  0  3.935575  0  0  -0.074611  -0.129019  0  3.922845  0
C  C31  1  0.82154590  0.68592838  0.58641928  1  0  -0.071998  0  3.670492  0  0  -0.129424  0  3.931697  0  0  -0.129499  0  3.939727  0  0  -0.074208  -0.129011  0  3.925754  0
C  C32  1  0.86178715  0.68609268  0.08719726  1  0  -0.069829  0  3.66553  0  0  -0.128792  0  3.927805  0  0  -0.128747  0  3.93561  0  0  -0.074587  -0.129021  0  3.92286  0
C  C33  1  0.17846523  0.31406510  0.41357955  1  0  -0.072068  0  3.67074  0  0  -0.129409  0  3.931835  0  0  -0.129497  0  3.939893  0  0  -0.074209  -0.128998  0  3.925892  0
C  C34  1  0.04454044  0.44507448  0.87932389  1  0  0.553437  0  3.793831  0  0  0.509649  0  4.087202  0  0  0.53772  0  4.088289  0  0  0.237787  0.490316  0  4.086642  0
C  C35  1  0.59825701  0.55589850  0.62105908  1  0  0.55365  0  3.794603  0  0  0.508903  0  4.088362  0  0  0.537032  0  4.089453  0  0  0.237307  0.490117  0  4.087124  0
C  C36  1  0.95544904  0.55492684  0.12067145  1  0  0.553414  0  3.793889  0  0  0.509569  0  4.087334  0  0  0.537635  0  4.088423  0  0  0.237792  0.490233  0  4.086787  0
C  C37  1  0.40176645  0.44409834  0.37893931  1  0  0.553716  0  3.795158  0  0  0.508984  0  4.088857  0  0  0.537113  0  4.08995  0  0  0.237269  0.490197  0  4.087613  0
C  C38  1  0.21441780  0.69128958  0.82556312  1  0  -0.107825  0  3.659304  0  0  -0.165347  0  3.916631  0  0  -0.165407  0  3.923269  0  0  -0.069347  -0.165349  0  3.912277  0
C  C39  1  0.52529163  0.31035264  0.67568479  1  0  -0.105977  0  3.656483  0  0  -0.164669  0  3.913899  0  0  -0.16471  0  3.92051  0  0  -0.069025  -0.163907  0  3.908844  0
C  C40  1  0.78557876  0.30871743  0.17443935  1  0  -0.108097  0  3.65934  0  0  -0.165728  0  3.916832  0  0  -0.165808  0  3.923462  0  0  -0.06943  -0.165729  0  3.912475  0
C  C41  1  0.47471322  0.68964533  0.32431368  1  0  -0.105866  0  3.6565  0  0  -0.164672  0  3.914006  0  0  -0.164722  0  3.920632  0  0  -0.06899  -0.163902  0  3.908937  0
C  C42  1  0.41386178  0.83093119  0.87956126  1  0  0.669605  0  3.899491  0  0  0.623033  0  4.201875  0  0  0.655826  0  4.195345  0  0  0.20107  0.600532  0  4.205709  0
C  C43  1  0.58184094  0.17015629  0.62070038  1  0  0.667503  0  3.895955  0  0  0.62148  0  4.197853  0  0  0.65426  0  4.191347  0  0  0.200548  0.599377  0  4.200761  0
C  C44  1  0.58613042  0.16907135  0.12044359  1  0  0.669564  0  3.899395  0  0  0.623103  0  4.201682  0  0  0.655894  0  4.195153  0  0  0.200955  0.600601  0  4.205514  0
C  C45  1  0.41816818  0.82984171  0.37930011  1  0  0.667452  0  3.895945  0  0  0.62145  0  4.197852  0  0  0.654231  0  4.191344  0  0  0.200535  0.599344  0  4.200761  0
N  N46  1  0.88975813  0.18689106  0.92531539  1  0  -0.61524  0  3.136985  0  0  -0.56074  0  3.383385  0  0  -0.579966  0  3.383004  0  0  -0.626762  -0.546143  0  3.382948  0
N  N47  1  0.70169397  0.81415451  0.57480803  1  0  -0.61262  0  3.137405  0  0  -0.558908  0  3.381784  0  0  -0.578274  0  3.381635  0  0  -0.625573  -0.545322  0  3.381859  0
N  N48  1  0.11023025  0.81310806  0.07468383  1  0  -0.615222  0  3.137095  0  0  -0.560707  0  3.38352  0  0  -0.579933  0  3.383134  0  0  -0.626745  -0.546113  0  3.383102  0
N  N49  1  0.29831570  0.18584459  0.42519052  1  0  -0.612655  0  3.13772  0  0  -0.558971  0  3.382067  0  0  -0.578329  0  3.381921  0  0  -0.625586  -0.545386  0  3.382137  0
N  N50  1  0.26076973  0.55175402  0.84973335  1  0  -0.395759  0  3.33215  0  0  -0.34064  0  3.585602  0  0  -0.361579  0  3.594963  0  0  -0.421572  -0.326186  0  3.579244  0
N  N51  1  0.70927851  0.44949382  0.65078784  1  0  -0.395214  0  3.33323  0  0  -0.339477  0  3.585402  0  0  -0.360391  0  3.594793  0  0  -0.421374  -0.325592  0  3.579014  0
N  N52  1  0.73921931  0.44825073  0.15026694  1  0  -0.395498  0  3.331978  0  0  -0.340384  0  3.585437  0  0  -0.361328  0  3.594819  0  0  -0.421519  -0.32593  0  3.579072  0
N  N53  1  0.29073273  0.55050416  0.34921198  1  0  -0.395474  0  3.333732  0  0  -0.33964  0  3.585819  0  0  -0.36055  0  3.595213  0  0  -0.421456  -0.325753  0  3.579417  0
O  O54  1  0.78035326  0.44984065  0.88243711  1  0  -0.595206  0  1.988874  0  0  -0.543406  0  2.219255  0  0  -0.565375  0  2.212987  0  0  -0.307481  -0.528327  0  2.22384  0
O  O55  1  0.32940716  0.55142287  0.61856698  1  0  -0.595421  0  1.986955  0  0  -0.544108  0  2.218044  0  0  -0.566053  0  2.211654  0  0  -0.307427  -0.528886  0  2.222341  0
O  O56  1  0.21962870  0.55015840  0.11755538  1  0  -0.595227  0  1.989063  0  0  -0.543378  0  2.219422  0  0  -0.565322  0  2.213132  0  0  -0.307456  -0.528298  0  2.224003  0
O  O57  1  0.67060351  0.44857396  0.38143007  1  0  -0.595264  0  1.987132  0  0  -0.544077  0  2.218348  0  0  -0.566009  0  2.211947  0  0  -0.307362  -0.528857  0  2.222648  0
O  O58  1  0.63889570  0.81138244  0.91968245  1  0  -0.65823  0  2.030541  0  0  -0.589107  0  2.28506  0  0  -0.617581  0  2.274113  0  0  -0.328217  -0.569056  0  2.291799  0
O  O59  1  0.82430346  0.18905559  0.57937140  1  0  -0.659309  0  2.025572  0  0  -0.590165  0  2.279688  0  0  -0.618632  0  2.268763  0  0  -0.329268  -0.570206  0  2.28693  0
O  O60  1  0.36109003  0.18861566  0.08032611  1  0  -0.658299  0  2.030536  0  0  -0.589153  0  2.284915  0  0  -0.617628  0  2.273972  0  0  -0.328162  -0.569101  0  2.291645  0
O  O61  1  0.17569813  0.81094012  0.42062557  1  0  -0.659341  0  2.025685  0  0  -0.590177  0  2.279761  0  0  -0.618645  0  2.268836  0  0  -0.329281  -0.570218  0  2.287004  0
O  O62  1  0.34255073  0.95412465  0.87956352  1  0  -0.667989  0  1.944672  0  0  -0.615096  0  2.18866  0  0  -0.639671  0  2.176057  0  0  -0.349788  -0.59785  0  2.197239  0
O  O63  1  0.38737844  0.04760756  0.62135960  1  0  -0.666615  0  1.942641  0  0  -0.614461  0  2.186225  0  0  -0.638862  0  2.173586  0  0  -0.348641  -0.596552  0  2.194115  0
O  O64  1  0.65744740  0.04588125  0.12043954  1  0  -0.667889  0  1.944619  0  0  -0.615052  0  2.188581  0  0  -0.639627  0  2.175976  0  0  -0.349759  -0.597809  0  2.197162  0
O  O65  1  0.61263123  0.95239154  0.37863962  1  0  -0.666633  0  1.942617  0  0  -0.61448  0  2.186196  0  0  -0.638882  0  2.173555  0  0  -0.348653  -0.596566  0  2.194078  0
