# generated using pymatgen
data_ZnBH20C19(N3O)2
_symmetry_space_group_name_H-M   'P 1'
_cell_length_a   15.59339385
_cell_length_b   15.59364571
_cell_length_c   15.59365576
_cell_angle_alpha   62.31662055
_cell_angle_beta   74.47221320
_cell_angle_gamma   105.52783327
_symmetry_Int_Tables_number   1
_chemical_formula_structural   ZnBH20C19(N3O)2
_chemical_formula_sum   'Zn4 B4 H80 C76 N24 O8'
_cell_volume   2873.30598460
_cell_formula_units_Z   4
loop_
 _symmetry_equiv_pos_site_id
 _symmetry_equiv_pos_as_xyz
  1  'x, y, z'
loop_
 _atom_site_type_symbol
 _atom_site_label
 _atom_site_symmetry_multiplicity
 _atom_site_fract_x
 _atom_site_fract_y
 _atom_site_fract_z
 _atom_site_occupancy
 _atom_site_pbe_bader_charge
 _atom_site_pbe_bader_spin_density
 _atom_site_pbe_cm5_charge
 _atom_site_pbe_ddec_charge
 _atom_site_pbe_ddec_spin_density
 _atom_site_pbe_ddec_sum_bond_order
 _atom_site_pbe_magmom
Zn  Zn0  1  0.04171903  0.38301111  0.88888724  1  1.220433  0  0.712806  0.726125  0  2.467618  0
Zn  Zn1  1  0.72810251  0.65870963  0.38301371  1  1.221779  0  0.712797  0.726123  0  2.467668  0
Zn  Zn2  1  0.95828050  0.06939760  0.65870454  1  1.220156  0  0.712773  0.726082  0  2.467578  0
Zn  Zn3  1  0.27189673  0.88888896  0.06939321  1  1.220049  0  0.712785  0.72612  0  2.467583  0
B  B4  1  0.95172168  0.05216853  0.31050560  1  2.064759  0  -0.060137  0.377553  0  3.460686  0
B  B5  1  0.63732665  0.89955162  0.05216838  1  2.064612  0  -0.06011  0.377537  0  3.46069  0
B  B6  1  0.04827906  0.73777201  0.89955211  1  2.067832  0  -0.060136  0.377556  0  3.460699  0
B  B7  1  0.36267693  0.31050764  0.73776996  1  2.062617  0  -0.060167  0.377443  0  3.460804  0
H  H8  1  0.78044461  0.03120612  0.26790084  1  0.085892  0  0.119719  0.112312  0  1.027176  0
H  H9  1  0.70089529  0.74923763  0.03121076  1  0.10478  0  0.119702  0.11226  0  1.027186  0
H  H10  1  0.21955440  0.95164910  0.74924102  1  0.093876  0  0.119718  0.112328  0  1.027118  0
H  H11  1  0.29911228  0.26790594  0.95164638  1  0.087447  0  0.119719  0.112319  0  1.027131  0
H  H12  1  0.71938738  0.26317951  0.84090499  1  0.088389  0  0.0986  0.101077  0  1.014758  0
H  H13  1  0.89591050  0.45621339  0.26318316  1  0.089407  0  0.098621  0.101107  0  1.014677  0
H  H14  1  0.28060948  0.43970141  0.45620891  1  0.089022  0  0.098601  0.101116  0  1.014622  0
H  H15  1  0.10408970  0.84090638  0.43969686  1  0.096836  0  0.098615  0.101093  0  1.014694  0
H  H16  1  0.86492243  0.18560637  0.34205003  1  0.11528  0  0.122595  0.119853  0  1.008214  0
H  H17  1  0.47234001  0.67931692  0.18560641  1  0.113527  0  0.122593  0.119878  0  1.008317  0
H  H18  1  0.13507661  0.79301871  0.67931977  1  0.121166  0  0.122606  0.119923  0  1.008354  0
H  H19  1  0.52766322  0.34205494  0.79302302  1  0.117547  0  0.122608  0.119915  0  1.008298  0
H  H20  1  0.96305603  0.35677768  0.49398728  1  0.062865  0  0.097338  0.096701  0  1.043963  0
H  H21  1  0.14924168  0.60627934  0.35677400  1  0.063184  0  0.097303  0.096699  0  1.044023  0
H  H22  1  0.03694390  0.54295478  0.60628342  1  0.095467  0  0.097327  0.096711  0  1.043975  0
H  H23  1  0.85076335  0.49398701  0.54295629  1  0.100215  0  0.097345  0.096709  0  1.044072  0
H  H24  1  0.65790154  0.23081579  0.71963464  1  0.053162  0  0.092439  0.08521  0  1.022891  0
H  H25  1  0.04954766  0.42708913  0.23081645  1  0.027398  0  0.092435  0.08523  0  1.022792  0
H  H26  1  0.34209731  0.62245924  0.42708785  1  0.045653  0  0.092418  0.085218  0  1.022835  0
H  H27  1  0.95045392  0.71963664  0.62245616  1  0.025513  0  0.092428  0.085257  0  1.022786  0
H  H28  1  0.78214301  0.27880105  0.54571037  1  0.055755  0  0.100396  0.098698  0  0.998371  0
H  H29  1  0.17549118  0.50334276  0.27880065  1  0.056059  0  0.100374  0.098671  0  0.998383  0
H  H30  1  0.21785692  0.67214009  0.50334891  1  0.053884  0  0.10033  0.098586  0  0.998471  0
H  H31  1  0.82451191  0.54571216  0.67214214  1  0.072077  0  0.100384  0.09868  0  0.998395  0
H  H32  1  0.82535247  0.20231145  0.05971817  1  0.14531  0  0.120243  0.127744  0  1.012017  0
H  H33  1  0.73796904  0.62303915  0.20232004  1  0.144411  0  0.120252  0.127742  0  1.012022  0
H  H34  1  0.17464610  0.11492633  0.62304514  1  0.156766  0  0.120205  0.127678  0  1.012056  0
H  H35  1  0.26202730  0.05972059  0.11492399  1  0.138282  0  0.120198  0.127723  0  1.012072  0
H  H36  1  0.65501748  0.71332086  0.55908367  1  0.097528  0  0.112131  0.105349  0  1.017181  0
H  H37  1  0.72759608  0.94170160  0.71331775  1  0.093025  0  0.112143  0.105433  0  1.017162  0
H  H38  1  0.34498523  0.78590258  0.94170031  1  0.091569  0  0.11213  0.105421  0  1.01724  0
H  H39  1  0.27240327  0.55908251  0.78589939  1  0.091328  0  0.112127  0.105371  0  1.017181  0
H  H40  1  0.15895168  0.35092966  0.01538817  1  0.097975  0  0.097284  0.14044  0  1.028714  0
H  H41  1  0.63368143  0.80802121  0.35093095  1  0.05032  0  0.097274  0.140436  0  1.028717  0
H  H42  1  0.84104913  0.82566410  0.80801942  1  0.057706  0  0.09728  0.140471  0  1.028747  0
H  H43  1  0.36631475  0.01538567  0.82566477  1  0.046627  0  0.097267  0.140438  0  1.028715  0
H  H44  1  0.14878741  0.22261717  0.11145812  1  0.05344  0  0.103408  0.150218  0  0.993667  0
H  H45  1  0.66592547  0.92616861  0.22261667  1  0.09064  0  0.103394  0.150189  0  0.993673  0
H  H46  1  0.85121224  0.73975817  0.92617062  1  0.053598  0  0.10337  0.150155  0  0.99367  0
H  H47  1  0.33406971  0.11145533  0.73975760  1  0.053804  0  0.10339  0.150194  0  0.993691  0
H  H48  1  0.11443635  0.29927876  0.15612300  1  0.057153  0  0.105993  0.154931  0  0.971226  0
H  H49  1  0.54459676  0.81515674  0.29927741  1  0.056385  0  0.105987  0.154921  0  0.971253  0
H  H50  1  0.88556329  0.72944286  0.81515578  1  0.062773  0  0.106005  0.154967  0  0.971224  0
H  H51  1  0.45539985  0.15611989  0.72944348  1  0.070987  0  0.106013  0.154979  0  0.971265  0
H  H52  1  0.00124716  0.98104089  0.18989364  1  0.037669  0  0.101707  0.145476  0  1.012053  0
H  H53  1  0.82907043  0.02020950  0.98103474  1  0.054784  0  0.101686  0.145477  0  1.011966  0
H  H54  1  0.99874895  0.80885660  0.02020383  1  0.050315  0  0.101679  0.145466  0  1.012077  0
H  H55  1  0.17093449  0.18989521  0.80886050  1  0.047759  0  0.101724  0.145493  0  1.012033  0
H  H56  1  0.96690696  0.84006767  0.24918629  1  0.134374  0  0.107483  0.171369  0  1.006021  0
H  H57  1  0.91074960  0.12684193  0.84006205  1  0.138698  0  0.107498  0.171377  0  1.006065  0
H  H58  1  0.03309194  0.78390535  0.12683651  1  0.136273  0  0.107497  0.171397  0  1.006061  0
H  H59  1  0.08925234  0.24918707  0.78390738  1  0.133246  0  0.107487  0.171379  0  1.006009  0
H  H60  1  0.90533462  0.90119745  0.17821740  1  0.057371  0  0.099398  0.146475  0  0.984703  0
H  H61  1  0.92059261  0.00414158  0.90119329  1  0.049077  0  0.099426  0.146521  0  0.984714  0
H  H62  1  0.09466046  0.91644576  0.00413696  1  0.051351  0  0.099425  0.146513  0  0.984699  0
H  H63  1  0.07941242  0.17821815  0.91644901  1  0.067765  0  0.099391  0.146455  0  0.984697  0
H  H64  1  0.86463725  0.18922289  0.51854110  1  0.106097  0  0.115213  0.108201  0  1.051263  0
H  H65  1  0.29222915  0.67541816  0.18922122  1  0.137927  0  0.115246  0.108191  0  1.051383  0
H  H66  1  0.13535933  0.61680989  0.67542273  1  0.110121  0  0.115257  0.108177  0  1.051269  0
H  H67  1  0.70777051  0.51855139  0.61681627  1  0.101727  0  0.115226  0.108185  0  1.051342  0
H  H68  1  0.77056006  0.91175984  0.51736270  1  0.109216  0  0.118764  0.112968  0  1.022677  0
H  H69  1  0.57087644  0.85879923  0.91176003  1  0.109066  0  0.118778  0.112997  0  1.022757  0
H  H70  1  0.22944486  0.71207683  0.85880375  1  0.107772  0  0.118805  0.112924  0  1.022735  0
H  H71  1  0.42912527  0.51736481  0.71207335  1  0.122483  0  0.118762  0.112942  0  1.022821  0
H  H72  1  0.03610194  0.96992100  0.55667914  1  0.090207  0  0.098888  0.145879  0  1.030833  0
H  H73  1  0.47340070  0.06618147  0.96992093  1  0.088667  0  0.098873  0.145829  0  1.030861  0
H  H74  1  0.96389711  0.40722017  0.06618244  1  0.089436  0  0.098865  0.145817  0  1.030844  0
H  H75  1  0.52659796  0.55667546  0.40722195  1  0.103603  0  0.098849  0.145802  0  1.030886  0
H  H76  1  0.08839646  0.01968673  0.41640857  1  0.080542  0  0.107545  0.157286  0  0.972807  0
H  H77  1  0.56390463  0.06870545  0.01968984  1  0.067484  0  0.107556  0.157332  0  0.972677  0
H  H78  1  0.91160248  0.49519901  0.06870761  1  0.074505  0  0.107536  0.157296  0  0.9727  0
H  H79  1  0.43609404  0.41640331  0.49520060  1  0.076471  0  0.107526  0.157282  0  0.972729  0
H  H80  1  0.97070175  0.90293670  0.51000702  1  0.0353  0  0.098588  0.141927  0  1.019022  0
H  H81  1  0.58705718  0.06776430  0.90293779  1  0.066993  0  0.098559  0.141905  0  1.019077  0
H  H82  1  0.02929856  0.51929355  0.06776529  1  0.059064  0  0.098591  0.141928  0  1.018987  0
H  H83  1  0.41294074  0.51000242  0.51929413  1  0.051665  0  0.098566  0.141904  0  1.0191  0
H  H84  1  0.03379093  0.05701384  0.27722526  1  -0.566472  0  0.057055  -0.178909  0  1.004699  0
H  H85  1  0.66576425  0.97677607  0.05701077  1  -0.565675  0  0.057058  -0.178912  0  1.00468  0
H  H86  1  0.96621056  0.68898577  0.97677472  1  -0.571089  0  0.057052  -0.178911  0  1.004676  0
H  H87  1  0.33423916  0.27722634  0.68898375  1  -0.563944  0  0.057035  -0.178909  0  1.004668  0
C  C88  1  0.94476352  0.35360720  0.63748176  1  0.021269  0  0.008273  0.07231  0  3.909787  0
C  C89  1  0.00891258  0.59115375  0.35360993  1  0.038039  0  0.008223  0.072109  0  3.909869  0
C  C90  1  0.05523663  0.41775347  0.59115519  1  -0.000232  0  0.008322  0.072366  0  3.909842  0
C  C91  1  0.99109168  0.63747976  0.41775570  1  0.001659  0  0.00824  0.072257  0  3.90994  0
C  C92  1  0.87358343  0.32543451  0.73649233  1  -0.071022  0  -0.013953  -0.06886  0  3.905951  0
C  C93  1  0.93807108  0.54814695  0.32544103  1  -0.059413  0  -0.013901  -0.068698  0  3.905894  0
C  C94  1  0.12641585  0.38992434  0.54814471  1  -0.018647  0  -0.013923  -0.068747  0  3.905958  0
C  C95  1  0.06193050  0.73648810  0.38992285  1  -0.037204  0  -0.013891  -0.068697  0  3.905937  0
C  C96  1  0.84952204  0.10416546  0.20238220  1  0.324927  0  -0.003995  -0.084152  0  3.994516  0
C  C97  1  0.69345197  0.74535411  0.10417260  1  0.318716  0  -0.003982  -0.084069  0  3.99457  0
C  C98  1  0.15047551  0.94809261  0.74535717  1  0.302199  0  -0.003974  -0.084181  0  3.994786  0
C  C99  1  0.30654980  0.20238508  0.94808965  1  0.346925  0  -0.003936  -0.084137  0  3.994544  0
C  C100  1  0.00964714  0.22235033  0.11816166  1  0.984484  0  0.226483  0.372926  0  3.937062  0
C  C101  1  0.65948926  0.78729684  0.22235218  1  0.988568  0  0.226516  0.372974  0  3.937133  0
C  C102  1  0.99035157  0.87219125  0.78729738  1  0.989968  0  0.226474  0.372859  0  3.937199  0
C  C103  1  0.34050999  0.11816071  0.87218988  1  0.97237  0  0.226461  0.372869  0  3.937174  0
C  C104  1  0.77118465  0.28151699  0.76479328  1  -0.054739  0  -0.092485  -0.103631  0  3.999295  0
C  C105  1  0.95368708  0.48966858  0.28152153  1  -0.043667  0  -0.092479  -0.103642  0  3.999091  0
C  C106  1  0.22881383  0.46402017  0.48966760  1  -0.077083  0  -0.092465  -0.103663  0  3.999106  0
C  C107  1  0.04631353  0.76479209  0.46401697  1  -0.055437  0  -0.092428  -0.103538  0  3.998962  0
C  C108  1  0.89357324  0.14846334  0.39794183  1  0.27801  0  -0.004546  -0.087854  0  3.997433  0
C  C109  1  0.45359037  0.74510986  0.14846567  1  0.287648  0  -0.004551  -0.087994  0  3.997627  0
C  C110  1  0.10642568  0.70847743  0.74511383  1  0.275935  0  -0.004567  -0.088118  0  3.997842  0
C  C111  1  0.54641138  0.39794715  0.70848074  1  0.26025  0  -0.004585  -0.088051  0  3.997734  0
C  C112  1  0.90904172  0.33345775  0.57158018  1  -0.040428  0  -0.089998  -0.127798  0  3.971836  0
C  C113  1  0.09496690  0.57558626  0.33345644  1  -0.026321  0  -0.089979  -0.127719  0  3.971712  0
C  C114  1  0.09095634  0.51937418  0.57559043  1  -0.021332  0  -0.090011  -0.127922  0  3.971911  0
C  C115  1  0.90503679  0.57157743  0.51937715  1  -0.093333  0  -0.089949  -0.127778  0  3.971805  0
C  C116  1  0.86200688  0.87037685  0.33575377  1  0.986698  0  0.23353  0.393196  0  3.89755  0
C  C117  1  0.79387233  0.99162989  0.87037394  1  0.986037  0  0.233479  0.393087  0  3.89752  0
C  C118  1  0.13799419  0.80224204  0.99162695  1  0.97054  0  0.233517  0.393111  0  3.897614  0
C  C119  1  0.20613057  0.33575414  0.80224035  1  0.983211  0  0.233483  0.393064  0  3.89761  0
C  C120  1  0.73749890  0.26333708  0.69778951  1  -0.074306  0  -0.103797  -0.104054  0  4.065645  0
C  C121  1  0.03887432  0.47416519  0.26333733  1  -0.00904  0  -0.103816  -0.104103  0  4.065504  0
C  C122  1  0.26250130  0.56470804  0.47416564  1  -0.0637  0  -0.103776  -0.104135  0  4.065598  0
C  C123  1  0.96112715  0.69779091  0.56470519  1  -0.048313  0  -0.103817  -0.104218  0  4.06548  0
C  C124  1  0.90144547  0.33829679  0.81666370  1  1.567891  0  0.193247  0.56547  0  4.237777  0
C  C125  1  0.84504084  0.56315567  0.33829977  1  1.565361  0  0.193157  0.56524  0  4.237918  0
C  C126  1  0.09855118  0.28188870  0.56315018  1  1.568508  0  0.193152  0.565299  0  4.238034  0
C  C127  1  0.15495915  0.81666156  0.28188394  1  1.571943  0  0.193069  0.565145  0  4.238052  0
C  C128  1  0.80723139  0.28923987  0.60069915  1  -0.022176  0  -0.094537  -0.083924  0  4.032357  0
C  C129  1  0.11006396  0.51799376  0.28923830  1  -0.10216  0  -0.0945  -0.083873  0  4.032237  0
C  C130  1  0.19276796  0.59206342  0.51799915  1  -0.081556  0  -0.094484  -0.083701  0  4.032316  0
C  C131  1  0.88993835  0.60070090  0.59206496  1  -0.05444  0  -0.094552  -0.083846  0  4.032216  0
C  C132  1  0.87171838  0.18733448  0.10045303  1  0.353214  0  -0.011926  -0.04962  0  4.024418  0
C  C133  1  0.71220970  0.68438336  0.18734072  1  0.347592  0  -0.011952  -0.049672  0  4.02465  0
C  C134  1  0.12827875  0.02782336  0.68438895  1  0.358395  0  -0.011889  -0.049466  0  4.024601  0
C  C135  1  0.28778656  0.10045562  0.02782369  1  0.345596  0  -0.011922  -0.04957  0  4.024458  0
C  C136  1  0.11368662  0.27700146  0.09880641  1  -0.049475  0  -0.225279  -0.463669  0  3.953871  0
C  C137  1  0.62419265  0.83668513  0.27700157  1  -0.058217  0  -0.225231  -0.463622  0  3.953899  0
C  C138  1  0.88631181  0.78750819  0.83668540  1  -0.03066  0  -0.225237  -0.463633  0  3.953911  0
C  C139  1  0.37580471  0.09880385  0.78750827  1  -0.019363  0  -0.225271  -0.463699  0  3.953977  0
C  C140  1  0.93850811  0.90039565  0.23242571  1  -0.06704  0  -0.229806  -0.47281  0  3.924284  0
C  C141  1  0.86718386  0.03811515  0.90039028  1  -0.083151  0  -0.229835  -0.472833  0  3.924234  0
C  C142  1  0.06148884  0.82906464  0.03811022  1  -0.066805  0  -0.22983  -0.472869  0  3.924398  0
C  C143  1  0.13282074  0.23242648  0.82906713  1  -0.085177  0  -0.229796  -0.472756  0  3.924239  0
C  C144  1  0.89328027  0.14958237  0.48531182  1  0.405035  0  -0.01137  -0.046271  0  4.038811  0
C  C145  1  0.36510074  0.74369873  0.14958281  1  0.365271  0  -0.011394  -0.046179  0  4.038962  0
C  C146  1  0.10671817  0.62139943  0.74370390  1  0.373998  0  -0.011391  -0.046053  0  4.038884  0
C  C147  1  0.63489850  0.48531915  0.62140504  1  0.41062  0  -0.011426  -0.046204  0  4.039032  0
C  C148  1  0.72629276  0.78061292  0.49060975  1  0.365688  0  -0.018848  -0.063403  0  4.087849  0
C  C149  1  0.72877803  0.94568249  0.78060986  1  0.418745  0  -0.018951  -0.063645  0  4.087919  0
C  C150  1  0.27371036  0.78310160  0.94568173  1  0.400255  0  -0.018895  -0.063652  0  4.087989  0
C  C151  1  0.27122201  0.49061083  0.78309717  1  0.362805  0  -0.01891  -0.063535  0  4.087796  0
C  C152  1  0.78298857  0.87780147  0.47111928  1  0.309342  0  -0.009058  -0.093256  0  4.00902  0
C  C153  1  0.65107884  0.90518524  0.87780126  1  0.249998  0  -0.009033  -0.093227  0  4.008988  0
C  C154  1  0.21701623  0.74589415  0.90518665  1  0.270061  0  -0.009052  -0.093088  0  4.008939  0
C  C155  1  0.34892391  0.47112077  0.74589038  1  0.288941  0  -0.009005  -0.093176  0  4.008961  0
C  C156  1  0.96797021  0.05294759  0.47008086  1  0.976372  0  0.228782  0.380625  0  3.924644  0
C  C157  1  0.47697074  0.91502216  0.05294734  1  0.95831  0  0.228781  0.380721  0  3.924583  0
C  C158  1  0.03202840  0.56194580  0.91502586  1  0.981874  0  0.228765  0.380734  0  3.924519  0
C  C159  1  0.52303068  0.47008160  0.56194866  1  0.971077  0  0.228814  0.380773  0  3.924522  0
C  C160  1  0.01855053  0.98254691  0.48962858  1  -0.030394  0  -0.227011  -0.465234  0  3.94162  0
C  C161  1  0.52782511  0.03600266  0.98254766  1  -0.040621  0  -0.227001  -0.465247  0  3.94148  0
C  C162  1  0.98144840  0.49182174  0.03600485  1  -0.035258  0  -0.226998  -0.465227  0  3.941469  0
C  C163  1  0.47217389  0.48962456  0.49182390  1  -0.05425  0  -0.226969  -0.465189  0  3.941562  0
N  N164  1  0.93692513  0.12644699  0.21290801  1  -1.450776  0  -0.230987  -0.211357  0  3.677156  0
N  N165  1  0.66064464  0.81047697  0.12644970  1  -1.432881  0  -0.230996  -0.211332  0  3.677196  0
N  N166  1  0.06307447  0.85016414  0.81047747  1  -1.435557  0  -0.230984  -0.211336  0  3.6773  0
N  N167  1  0.33935665  0.21290988  0.85016268  1  -1.443057  0  -0.230981  -0.211258  0  3.677144  0
N  N168  1  0.77592270  0.77707258  0.40541382  1  -1.25674  0  -0.366767  -0.351206  0  3.541854  0
N  N169  1  0.81751580  0.99885211  0.77706964  1  -1.25089  0  -0.366688  -0.351067  0  3.541729  0
N  N170  1  0.22407747  0.81866722  0.99884955  1  -1.245551  0  -0.366729  -0.35106  0  3.541703  0
N  N171  1  0.18248542  0.40541252  0.81866621  1  -1.242608  0  -0.366719  -0.35112  0  3.541775  0
N  N172  1  0.97222780  0.26075925  0.04827817  1  -1.257098  0  -0.367183  -0.359728  0  3.570313  0
N  N173  1  0.69096248  0.71146832  0.26076386  1  -1.264374  0  -0.367264  -0.359825  0  3.570485  0
N  N174  1  0.02776958  0.97949411  0.71147118  1  -1.2629  0  -0.367215  -0.359827  0  3.570389  0
N  N175  1  0.30903386  0.04827732  0.97949240  1  -1.254234  0  -0.367156  -0.359769  0  3.570414  0
N  N176  1  0.86860580  0.93393094  0.37322022  1  -1.42967  0  -0.229182  -0.208463  0  3.671576  0
N  N177  1  0.69285065  0.93467149  0.93393116  1  -1.421091  0  -0.22917  -0.208395  0  3.671463  0
N  N178  1  0.13139677  0.75817620  0.93467249  1  -1.418064  0  -0.229206  -0.20846  0  3.671554  0
N  N179  1  0.30715217  0.37322083  0.75817256  1  -1.421693  0  -0.22922  -0.208418  0  3.671538  0
N  N180  1  0.94100826  0.08748156  0.38864098  1  -1.459993  0  -0.230538  -0.209218  0  3.685749  0
N  N181  1  0.52387621  0.85352624  0.08748265  1  -1.44939  0  -0.230538  -0.209193  0  3.685689  0
N  N182  1  0.05899121  0.67034719  0.85352854  1  -1.445229  0  -0.230513  -0.209174  0  3.685789  0
N  N183  1  0.47612649  0.38864183  0.67034916  1  -1.443796  0  -0.230472  -0.20915  0  3.685716  0
N  N184  1  0.93963273  0.08940631  0.53010634  1  -1.243214  0  -0.365506  -0.346924  0  3.555084  0
N  N185  1  0.38048513  0.85022800  0.08940476  1  -1.245094  0  -0.365541  -0.347052  0  3.555204  0
N  N186  1  0.06036502  0.53025405  0.85023289  1  -1.254678  0  -0.365539  -0.347079  0  3.555163  0
N  N187  1  0.61951527  0.53011261  0.53025930  1  -1.249423  0  -0.365548  -0.347033  0  3.555141  0
O  O188  1  0.98402161  0.33309056  0.81410436  1  -1.170829  0  -0.338681  -0.555754  0  2.375761  0
O  O189  1  0.85281048  0.65093783  0.33309012  1  -1.171673  0  -0.338534  -0.555542  0  2.375792  0
O  O190  1  0.01597691  0.20187633  0.65093119  1  -1.17168  0  -0.338616  -0.555634  0  2.375864  0
O  O191  1  0.14718929  0.81410047  0.20187247  1  -1.170416  0  -0.338534  -0.555542  0  2.375772  0
O  O192  1  0.84671864  0.35048979  0.88034543  1  -1.178022  0  -0.35227  -0.574185  0  2.056998  0
O  O193  1  0.76916324  0.49624052  0.35048912  1  -1.17885  0  -0.352314  -0.574202  0  2.056971  0
O  O194  1  0.15327878  0.27292796  0.49623557  1  -1.178239  0  -0.352243  -0.574173  0  2.057109  0
O  O195  1  0.23083719  0.88035217  0.27292051  1  -1.177778  0  -0.352277  -0.574169  0  2.057045  0
