# generated using pymatgen
data_Zn4H13C28S2BrO13
_symmetry_space_group_name_H-M   'P 1'
_cell_length_a   18.51118211
_cell_length_b   19.71033495
_cell_length_c   32.76785000
_cell_angle_alpha   85.93379849
_cell_angle_beta   73.59189707
_cell_angle_gamma   61.99245717
_symmetry_Int_Tables_number   1
_chemical_formula_structural   Zn4H13C28S2BrO13
_chemical_formula_sum   'Zn16 H52 C112 S8 Br4 O52'
_cell_volume   10098.71974209
_cell_formula_units_Z   4
loop_
 _symmetry_equiv_pos_site_id
 _symmetry_equiv_pos_as_xyz
  1  'x, y, z'
loop_
 _atom_site_type_symbol
 _atom_site_label
 _atom_site_symmetry_multiplicity
 _atom_site_fract_x
 _atom_site_fract_y
 _atom_site_fract_z
 _atom_site_occupancy
 _atom_site_pbe_bader_charge
 _atom_site_pbe_bader_spin_density
 _atom_site_pbe_cm5_charge
 _atom_site_pbe_ddec_charge
 _atom_site_pbe_ddec_spin_density
 _atom_site_pbe_ddec_sum_bond_order
 _atom_site_pbe_magmom
Zn  Zn0  1  0.87542944  0.55527998  0.51849353  1  1.306912  0  0.670823  0.957804  0  2.387844  0
Zn  Zn1  1  0.03771160  0.48718251  0.43780296  1  1.300135  0  0.670358  0.958248  0  2.402988  0
Zn  Zn2  1  0.04025004  0.39800319  0.52381564  1  1.315002  0  0.670248  0.963422  0  2.364167  0
Zn  Zn3  1  0.04772050  0.55893520  0.51914764  1  1.31909  0  0.670504  0.964412  0  2.363391  0
Zn  Zn4  1  0.62554606  0.19129097  0.73117455  1  1.311849  0  0.669798  0.958546  0  2.376183  0
Zn  Zn5  1  0.46384603  0.34910154  0.72504137  1  1.316959  0  0.670062  0.957273  0  2.392892  0
Zn  Zn6  1  0.46009495  0.26505421  0.81273076  1  1.315787  0  0.670441  0.963443  0  2.360767  0
Zn  Zn7  1  0.45158224  0.19240205  0.73034078  1  1.316173  0  0.669998  0.960493  0  2.375068  0
Zn  Zn8  1  0.46174284  0.76414982  0.31276810  1  1.319393  0  0.670221  0.957999  0  2.374093  0
Zn  Zn9  1  0.45078847  0.69403041  0.23126559  1  1.313861  0  0.669749  0.957291  0  2.401995  0
Zn  Zn10  1  0.62553294  0.69206290  0.23001085  1  1.310795  0  0.670077  0.963465  0  2.362318  0
Zn  Zn11  1  0.46058915  0.85143037  0.22577720  1  1.315592  0  0.670087  0.961111  0  2.376574  0
Zn  Zn12  1  0.03755964  0.89884147  0.02400085  1  1.318052  0  0.669542  0.957057  0  2.378402  0
Zn  Zn13  1  0.04866021  0.05748415  0.01910838  1  1.317766  0  0.670023  0.95776  0  2.371469  0
Zn  Zn14  1  0.87496419  0.05809870  0.01936696  1  1.307372  0  0.668998  0.958751  0  2.384878  0
Zn  Zn15  1  0.03745934  0.98568344  0.93737311  1  1.311179  0  0.670163  0.960528  0  2.376804  0
H  H16  1  0.80294043  0.96620620  0.65540035  1  0.116104  0  0.120985  0.146371  0  0.971032  0
H  H17  1  0.31105073  0.97641553  0.40153749  1  0.124512  0  0.119828  0.144719  0  0.973601  0
H  H18  1  0.90817461  0.29166539  0.60456572  1  0.087718  0  0.105976  0.112819  0  0.996602  0
H  H19  1  0.81325848  0.24404112  0.65206180  1  0.085822  0  0.105605  0.111496  0  0.997276  0
H  H20  1  0.54068391  0.48449195  0.62153504  1  0.037494  0  0.097643  0.108129  0  0.980158  0
H  H21  1  0.54586609  0.52464679  0.66704511  1  0.081268  0  0.097198  0.108948  0  0.985389  0
H  H22  1  0.64227598  0.57293744  0.61883938  1  0.058038  0  0.096708  0.107596  0  0.985978  0
H  H23  1  0.63697547  0.53275456  0.57338052  1  0.051278  0  0.096511  0.105323  0  0.985408  0
H  H24  1  0.19609430  0.55296544  0.34362497  1  0.091685  0  0.107005  0.114397  0  0.99431  0
H  H25  1  0.29110313  0.60049145  0.29620049  1  0.076826  0  0.106429  0.113271  0  0.994981  0
H  H26  1  0.35344990  0.67471767  0.43181097  1  0.0479  0  0.096852  0.10518  0  0.986014  0
H  H27  1  0.26250480  0.76302076  0.42911319  1  0.019908  0  0.098275  0.107988  0  0.981085  0
H  H28  1  0.16602214  0.71481924  0.47727201  1  0.075467  0  0.098782  0.109165  0  0.980491  0
H  H29  1  0.25694110  0.62652421  0.47996689  1  0.060233  0  0.098874  0.109411  0  0.980648  0
H  H30  1  0.90746208  0.55295324  0.34355191  1  0.055277  0  0.106643  0.113099  0  0.995347  0
H  H31  1  0.81245159  0.60050549  0.29608401  1  0.063492  0  0.106465  0.113538  0  0.994954  0
H  H32  1  0.54545273  0.76310475  0.42902497  1  0.053969  0  0.097933  0.108609  0  0.980162  0
H  H33  1  0.54005334  0.67484353  0.43168309  1  0.058725  0  0.096885  0.105723  0  0.985456  0
H  H34  1  0.63660647  0.62647834  0.47979679  1  0.053607  0  0.097141  0.10661  0  0.984596  0
H  H35  1  0.64201946  0.71472418  0.47718997  1  0.050521  0  0.096672  0.107532  0  0.986312  0
H  H36  1  0.20912410  0.50586747  0.59793649  1  0.082246  0  0.105951  0.112651  0  0.996096  0
H  H37  1  0.30415145  0.45832392  0.64542086  1  0.078381  0  0.105528  0.112149  0  0.998005  0
H  H38  1  0.33393186  0.17703936  0.63115427  1  0.076289  0  0.099124  0.10984  0  0.979421  0
H  H39  1  0.24301243  0.21714793  0.67662734  1  0.051976  0  0.099154  0.109759  0  0.979094  0
H  H40  1  0.14659457  0.26536552  0.62848019  1  0.05194  0  0.0987  0.109111  0  0.980219  0
H  H41  1  0.23748280  0.22524768  0.58299053  1  0.039422  0  0.098935  0.109646  0  0.980476  0
H  H42  1  0.18909255  0.65953850  0.96241555  1  0.128468  0  0.121372  0.14685  0  0.970602  0
H  H43  1  0.59205304  0.19724376  0.90647185  1  0.053192  0  0.106348  0.112825  0  0.996419  0
H  H44  1  0.68706332  0.14981652  0.95393709  1  0.060771  0  0.107233  0.114413  0  0.994029  0
H  H45  1  0.95943043  0.07549716  0.81840960  1  0.065982  0  0.098792  0.108855  0  0.980085  0
H  H46  1  0.95419218  0.98719586  0.82106389  1  0.058916  0  0.098924  0.109826  0  0.979319  0
H  H47  1  0.85787082  0.03527421  0.77287357  1  0.048842  0  0.098268  0.108547  0  0.980257  0
H  H48  1  0.86310644  0.12360569  0.77021073  1  0.056299  0  0.098706  0.108921  0  0.980566  0
H  H49  1  0.29064086  0.10013823  0.79616960  1  0.062528  0  0.106214  0.112701  0  0.995852  0
H  H50  1  0.19566453  0.05272081  0.84367542  1  0.083479  0  0.106542  0.113577  0  0.995143  0
H  H51  1  0.16605178  0.21471690  0.97715787  1  0.068795  0  0.098193  0.108297  0  0.980438  0
H  H52  1  0.25697508  0.12642650  0.97985644  1  0.057778  0  0.097708  0.106965  0  0.98547  0
H  H53  1  0.35338250  0.17452801  0.93159770  1  0.054255  0  0.098873  0.10906  0  0.979725  0
H  H54  1  0.26249147  0.26281044  0.92892729  1  0.021805  0  0.09907  0.109405  0  0.979907  0
H  H55  1  0.92531556  0.28362001  0.09455333  1  0.11225  0  0.120308  0.145657  0  0.97291  0
H  H56  1  0.29057414  0.74452065  0.15197763  1  0.094625  0  0.106567  0.113248  0  0.995463  0
H  H57  1  0.19566521  0.79195009  0.10448119  1  0.082611  0  0.105825  0.112256  0  0.996573  0
H  H58  1  0.25696694  0.03313363  0.07319873  1  0.044367  0  0.096814  0.105211  0  0.984984  0
H  H59  1  0.16596685  0.07323702  0.11867358  1  0.060803  0  0.098716  0.108954  0  0.979366  0
H  H60  1  0.26227704  0.02495456  0.16688803  1  0.04034  0  0.099437  0.110483  0  0.979093  0
H  H61  1  0.35325174  0.98479508  0.12144435  1  0.016661  0  0.099154  0.110066  0  0.979422  0
H  H62  1  0.59212907  0.95839247  0.14537992  1  0.091613  0  0.106154  0.112651  0  0.996095  0
H  H63  1  0.68720072  0.00574977  0.09788933  1  0.090867  0  0.106925  0.114354  0  0.993695  0
H  H64  1  0.95417105  0.72508837  0.08304039  1  0.078104  0  0.098187  0.108576  0  0.980492  0
H  H65  1  0.95949224  0.76526723  0.12850193  1  0.044653  0  0.09837  0.108558  0  0.980445  0
H  H66  1  0.86312209  0.71715801  0.17669678  1  0.053628  0  0.098958  0.109301  0  0.97981  0
H  H67  1  0.85779713  0.67691703  0.13126479  1  0.05647  0  0.098652  0.109013  0  0.98089  0
C  C68  1  0.86261576  0.56847555  0.43021744  1  1.561286  0  0.227342  0.608505  0  4.178971  0
C  C69  1  0.12266765  0.31659745  0.43848656  1  1.552805  0  0.213836  0.618255  0  4.214503  0
C  C70  1  0.86332139  0.42928663  0.56893737  1  1.56081  0  0.228539  0.611186  0  4.173865  0
C  C71  1  0.13850812  0.43220271  0.56892292  1  1.563874  0  0.227206  0.609529  0  4.175592  0
C  C72  1  0.87666287  0.68338461  0.56090623  1  1.589009  0  0.214961  0.62021  0  4.211906  0
C  C73  1  0.13796563  0.56919528  0.43029551  1  1.524082  0  0.228141  0.608591  0  4.179625  0
C  C74  1  0.64008619  0.31732316  0.68080487  1  1.560993  0  0.226542  0.607828  0  4.1784  0
C  C75  1  0.37769872  0.43382563  0.81070243  1  1.569008  0  0.213923  0.61768  0  4.216106  0
C  C76  1  0.63672649  0.18127718  0.81977449  1  1.564677  0  0.22729  0.608495  0  4.17385  0
C  C77  1  0.36131455  0.18050544  0.81841510  1  1.55779  0  0.22708  0.608596  0  4.177624  0
C  C78  1  0.62299480  0.06546265  0.68847059  1  1.540325  0  0.218126  0.61067  0  4.216393  0
C  C79  1  0.36238250  0.32008833  0.68050399  1  1.56301  0  0.227115  0.608643  0  4.175859  0
C  C80  1  0.36166329  0.68073763  0.31876325  1  1.543564  0  0.227221  0.608784  0  4.177665  0
C  C81  1  0.62180836  0.56652437  0.18863428  1  1.575296  0  0.213419  0.617941  0  4.216829  0
C  C82  1  0.63907970  0.68055996  0.31846625  1  1.566511  0  0.226173  0.608054  0  4.173365  0
C  C83  1  0.63665631  0.82040194  0.18067441  1  1.555028  0  0.227213  0.610587  0  4.175317  0
C  C84  1  0.37684645  0.93411670  0.31158097  1  1.563624  0  0.218655  0.61239  0  4.213881  0
C  C85  1  0.36110762  0.81840817  0.18093606  1  1.539801  0  0.226951  0.60738  0  4.180654  0
C  C86  1  0.13792128  0.92988808  0.06896806  1  1.562529  0  0.226891  0.609846  0  4.172388  0
C  C87  1  0.87785653  0.18433548  0.06140947  1  1.561787  0  0.217486  0.608888  0  4.220791  0
C  C88  1  0.86051242  0.93196350  0.06903182  1  1.572223  0  0.227725  0.609902  0  4.175696  0
C  C89  1  0.86037747  0.06977680  0.93148742  1  1.554912  0  0.226655  0.608361  0  4.177741  0
C  C90  1  0.12235729  0.81558242  0.93858597  1  1.564828  0  0.217531  0.6101  0  4.218847  0
C  C91  1  0.13781769  0.06866507  0.93039373  1  1.526495  0  0.227494  0.608448  0  4.176271  0
C  C92  1  0.73677216  0.80236217  0.60079209  1  -0.019312  0  -0.023864  0.059862  0  4.002913  0
C  C93  1  0.76016397  0.94749154  0.64917218  1  0.064031  0  -0.087921  -0.132168  0  3.960453  0
C  C94  1  0.82490593  0.75801802  0.58597612  1  -0.135828  0  -0.030335  -0.173246  0  3.950864  0
C  C95  1  0.67226011  0.99052574  0.66351782  1  -0.162507  0  -0.02331  -0.114367  0  3.969023  0
C  C96  1  0.78387728  0.87873498  0.62623054  1  -0.166204  0  -0.021432  0.002139  0  4.072355  0
C  C97  1  0.71318991  0.87113421  0.62371156  1  -0.132621  0  -0.030938  -0.072304  0  4.097131  0
C  C98  1  0.20170240  0.22792119  0.36853615  1  -0.016076  0  -0.023681  0.058598  0  4.005042  0
C  C99  1  0.29856854  0.02274647  0.38015880  1  0.028305  0  -0.089163  -0.133681  0  3.964348  0
C  C100  1  0.17229565  0.24283586  0.41263288  1  -0.152529  0  -0.030259  -0.171064  0  3.950865  0
C  C101  1  0.32718084  0.00934859  0.33620690  1  -0.164578  0  -0.022769  -0.114622  0  3.970064  0
C  C102  1  0.25273040  0.10254201  0.39205069  1  -0.154733  0  -0.021641  0.001558  0  4.076116  0
C  C103  1  0.24757965  0.14802972  0.35672582  1  -0.089977  0  -0.030286  -0.070595  0  4.094292  0
C  C104  1  0.69637565  0.34630423  0.65247419  1  0.073515  0  -0.013663  -0.07923  0  3.978582  0
C  C105  1  0.80615003  0.40140104  0.59752146  1  -0.041242  0  -0.014109  -0.080297  0  3.978604  0
C  C106  1  0.66425571  0.41891187  0.63653831  1  -0.023819  0  -0.002169  0.065361  0  3.875769  0
C  C107  1  0.83920651  0.32779828  0.61356896  1  -0.042501  0  -0.084453  -0.1008  0  3.984148  0
C  C108  1  0.71758775  0.44567085  0.60984122  1  0.022911  0  -0.001563  0.066268  0  3.876608  0
C  C109  1  0.78603867  0.30111677  0.64018004  1  -0.105412  0  -0.083465  -0.098343  0  3.984396  0
C  C110  1  0.58352848  0.49199199  0.63598059  1  -0.029349  0  -0.150924  -0.200026  0  3.884255  0
C  C111  1  0.64388860  0.52225587  0.60578483  1  -0.028626  0  -0.151749  -0.198869  0  3.885694  0
C  C112  1  0.30509713  0.65226071  0.34727570  1  0.014756  0  -0.013996  -0.080787  0  3.981659  0
C  C113  1  0.19514714  0.59736108  0.40210714  1  -0.006923  0  -0.013207  -0.077197  0  3.979622  0
C  C114  1  0.28053403  0.66445552  0.39151858  1  -0.012891  0  -0.003127  0.064124  0  3.885121  0
C  C115  1  0.21986286  0.58452643  0.35726019  1  -0.062241  0  -0.083254  -0.099817  0  3.978783  0
C  C116  1  0.22714194  0.63778507  0.41816035  1  -0.064442  0  -0.002656  0.063239  0  3.886316  0
C  C117  1  0.27311401  0.61115162  0.33068803  1  0.020161  0  -0.082087  -0.096682  0  3.978001  0
C  C118  1  0.28865654  0.70010852  0.42835043  1  0.028691  0  -0.151718  -0.19886  0  3.888922  0
C  C119  1  0.22818297  0.66990046  0.45852645  1  -0.036001  0  -0.15167  -0.200595  0  3.887912  0
C  C120  1  0.69554389  0.65227286  0.34707349  1  -0.007793  0  -0.012326  -0.076894  0  3.974768  0
C  C121  1  0.80548961  0.59719956  0.40200706  1  -0.074654  0  -0.013662  -0.079225  0  3.979175  0
C  C122  1  0.66358613  0.66450239  0.39134806  1  0.001374  0  -0.002261  0.064605  0  3.881367  0
C  C123  1  0.83849395  0.58452678  0.35716930  1  0.026795  0  -0.081913  -0.095623  0  3.978592  0
C  C124  1  0.71699324  0.63775828  0.41801675  1  0.007503  0  -0.002357  0.06464  0  3.882594  0
C  C125  1  0.78522640  0.61120486  0.33056760  1  -0.016201  0  -0.083982  -0.101234  0  3.981287  0
C  C126  1  0.58296726  0.70018825  0.42821398  1  -0.042606  0  -0.151865  -0.200148  0  3.887588  0
C  C127  1  0.64345581  0.66989714  0.45838762  1  -0.010997  0  -0.151602  -0.199524  0  3.884924  0
C  C128  1  0.30506690  0.34843239  0.65237210  1  0.018923  0  -0.013185  -0.079882  0  3.979204  0
C  C129  1  0.19505711  0.40350866  0.59746418  1  -0.044844  0  -0.013115  -0.079592  0  3.97823  0
C  C130  1  0.27293066  0.30425406  0.64016004  1  -0.022259  0  -0.001281  0.066609  0  3.880291  0
C  C131  1  0.22712774  0.44877973  0.60980696  1  -0.018162  0  -0.083843  -0.099598  0  3.984049  0
C  C132  1  0.21952469  0.33098081  0.61346964  1  -0.038672  0  -0.002526  0.064908  0  3.879191  0
C  C133  1  0.28038895  0.42214310  0.63640268  1  0.002976  0  -0.084518  -0.099908  0  3.983868  0
C  C134  1  0.27180420  0.22767180  0.64423373  1  -0.038272  0  -0.150434  -0.199637  0  3.886115  0
C  C135  1  0.21137230  0.25788858  0.61405247  1  -0.014489  0  -0.151765  -0.201912  0  3.88801  0
C  C136  1  0.29845590  0.58311925  0.82015761  1  -0.054843  0  -0.024244  0.058639  0  4.00331  0
C  C137  1  0.20151860  0.66842067  0.92855473  1  0.01766  0  -0.08836  -0.133161  0  3.961377  0
C  C138  1  0.32789046  0.50949866  0.83471510  1  -0.123462  0  -0.029989  -0.171782  0  3.949306  0
C  C139  1  0.17274843  0.74102244  0.91325729  1  -0.159582  0  -0.022753  -0.113246  0  3.969724  0
C  C140  1  0.24741004  0.61063159  0.89461411  1  -0.204048  0  -0.021795  0.001506  0  4.073531  0
C  C141  1  0.25252963  0.64082681  0.85418180  1  -0.110411  0  -0.030326  -0.071208  0  4.095302  0
C  C142  1  0.80391638  0.09801454  0.90293249  1  0.011938  0  -0.012839  -0.077746  0  3.977481  0
C  C143  1  0.69391599  0.15288852  0.84800258  1  -0.080758  0  -0.013262  -0.078283  0  3.977799  0
C  C144  1  0.83587718  0.08573147  0.85866984  1  0.010733  0  -0.001504  0.065287  0  3.8802  0
C  C145  1  0.66100521  0.16565002  0.89284049  1  0.019834  0  -0.083356  -0.099549  0  3.985043  0
C  C146  1  0.78248678  0.11238275  0.83197872  1  0.016723  0  -0.002944  0.063186  0  3.880115  0
C  C147  1  0.71424837  0.13909469  0.91945690  1  -0.014249  0  -0.083891  -0.09973  0  3.980363  0
C  C148  1  0.91657061  0.05010688  0.82186291  1  -0.050904  0  -0.15081  -0.199643  0  3.8853  0
C  C149  1  0.85619618  0.08026076  0.79165448  1  -0.018075  0  -0.151419  -0.200538  0  3.888807  0
C  C150  1  0.19479826  0.09710601  0.90213874  1  -0.010453  0  -0.013751  -0.077701  0  3.9759  0
C  C151  1  0.30477956  0.15201929  0.84708931  1  -0.010425  0  -0.013876  -0.081879  0  3.978636  0
C  C152  1  0.22694379  0.13756188  0.91808291  1  -0.061965  0  -0.002821  0.063336  0  3.880729  0
C  C153  1  0.27267485  0.11088939  0.83064827  1  -0.039596  0  -0.083127  -0.096835  0  3.980261  0
C  C154  1  0.28031569  0.16425394  0.89135766  1  0.015451  0  -0.002112  0.065122  0  3.880588  0
C  C155  1  0.21941290  0.08430766  0.85729289  1  0.028158  0  -0.0839  -0.101283  0  3.981359  0
C  C156  1  0.22816100  0.16973815  0.95839599  1  -0.030309  0  -0.151576  -0.200154  0  3.890206  0
C  C157  1  0.28858484  0.19990220  0.92815108  1  0.006734  0  -0.151191  -0.199329  0  3.885755  0
C  C158  1  0.64072087  0.44733320  0.14908977  1  -0.019208  0  -0.022865  0.060277  0  4.003809  0
C  C159  1  0.85762704  0.30228045  0.10075646  1  0.075582  0  -0.089512  -0.135627  0  3.966391  0
C  C160  1  0.66980879  0.49166213  0.16385491  1  -0.160621  0  -0.030574  -0.172835  0  3.952655  0
C  C161  1  0.82720623  0.25920818  0.08637796  1  -0.195463  0  -0.022884  -0.114208  0  3.972804  0
C  C162  1  0.78963132  0.37098764  0.12367707  1  -0.212697  0  -0.021557  0.003397  0  4.074448  0
C  C163  1  0.70884144  0.37853851  0.12618877  1  -0.109395  0  -0.030884  -0.07296  0  4.094902  0
C  C164  1  0.19486880  0.90179483  0.09732594  1  -0.027438  0  -0.013004  -0.080475  0  3.979027  0
C  C165  1  0.30463272  0.84692822  0.15238935  1  -0.009473  0  -0.013257  -0.079145  0  3.979771  0
C  C166  1  0.22689128  0.94603272  0.10960054  1  -0.002117  0  -0.002881  0.064423  0  3.881443  0
C  C167  1  0.27261488  0.80158696  0.14007234  1  0.009799  0  -0.082501  -0.096817  0  3.978624  0
C  C168  1  0.28017059  0.91937411  0.13633715  1  -0.036761  0  -0.001464  0.065941  0  3.883934  0
C  C169  1  0.21945514  0.82817902  0.11341691  1  -0.025655  0  -0.084925  -0.100582  0  3.982906  0
C  C170  1  0.22807688  0.02260278  0.10557444  1  -0.01587  0  -0.149979  -0.197466  0  3.886085  0
C  C171  1  0.28842527  0.99235937  0.13580859  1  0.021361  0  -0.15201  -0.202208  0  3.886085  0
C  C172  1  0.80403206  0.90332043  0.09747923  1  0.059726  0  -0.01427  -0.079927  0  3.978943  0
C  C173  1  0.69398291  0.84846958  0.15242049  1  -0.032615  0  -0.013687  -0.080015  0  3.978562  0
C  C174  1  0.83596244  0.83080985  0.11349237  1  -0.027467  0  -0.001917  0.065344  0  3.880981  0
C  C175  1  0.66107489  0.92212253  0.13639444  1  0.008678  0  -0.083379  -0.09862  0  3.982333  0
C  C176  1  0.78252766  0.80415974  0.14018614  1  -0.030601  0  -0.002011  0.063995  0  3.879317  0
C  C177  1  0.71436262  0.94867845  0.10978437  1  -0.102453  0  -0.082666  -0.099086  0  3.981024  0
C  C178  1  0.91660153  0.75777251  0.11409585  1  -0.036564  0  -0.151272  -0.200679  0  3.889706  0
C  C179  1  0.85618154  0.72759567  0.14430377  1  -0.025706  0  -0.151187  -0.199883  0  3.886869  0
S  S180  1  0.87873667  0.80099896  0.60030494  1  0.281631  0  0.086294  0.135514  0  2.737646  0
S  S181  1  0.61789038  0.94818089  0.64937631  1  0.290493  0  0.08538  0.13367  0  2.780573  0
S  S182  1  0.20102197  0.15860832  0.43951693  1  0.268365  0  0.08462  0.133021  0  2.739153  0
S  S183  1  0.29888702  0.09305728  0.30905097  1  0.2898  0  0.085905  0.135297  0  2.77872  0
S  S184  1  0.29911534  0.51136423  0.89029200  1  0.328374  0  0.08668  0.136024  0  2.734595  0
S  S185  1  0.20117170  0.73982736  0.85781684  1  0.325191  0  0.08546  0.13399  0  2.778866  0
S  S186  1  0.78090842  0.44869943  0.14956204  1  0.297381  0  0.085105  0.133892  0  2.739506  0
S  S187  1  0.71632600  0.30148876  0.10049802  1  0.318822  0  0.087743  0.138562  0  2.77613  0
Br  Br188  1  0.65383855  0.77902450  0.59306176  1  0.00027  0  0.042928  -0.015758  0  1.406123  0
Br  Br189  1  0.18615992  0.30038145  0.32710645  1  0.014452  0  0.043813  -0.010224  0  1.397343  0
Br  Br190  1  0.31422904  0.60900645  0.76316591  1  0.003894  0  0.042428  -0.01404  0  1.40155  0
Br  Br191  1  0.52679596  0.47068799  0.15679710  1  0.010903  0  0.043404  -0.010648  0  1.396058  0
O  O192  1  0.00063832  0.49967529  0.50031301  1  -1.207598  0  -0.571682  -1.026992  0  2.532119  0
O  O193  1  0.82611656  0.58270991  0.47034137  1  -1.16995  0  -0.311948  -0.541372  0  2.333832  0
O  O194  1  0.10182792  0.37753807  0.41845983  1  -1.163887  0  -0.314577  -0.537278  0  2.395143  0
O  O195  1  0.94353929  0.38433503  0.55951563  1  -1.172739  0  -0.315301  -0.548021  0  2.333164  0
O  O196  1  0.94277449  0.53221084  0.41230335  1  -1.163523  0  -0.314424  -0.54368  0  2.343558  0
O  O197  1  0.82642459  0.49665926  0.55614704  1  -1.169194  0  -0.31178  -0.539855  0  2.333666  0
O  O198  1  0.10499652  0.31242286  0.47905463  1  -1.145179  0  -0.320616  -0.547061  0  2.318851  0
O  O199  1  0.11400661  0.38607808  0.55947532  1  -1.171566  0  -0.311779  -0.541271  0  2.332385  0
O  O200  1  0.95772660  0.65659045  0.55163536  1  -1.144799  0  -0.320507  -0.54606  0  2.321588  0
O  O201  1  0.11928151  0.49977865  0.55631128  1  -1.175465  0  -0.315797  -0.54823  0  2.336208  0
O  O202  1  0.83679979  0.65240084  0.55072105  1  -1.171963  0  -0.315959  -0.540427  0  2.386513  0
O  O203  1  0.11267474  0.53238695  0.41227762  1  -1.172047  0  -0.314366  -0.542612  0  2.34435  0
O  O204  1  0.11887130  0.58448081  0.47038256  1  -1.154378  0  -0.311963  -0.543317  0  2.331989  0
O  O205  1  0.50039504  0.24900994  0.75010997  1  -1.226205  0  -0.571218  -1.026887  0  2.53028  0
O  O206  1  0.67567822  0.24981093  0.69354103  1  -1.177695  0  -0.316055  -0.548892  0  2.334806  0
O  O207  1  0.39902036  0.43327123  0.77019931  1  -1.148617  0  -0.315804  -0.539173  0  2.391179  0
O  O208  1  0.55651397  0.21844529  0.83754490  1  -1.17462  0  -0.31574  -0.547165  0  2.33271  0
O  O209  1  0.55998310  0.36318647  0.68998947  1  -1.165963  0  -0.309713  -0.536227  0  2.336353  0
O  O210  1  0.67352419  0.16567830  0.77972709  1  -1.171273  0  -0.312135  -0.542149  0  2.334604  0
O  O211  1  0.39506862  0.37506505  0.83306972  1  -1.181985  0  -0.319453  -0.544938  0  2.320223  0
O  O212  1  0.38588788  0.21782320  0.83664239  1  -1.166891  0  -0.310981  -0.540609  0  2.332126  0
O  O213  1  0.54175435  0.09496354  0.69780252  1  -1.154766  0  -0.318099  -0.542747  0  2.330166  0
O  O214  1  0.38041422  0.16562144  0.77832223  1  -1.17152  0  -0.315114  -0.545976  0  2.336974  0
O  O215  1  0.66567259  0.09386803  0.69839501  1  -1.162473  0  -0.31613  -0.538485  0  2.311361  0
O  O216  1  0.38828279  0.36513049  0.68979405  1  -1.17126  0  -0.315615  -0.545534  0  2.339242  0
O  O217  1  0.38100420  0.25243476  0.69299145  1  -1.168149  0  -0.31146  -0.541815  0  2.333692  0
O  O218  1  0.50032636  0.75063525  0.25015761  1  -1.230584  0  -0.571325  -1.027219  0  2.532664  0
O  O219  1  0.38679525  0.71763706  0.33696731  1  -1.167395  0  -0.312731  -0.544851  0  2.330138  0
O  O220  1  0.54083110  0.59714532  0.19899610  1  -1.139627  0  -0.314477  -0.537438  0  2.393651  0
O  O221  1  0.67475655  0.66590229  0.27837863  1  -1.173383  0  -0.314571  -0.54581  0  2.333813  0
O  O222  1  0.38037752  0.66616946  0.27870770  1  -1.159893  0  -0.313283  -0.540745  0  2.344281  0
O  O223  1  0.55892278  0.71743406  0.33684516  1  -1.173176  0  -0.312572  -0.543563  0  2.331778  0
O  O224  1  0.66649339  0.59411958  0.19751471  1  -1.15702  0  -0.32057  -0.546744  0  2.320669  0
O  O225  1  0.67315861  0.75260133  0.19298290  1  -1.171109  0  -0.310936  -0.542084  0  2.33217  0
O  O226  1  0.39564535  0.93601265  0.27096682  1  -1.146474  0  -0.319594  -0.545254  0  2.332418  0
O  O227  1  0.55647675  0.86580847  0.19020633  1  -1.170278  0  -0.315319  -0.546535  0  2.336243  0
O  O228  1  0.39632760  0.87434476  0.33286715  1  -1.170171  0  -0.316666  -0.539645  0  2.30885  0
O  O229  1  0.38012362  0.75094595  0.19361325  1  -1.172694  0  -0.313755  -0.542215  0  2.344276  0
O  O230  1  0.38584145  0.86434684  0.19041821  1  -1.172259  0  -0.311171  -0.54171  0  2.331936  0
O  O231  1  0.00006051  0.99995783  0.99996948  1  -1.221857  0  -0.571316  -1.027282  0  2.532604  0
O  O232  1  0.11260025  0.88456908  0.05942468  1  -1.171974  0  -0.315784  -0.547036  0  2.334752  0
O  O233  1  0.95894762  0.15534671  0.05173572  1  -1.15391  0  -0.316613  -0.539671  0  2.309016  0
O  O234  1  0.82485508  0.99975485  0.05671292  1  -1.175348  0  -0.314942  -0.545048  0  2.338477  0
O  O235  1  0.11915810  0.99763178  0.05655692  1  -1.170512  0  -0.311989  -0.542775  0  2.332275  0
O  O236  1  0.94062602  0.88572507  0.05932690  1  -1.171203  0  -0.311705  -0.54196  0  2.331755  0
O  O237  1  0.83528528  0.15534981  0.05177195  1  -1.166142  0  -0.317647  -0.540528  0  2.336841  0
O  O238  1  0.82472714  0.08514528  0.97154810  1  -1.17157  0  -0.314001  -0.54384  0  2.338138  0
O  O239  1  0.10265618  0.87565079  0.91738970  1  -1.170701  0  -0.318721  -0.544142  0  2.331547  0
O  O240  1  0.94048411  0.03220939  0.91320134  1  -1.174581  0  -0.311804  -0.542461  0  2.334091  0
O  O241  1  0.10299814  0.81346544  0.97908909  1  -1.15122  0  -0.315251  -0.537242  0  2.311813  0
O  O242  1  0.11922497  0.08377199  0.97047816  1  -1.150671  0  -0.312387  -0.54307  0  2.332061  0
O  O243  1  0.11232145  0.03184973  0.91251386  1  -1.176875  0  -0.31455  -0.544815  0  2.336912  0
