# generated using pymatgen
data_Na2H8C8N16O
_symmetry_space_group_name_H-M   'P 1'
_cell_length_a   6.07145417
_cell_length_b   7.06668361
_cell_length_c   18.69813004
_cell_angle_alpha   93.46884750
_cell_angle_beta   89.99794672
_cell_angle_gamma   115.46063189
_symmetry_Int_Tables_number   1
_chemical_formula_structural   Na2H8C8N16O
_chemical_formula_sum   'Na4 H16 C16 N32 O2'
_cell_volume   722.70342734
_cell_formula_units_Z   2
loop_
 _symmetry_equiv_pos_site_id
 _symmetry_equiv_pos_as_xyz
  1  'x, y, z'
loop_
 _atom_site_type_symbol
 _atom_site_label
 _atom_site_symmetry_multiplicity
 _atom_site_fract_x
 _atom_site_fract_y
 _atom_site_fract_z
 _atom_site_occupancy
 _atom_site_hle17_bader_spin_density
 _atom_site_hle17_ddec_charge
 _atom_site_hle17_ddec_spin_density
 _atom_site_hle17_ddec_sum_bond_order
 _atom_site_hle17_magmom
 _atom_site_hse06_10hf_bader_spin_density
 _atom_site_hse06_10hf_ddec_charge
 _atom_site_hse06_10hf_ddec_spin_density
 _atom_site_hse06_10hf_ddec_sum_bond_order
 _atom_site_hse06_10hf_magmom
 _atom_site_hse06_bader_spin_density
 _atom_site_hse06_ddec_charge
 _atom_site_hse06_ddec_spin_density
 _atom_site_hse06_ddec_sum_bond_order
 _atom_site_hse06_magmom
 _atom_site_pbe_bader_spin_density
 _atom_site_pbe_cm5_charge
 _atom_site_pbe_ddec_charge
 _atom_site_pbe_ddec_spin_density
 _atom_site_pbe_ddec_sum_bond_order
 _atom_site_pbe_magmom
Na  Na0  1  0.07320851  0.72450020  0.77552883  1  0  0.860922  0  0.396412  0  0  0.776464  0  0.589776  0  0  0.790044  0  0.567012  0  0  0.675552  0.76679  0  0.605723  0
Na  Na1  1  0.34842818  0.27527693  0.72449092  1  0  0.861077  0  0.395976  0  0  0.776161  0  0.590087  0  0  0.789789  0  0.567286  0  0  0.675338  0.76643  0  0.606104  0
Na  Na2  1  0.92678970  0.27549922  0.22447096  1  0  0.860921  0  0.396408  0  0  0.776459  0  0.589774  0  0  0.79004  0  0.567022  0  0  0.675555  0.766781  0  0.605723  0
Na  Na3  1  0.65157664  0.72472250  0.27550834  1  0  0.861092  0  0.395951  0  0  0.776169  0  0.590067  0  0  0.7898  0  0.567258  0  0  0.675343  0.766437  0  0.606091  0
H  H4  1  0.39052143  0.30556728  0.56627663  1  0  0.102543  0  0.975728  0  0  0.106509  0  1.04961  0  0  0.110388  0  1.045999  0  0  0.112742  0.103818  0  1.052079  0
H  H5  1  0.08536051  0.69433747  0.93375797  1  0  0.101888  0  0.975362  0  0  0.10596  0  1.049176  0  0  0.109813  0  1.045609  0  0  0.112801  0.103275  0  1.051632  0
H  H6  1  0.60947839  0.69443205  0.43372530  1  0  0.10255  0  0.975755  0  0  0.106557  0  1.049586  0  0  0.110433  0  1.045974  0  0  0.112762  0.103865  0  1.052055  0
H  H7  1  0.91464493  0.30566980  0.06624204  1  0  0.101879  0  0.975345  0  0  0.105942  0  1.049162  0  0  0.109795  0  1.045596  0  0  0.112792  0.103257  0  1.051618  0
H  H8  1  0.67099394  0.21389770  0.43998330  1  0  0.117026  0  0.998059  0  0  0.118099  0  1.071274  0  0  0.12249  0  1.0681  0  0  0.112371  0.11505  0  1.073401  0
H  H9  1  0.45769823  0.78600920  0.06001727  1  0  0.116837  0  0.997516  0  0  0.118121  0  1.0705  0  0  0.12247  0  1.067424  0  0  0.112326  0.11504  0  1.072622  0
H  H10  1  0.32900506  0.78610328  0.56001654  1  0  0.117075  0  0.998022  0  0  0.118091  0  1.071302  0  0  0.122484  0  1.068125  0  0  0.112369  0.115042  0  1.07343  0
H  H11  1  0.54229264  0.21398540  0.93998507  1  0  0.116888  0  0.997495  0  0  0.118096  0  1.070548  0  0  0.122485  0  1.067437  0  0  0.112343  0.115053  0  1.072629  0
H  H12  1  0.04970160  0.23979992  0.49754178  1  0  0.276666  0  0.964127  0  0  0.241561  0  1.04671  0  0  0.252246  0  1.039029  0  0  0.306183  0.234068  0  1.052114  0
H  H13  1  0.81062481  0.76025173  0.00244204  1  0  0.276967  0  0.963089  0  0  0.240903  0  1.047109  0  0  0.251542  0  1.039567  0  0  0.306156  0.233477  0  1.052343  0
H  H14  1  0.95030076  0.76019790  0.50245850  1  0  0.276661  0  0.964135  0  0  0.241589  0  1.046668  0  0  0.252275  0  1.038985  0  0  0.306215  0.234096  0  1.052071  0
H  H15  1  0.18936934  0.23974615  0.99755665  1  0  0.276995  0  0.963088  0  0  0.240913  0  1.04716  0  0  0.251548  0  1.039619  0  0  0.30619  0.23351  0  1.052341  0
H  H16  1  0.53500527  0.94721866  0.71131089  1  0  0.400924  0  0.907528  0  0  0.362197  0  0.985072  0  0  0.372933  0  0.969502  0  0  0.286407  0.354701  0  0.995887  0
H  H17  1  0.58781340  0.05276730  0.78868785  1  0  0.399968  0  0.908688  0  0  0.361992  0  0.985252  0  0  0.37273  0  0.969652  0  0  0.286069  0.354489  0  0.996107  0
H  H18  1  0.46499226  0.05277608  0.28868771  1  0  0.400947  0  0.907489  0  0  0.362221  0  0.985026  0  0  0.372955  0  0.969457  0  0  0.286425  0.354725  0  0.995841  0
H  H19  1  0.41218161  0.94722901  0.21131079  1  0  0.399951  0  0.908695  0  0  0.361991  0  0.985234  0  0  0.372726  0  0.969637  0  0  0.286075  0.354486  0  0.996091  0
C  C20  1  0.74360077  0.32589502  0.58749886  1  0  0.295353  0  3.827915  0  0  0.278969  0  4.095725  0  0  0.287047  0  4.113295  0  0  0.202138  0.273731  0  4.083634  0
C  C21  1  0.41807328  0.67400817  0.91248241  1  0  0.293618  0  3.828666  0  0  0.276833  0  4.097018  0  0  0.284818  0  4.11473  0  0  0.201824  0.271649  0  4.084845  0
C  C22  1  0.25640561  0.67410755  0.41250048  1  0  0.29556  0  3.827797  0  0  0.279023  0  4.095829  0  0  0.287099  0  4.113397  0  0  0.20216  0.273784  0  4.083738  0
C  C23  1  0.58192659  0.32599124  0.08751739  1  0  0.293639  0  3.828726  0  0  0.27687  0  4.097065  0  0  0.284856  0  4.114774  0  0  0.201813  0.271681  0  4.084895  0
C  C24  1  0.31305616  0.19177997  0.42467526  1  0  0.338691  0  3.773658  0  0  0.306302  0  4.044205  0  0  0.319732  0  4.058711  0  0  0.235949  0.297433  0  4.034323  0
C  C25  1  0.12189656  0.80818712  0.07533053  1  0  0.337925  0  3.774384  0  0  0.305385  0  4.045016  0  0  0.318819  0  4.059561  0  0  0.236294  0.296528  0  4.035094  0
C  C26  1  0.68693804  0.80821471  0.57532494  1  0  0.338627  0  3.773836  0  0  0.306332  0  4.04424  0  0  0.319774  0  4.05873  0  0  0.235888  0.297441  0  4.034392  0
C  C27  1  0.87809667  0.19181549  0.92466774  1  0  0.337795  0  3.774529  0  0  0.305448  0  4.044916  0  0  0.318879  0  4.059471  0  0  0.236283  0.296593  0  4.035007  0
C  C28  1  0.52482644  0.23266726  0.46866221  1  0  -0.14953  0  3.72578  0  0  -0.169933  0  3.989323  0  0  -0.174355  0  4.005982  0  0  -0.085902  -0.167018  0  3.978158  0
C  C29  1  0.29273514  0.76721818  0.03133773  1  0  -0.149866  0  3.725221  0  0  -0.170187  0  3.988074  0  0  -0.174635  0  4.00479  0  0  -0.086511  -0.167224  0  3.976935  0
C  C30  1  0.47517963  0.76734456  0.53134220  1  0  -0.149499  0  3.725597  0  0  -0.169946  0  3.989258  0  0  -0.174374  0  4.00591  0  0  -0.085868  -0.16703  0  3.978104  0
C  C31  1  0.70726131  0.23278429  0.96866429  1  0  -0.149825  0  3.72515  0  0  -0.170124  0  3.987965  0  0  -0.174609  0  4.004653  0  0  -0.086472  -0.167196  0  3.976812  0
C  C32  1  0.54010117  0.28580255  0.53962731  1  0  -0.106271  0  3.715078  0  0  -0.132235  0  3.977906  0  0  -0.131896  0  3.993672  0  0  -0.073951  -0.132501  0  3.967299  0
C  C33  1  0.25476462  0.71409423  0.96038675  1  0  -0.104833  0  3.714472  0  0  -0.130488  0  3.976606  0  0  -0.130117  0  3.992411  0  0  -0.073702  -0.130779  0  3.965992  0
C  C34  1  0.45989958  0.71419535  0.46037084  1  0  -0.106345  0  3.714839  0  0  -0.132286  0  3.977677  0  0  -0.131953  0  3.993466  0  0  -0.073954  -0.132548  0  3.967067  0
C  C35  1  0.74523429  0.28590987  0.03961371  1  0  -0.104779  0  3.714619  0  0  -0.130428  0  3.97674  0  0  -0.13006  0  3.992557  0  0  -0.073672  -0.130713  0  3.966134  0
N  N36  1  0.10195796  0.19541331  0.44618823  1  0  -0.236117  0  3.395762  0  0  -0.171855  0  3.64038  0  0  -0.188211  0  3.656386  0  0  -0.24261  -0.161014  0  3.629571  0
N  N37  1  0.90726152  0.80462760  0.05379483  1  0  -0.235331  0  3.395568  0  0  -0.170561  0  3.640606  0  0  -0.186841  0  3.656539  0  0  -0.24253  -0.159752  0  3.629751  0
N  N38  1  0.89804025  0.80458608  0.55381209  1  0  -0.236078  0  3.395716  0  0  -0.171865  0  3.640313  0  0  -0.188224  0  3.656308  0  0  -0.242591  -0.161019  0  3.629515  0
N  N39  1  0.09273339  0.19537179  0.94620550  1  0  -0.235354  0  3.3955  0  0  -0.170689  0  3.640595  0  0  -0.186963  0  3.656519  0  0  -0.24258  -0.159879  0  3.629726  0
N  N40  1  0.95530884  0.31246365  0.57322883  1  0  -0.294179  0  3.042404  0  0  -0.253559  0  3.311969  0  0  -0.266024  0  3.328147  0  0  -0.212965  -0.245037  0  3.300774  0
N  N41  1  0.64329584  0.68754303  0.92673679  1  0  -0.294379  0  3.041599  0  0  -0.253186  0  3.311409  0  0  -0.265574  0  3.32754  0  0  -0.213352  -0.244733  0  3.300246  0
N  N42  1  0.04469917  0.68753889  0.42677159  1  0  -0.29418  0  3.042405  0  0  -0.253522  0  3.311998  0  0  -0.265986  0  3.328171  0  0  -0.212912  -0.245002  0  3.300806  0
N  N43  1  0.35670082  0.31245326  0.07326239  1  0  -0.294462  0  3.041561  0  0  -0.253266  0  3.31139  0  0  -0.265656  0  3.327522  0  0  -0.213385  -0.244826  0  3.300223  0
N  N44  1  0.74255452  0.38927702  0.65708775  1  0  -0.364367  0  3.039922  0  0  -0.334407  0  3.328016  0  0  -0.344719  0  3.340969  0  0  -0.277656  -0.327483  0  3.319251  0
N  N45  1  0.35358582  0.61063117  0.84290051  1  0  -0.36325  0  3.042158  0  0  -0.33332  0  3.330225  0  0  -0.343595  0  3.343227  0  0  -0.277555  -0.326421  0  3.321422  0
N  N46  1  0.25745677  0.61072550  0.34291320  1  0  -0.364375  0  3.039928  0  0  -0.334366  0  3.328052  0  0  -0.344676  0  3.341002  0  0  -0.27763  -0.327441  0  3.319284  0
N  N47  1  0.64641232  0.38937139  0.15709937  1  0  -0.363277  0  3.042136  0  0  -0.333345  0  3.330186  0  0  -0.34362  0  3.343189  0  0  -0.277548  -0.326444  0  3.321379  0
N  N48  1  0.06189182  0.11017112  0.33412348  1  0  -0.139109  0  3.038236  0  0  -0.130822  0  3.355011  0  0  -0.130017  0  3.364046  0  0  -0.117967  -0.131266  0  3.349036  0
N  N49  1  0.95223999  0.88974631  0.16586156  1  0  -0.138204  0  3.036775  0  0  -0.129756  0  3.353429  0  0  -0.128952  0  3.362471  0  0  -0.117241  -0.130203  0  3.347446  0
N  N50  1  0.93810639  0.88982827  0.66587685  1  0  -0.139238  0  3.038249  0  0  -0.130973  0  3.355055  0  0  -0.130167  0  3.36409  0  0  -0.11803  -0.131416  0  3.349081  0
N  N51  1  0.04774922  0.11025157  0.83413712  1  0  -0.138347  0  3.036533  0  0  -0.129927  0  3.353227  0  0  -0.129124  0  3.362271  0  0  -0.117348  -0.130373  0  3.347249  0
N  N52  1  0.28806289  0.13769119  0.35399521  1  0  -0.276194  0  2.951453  0  0  -0.239295  0  3.22788  0  0  -0.251344  0  3.239129  0  0  -0.179413  -0.231315  0  3.220291  0
N  N53  1  0.15090740  0.86223720  0.14601165  1  0  -0.27626  0  2.951178  0  0  -0.239767  0  3.228192  0  0  -0.251848  0  3.239443  0  0  -0.179677  -0.231762  0  3.220599  0
N  N54  1  0.71193783  0.86230663  0.64600508  1  0  -0.27616  0  2.95148  0  0  -0.239272  0  3.227873  0  0  -0.251325  0  3.23912  0  0  -0.179405  -0.231285  0  3.220294  0
N  N55  1  0.84908501  0.13776379  0.85398819  1  0  -0.276197  0  2.951117  0  0  -0.239758  0  3.228093  0  0  -0.251839  0  3.239346  0  0  -0.179653  -0.231755  0  3.220503  0
N  N56  1  0.94803467  0.14412543  0.38930020  1  0  -0.052891  0  2.941784  0  0  -0.047126  0  3.226486  0  0  -0.045946  0  3.238313  0  0  -0.074917  -0.047679  0  3.218299  0
N  N57  1  0.80453360  0.85586215  0.11066412  1  0  -0.053097  0  2.942422  0  0  -0.047578  0  3.227142  0  0  -0.046393  0  3.238972  0  0  -0.074875  -0.048122  0  3.218946  0
N  N58  1  0.05196362  0.85587082  0.61070005  1  0  -0.052833  0  2.941669  0  0  -0.047043  0  3.226368  0  0  -0.045864  0  3.238199  0  0  -0.074884  -0.047594  0  3.218183  0
N  N59  1  0.19545970  0.14413732  0.88933407  1  0  -0.05297  0  2.942113  0  0  -0.047403  0  3.226793  0  0  -0.046227  0  3.238638  0  0  -0.074781  -0.047958  0  3.218616  0
N  N60  1  0.95790556  0.41738958  0.68523477  1  0  -0.16218  0  3.080427  0  0  -0.141773  0  3.386573  0  0  -0.143042  0  3.397044  0  0  -0.167113  -0.140702  0  3.379402  0
N  N61  1  0.54079787  0.58254273  0.81473700  1  0  -0.163304  0  3.083683  0  0  -0.142948  0  3.390031  0  0  -0.144225  0  3.400463  0  0  -0.167231  -0.141876  0  3.382908  0
N  N62  1  0.04210419  0.58260984  0.31476503  1  0  -0.162257  0  3.080336  0  0  -0.141838  0  3.386462  0  0  -0.143108  0  3.396933  0  0  -0.167191  -0.140765  0  3.379286  0
N  N63  1  0.45919792  0.41745513  0.18526222  1  0  -0.163334  0  3.083732  0  0  -0.142971  0  3.390075  0  0  -0.144249  0  3.400509  0  0  -0.16724  -0.1419  0  3.382949  0
N  N64  1  0.08562189  0.37057217  0.63524285  1  0  -0.151191  0  3.03129  0  0  -0.136678  0  3.336755  0  0  -0.138402  0  3.348861  0  0  -0.145689  -0.135194  0  3.32823  0
N  N65  1  0.71541636  0.62941871  0.86471754  1  0  -0.150075  0  3.032672  0  0  -0.135645  0  3.337975  0  0  -0.137331  0  3.350067  0  0  -0.145139  -0.134191  0  3.329467  0
N  N66  1  0.91438621  0.62942724  0.36475694  1  0  -0.151271  0  3.031133  0  0  -0.136768  0  3.336602  0  0  -0.138489  0  3.348701  0  0  -0.145729  -0.135284  0  3.328078  0
N  N67  1  0.28458029  0.37057758  0.13528163  1  0  -0.150028  0  3.032692  0  0  -0.135594  0  3.337992  0  0  -0.137282  0  3.350089  0  0  -0.145149  -0.13414  0  3.329485  0
O  O68  1  0.45910100  0.99992604  0.75000700  1  0  -0.919773  0  1.866431  0  0  -0.864309  0  2.066282  0  0  -0.881357  0  2.031984  0  0  -0.706164  -0.852176  0  2.090059  0
O  O69  1  0.54089647  0.00007188  0.24999062  1  0  -0.919774  0  1.866442  0  0  -0.864343  0  2.066342  0  0  -0.88139  0  2.032054  0  0  -0.706184  -0.852214  0  2.090125  0
