# generated using pymatgen
data_Zr3H35C63O16
_symmetry_space_group_name_H-M   'P 1'
_cell_length_a   19.25563484
_cell_length_b   19.30545138
_cell_length_c   19.32163439
_cell_angle_alpha   92.84717948
_cell_angle_beta   93.24275803
_cell_angle_gamma   93.05162652
_symmetry_Int_Tables_number   1
_chemical_formula_structural   Zr3H35C63O16
_chemical_formula_sum   'Zr6 H70 C126 O32'
_cell_volume   7150.92526617
_cell_formula_units_Z   2
loop_
 _symmetry_equiv_pos_site_id
 _symmetry_equiv_pos_as_xyz
  1  'x, y, z'
loop_
 _atom_site_type_symbol
 _atom_site_label
 _atom_site_symmetry_multiplicity
 _atom_site_fract_x
 _atom_site_fract_y
 _atom_site_fract_z
 _atom_site_occupancy
 _atom_site_pbe_bader_charge
 _atom_site_pbe_bader_spin_density
 _atom_site_pbe_cm5_charge
 _atom_site_pbe_ddec_charge
 _atom_site_pbe_ddec_spin_density
 _atom_site_pbe_ddec_sum_bond_order
 _atom_site_pbe_magmom
Zr  Zr0  1  0.85971382  0.81288259  0.94174023  1  2.631275  0  1.624825  2.373755  0  2.773954  0
Zr  Zr1  1  0.00168596  0.76858439  0.84352939  1  2.628665  0  1.620145  2.371514  0  2.762794  0
Zr  Zr2  1  0.93218929  0.98370789  0.96994725  1  2.630252  0  1.624887  2.375143  0  2.764197  0
Zr  Zr3  1  0.90278404  0.91001944  0.79839940  1  2.629486  0  1.623179  2.373917  0  2.764193  0
Zr  Zr4  1  0.03244136  0.84213728  0.01386608  1  2.627332  0  1.623024  2.374218  0  2.762814  0
Zr  Zr5  1  0.07431253  0.94095518  0.87136507  1  2.631356  0  1.622575  2.373816  0  2.761593  0
H  H6  1  0.50434286  0.95798816  0.11856370  1  0.063757  0  0.101404  0.102973  0  1.022634  0
H  H7  1  0.37161891  0.90616196  0.28334640  1  0.064896  0  0.104536  0.108751  0  1.010078  0
H  H8  1  0.59418289  0.89824251  0.31373626  1  0.089292  0  0.105548  0.113468  0  0.994388  0
H  H9  1  0.42704354  0.80379161  0.69488570  1  0.048933  0  0.101535  0.10208  0  1.022316  0
H  H10  1  0.56184688  0.85746986  0.53234128  1  0.066977  0  0.104447  0.108471  0  1.00952  0
H  H11  1  0.33925176  0.86016883  0.49752261  1  0.083667  0  0.105945  0.114246  0  0.994111  0
H  H12  1  0.98741341  0.28073011  0.53110124  1  0.071187  0  0.105417  0.112531  0  0.994498  0
H  H13  1  0.99369373  0.25287253  0.30917022  1  0.058692  0  0.104581  0.108618  0  1.01021  0
H  H14  1  0.04674204  0.08666974  0.44042686  1  0.053629  0  0.101194  0.102178  0  1.023355  0
H  H15  1  0.94913961  0.46882055  0.28036494  1  0.081622  0  0.106281  0.114105  0  0.993517  0
H  H16  1  0.94858859  0.50027139  0.50248585  1  0.072465  0  0.104196  0.108874  0  1.009997  0
H  H17  1  0.89668281  0.66588373  0.37007833  1  0.068598  0  0.101426  0.102809  0  1.021739  0
H  H18  1  0.37317257  0.50137410  0.92839361  1  0.074661  0  0.105981  0.114216  0  0.993812  0
H  H19  1  0.34145943  0.27928543  0.93310365  1  0.082746  0  0.104466  0.108583  0  1.009233  0
H  H20  1  0.17806525  0.41220587  0.98909249  1  0.071844  0  0.101878  0.103393  0  1.020309  0
H  H21  1  0.55718281  0.24732315  0.88297354  1  0.048471  0  0.10576  0.113517  0  0.993873  0
H  H22  1  0.59075759  0.47023131  0.88663749  1  0.04775  0  0.105941  0.111615  0  1.0001  0
H  H23  1  0.75827554  0.33892859  0.84138957  1  0.05448  0  0.102291  0.105579  0  1.010417  0
H  H24  1  0.85925251  0.76670162  0.80039780  1  0.584981  0  0.330576  0.421665  0  0.85934  0
H  H25  1  0.90948680  0.88242450  0.07013327  1  0.616747  0  0.331793  0.425406  0  0.854814  0
H  H26  1  0.97217680  0.03984632  0.84683052  1  0.603099  0  0.331055  0.423667  0  0.85703  0
H  H27  1  0.13189078  0.81877622  0.91232657  1  0.622794  0  0.331569  0.424975  0  0.855268  0
H  H28  1  0.71999591  0.22730637  0.74835505  1  0.069776  0  0.102309  0.104158  0  0.997492  0
H  H29  1  0.67331865  0.19389882  0.95990498  1  0.066285  0  0.102921  0.104544  0  0.995281  0
H  H30  1  0.75163558  0.09471582  0.96071883  1  0.110447  0  0.107894  0.111736  0  1.003756  0
H  H31  1  0.79185120  0.12298273  0.74720891  1  0.087188  0  0.105989  0.108253  0  0.995991  0
H  H32  1  0.68739151  0.51995961  0.95632342  1  0.058028  0  0.103778  0.103635  0  0.999134  0
H  H33  1  0.78525899  0.44053303  0.77593280  1  0.065417  0  0.10096  0.101148  0  1.001725  0
H  H34  1  0.86930125  0.54389803  0.78475996  1  0.079572  0  0.1058  0.108477  0  0.995746  0
H  H35  1  0.76881854  0.62449325  0.96221454  1  0.128899  0  0.111225  0.117164  0  0.994867  0
H  H36  1  0.28637639  0.20433945  0.98787104  1  0.038576  0  0.103569  0.103086  0  1.003085  0
H  H37  1  0.11107399  0.33085028  0.95067525  1  0.032473  0  0.102525  0.102148  0  1.00964  0
H  H38  1  0.03103157  0.22637612  0.95046250  1  0.082134  0  0.107743  0.110719  0  0.987436  0
H  H39  1  0.20646098  0.09922915  0.97661274  1  0.106317  0  0.108929  0.11479  0  0.99442  0
H  H40  1  0.21663483  0.52736583  0.07056112  1  0.059772  0  0.103667  0.106277  0  0.994532  0
H  H41  1  0.25142066  0.54853593  0.85422072  1  0.081866  0  0.104184  0.106647  0  0.992692  0
H  H42  1  0.17053244  0.64537381  0.85123088  1  0.108686  0  0.107002  0.110279  0  1.002416  0
H  H43  1  0.14170029  0.62936029  0.06888245  1  0.09494  0  0.107018  0.109077  0  0.996328  0
H  H44  1  0.02521590  0.58692826  0.22977779  1  0.062481  0  0.103219  0.1046  0  0.994232  0
H  H45  1  0.81094084  0.62925794  0.25766239  1  0.076812  0  0.102985  0.105347  0  0.995411  0
H  H46  1  0.81045668  0.70200469  0.15389897  1  0.070671  0  0.104916  0.106424  0  0.997724  0
H  H47  1  0.02627885  0.66569575  0.13084110  1  0.089949  0  0.107303  0.110921  0  1.001834  0
H  H48  1  0.89697344  0.55727225  0.57772773  1  0.034432  0  0.101608  0.100304  0  1.005633  0
H  H49  1  0.93602909  0.73161830  0.45102652  1  0.050733  0  0.101092  0.099369  0  1.011212  0
H  H50  1  0.93442737  0.81181279  0.55466328  1  0.103782  0  0.108974  0.112333  0  0.984671  0
H  H51  1  0.90624544  0.63734598  0.68209820  1  0.090261  0  0.105534  0.107535  0  1.004629  0
H  H52  1  0.03374629  0.11757859  0.12797411  1  0.079148  0  0.109159  0.11482  0  0.994062  0
H  H53  1  0.01464163  0.94197809  0.25544339  1  0.107515  0  0.106826  0.109608  0  0.989069  0
H  H54  1  0.01293621  0.02127382  0.35952284  1  0.065955  0  0.101335  0.100832  0  1.012072  0
H  H55  1  0.04307306  0.19718904  0.23264505  1  0.079706  0  0.103627  0.103439  0  1.004471  0
H  H56  1  0.12903852  0.12453753  0.55681432  1  0.028237  0  0.103545  0.106192  0  0.99218  0
H  H57  1  0.91132606  0.15750148  0.57557798  1  0.093687  0  0.103064  0.104862  0  0.99437  0
H  H58  1  0.90881786  0.07649559  0.67244811  1  0.095147  0  0.10753  0.111485  0  1.001851  0
H  H59  1  0.12779184  0.04963168  0.65892596  1  0.096907  0  0.107169  0.109464  0  0.995456  0
H  H60  1  0.28951155  0.93547182  0.61871705  1  0.064903  0  0.10359  0.106488  0  0.994359  0
H  H61  1  0.31245097  0.71897591  0.65319358  1  0.083521  0  0.102824  0.105111  0  0.993607  0
H  H62  1  0.20893074  0.71836765  0.72600680  1  0.08023  0  0.106448  0.109079  0  0.994545  0
H  H63  1  0.19099529  0.93609247  0.69761284  1  0.09818  0  0.107029  0.11079  0  1.003441  0
H  H64  1  0.50881374  0.84134419  0.76240622  1  0.0679  0  0.100723  0.099349  0  1.011399  0
H  H65  1  0.63645945  0.80501575  0.58894757  1  0.042374  0  0.103486  0.102981  0  1.004635  0
H  H66  1  0.74110527  0.81474558  0.66931619  1  0.102332  0  0.10747  0.111509  0  0.996519  0
H  H67  1  0.61305611  0.84036045  0.84309709  1  0.103533  0  0.108586  0.111468  0  0.984828  0
H  H68  1  0.19045992  0.94635673  0.14633552  1  0.124379  0  0.108736  0.11429  0  0.994968  0
H  H69  1  0.31858772  0.92383335  0.97224456  1  0.084987  0  0.106874  0.109202  0  0.988795  0
H  H70  1  0.42298283  0.92334269  0.05246642  1  0.052731  0  0.101227  0.101061  0  1.011599  0
H  H71  1  0.29546757  0.95686771  0.22662198  1  0.049718  0  0.10351  0.102676  0  1.004378  0
H  H72  1  0.62088604  0.03968962  0.15761728  1  0.066082  0  0.103665  0.106205  0  0.992269  0
H  H73  1  0.63945768  0.82229188  0.19058212  1  0.07137  0  0.102871  0.104972  0  0.994083  0
H  H74  1  0.73560300  0.81938270  0.10907847  1  0.103438  0  0.106764  0.11058  0  1.003843  0
H  H75  1  0.72223312  0.03791742  0.08201117  1  0.101389  0  0.108126  0.111228  0  0.993506  0
C  C76  1  0.55602670  0.92856751  0.21267130  1  -0.037763  0  -0.007098  0.075567  0  4.043537  0
C  C77  1  0.49685166  0.94240334  0.17117663  1  -0.030594  0  -0.087624  -0.1801  0  3.934189  0
C  C78  1  0.42940652  0.93341674  0.19437378  1  0.043294  0  -0.007326  0.076272  0  4.02954  0
C  C79  1  0.42281888  0.91455492  0.26298759  1  -0.072251  0  -0.080061  -0.16972  0  3.881459  0
C  C80  1  0.48169925  0.90364366  0.30704542  1  0.115364  0  -0.001714  0.148271  0  4.131288  0
C  C81  1  0.54861418  0.90888948  0.28066932  1  -0.022787  0  -0.083041  -0.179145  0  3.899068  0
C  C82  1  0.37626677  0.83146696  0.59952351  1  -0.006706  0  -0.00719  0.075668  0  4.043403  0
C  C83  1  0.43509295  0.81926540  0.64231091  1  -0.088384  0  -0.086675  -0.177495  0  3.933697  0
C  C84  1  0.50287071  0.82934725  0.62021672  1  0.021041  0  -0.00735  0.07533  0  4.026892  0
C  C85  1  0.51031917  0.84813034  0.55167857  1  -0.01418  0  -0.080665  -0.16989  0  3.881418  0
C  C86  1  0.45192533  0.85758892  0.50647820  1  0.084113  0  -0.002111  0.148323  0  4.132147  0
C  C87  1  0.38453538  0.85087724  0.53157132  1  -0.030204  0  -0.083487  -0.180529  0  3.900429  0
C  C88  1  0.01746287  0.18012297  0.49244887  1  0.023383  0  -0.008133  0.073828  0  4.047173  0
C  C89  1  0.99770764  0.24819128  0.48548328  1  -0.039453  0  -0.082658  -0.177559  0  3.898981  0
C  C90  1  0.99194728  0.27536662  0.41899880  1  0.05247  0  -0.00213  0.148283  0  4.130113  0
C  C91  1  0.00244060  0.23197717  0.36006356  1  -0.002388  0  -0.080678  -0.170787  0  3.882259  0
C  C92  1  0.02150073  0.16329390  0.36622718  1  -0.003774  0  -0.005926  0.077879  0  4.025697  0
C  C93  1  0.03097858  0.13932828  0.43328022  1  -0.044423  0  -0.086531  -0.177295  0  3.930206  0
C  C94  1  0.92248821  0.57076911  0.31838639  1  -0.02941  0  -0.00726  0.076251  0  4.044347  0
C  C95  1  0.94083604  0.50232515  0.32590298  1  -0.048746  0  -0.083111  -0.179118  0  3.896773  0
C  C96  1  0.94759387  0.47607022  0.39273527  1  0.08505  0  -0.00226  0.149918  0  4.129784  0
C  C97  1  0.93925705  0.52058593  0.45140444  1  -0.011849  0  -0.081314  -0.173144  0  3.8825  0
C  C98  1  0.92158948  0.58962473  0.44467846  1  -0.069545  0  -0.007672  0.075391  0  4.029676  0
C  C99  1  0.91140076  0.61290232  0.37743642  1  0.004247  0  -0.086679  -0.178195  0  3.933552  0
C  C100  1  0.27220952  0.46364712  0.95936781  1  0.040599  0  -0.007845  0.071719  0  4.044094  0
C  C101  1  0.33997809  0.45598999  0.93879396  1  -0.039365  0  -0.0828  -0.177946  0  3.897619  0
C  C102  1  0.36589296  0.38906158  0.93204602  1  0.040363  0  -0.001467  0.149937  0  4.132912  0
C  C103  1  0.32169257  0.33047729  0.94271945  1  -0.031253  0  -0.080899  -0.171139  0  3.886323  0
C  C104  1  0.25341864  0.33736729  0.96275845  1  -0.017241  0  -0.007064  0.075877  0  4.033453  0
C  C105  1  0.23056670  0.40469442  0.97293114  1  -0.038631  0  -0.086612  -0.177298  0  3.931713  0
C  C106  1  0.66026848  0.28578115  0.85924015  1  -0.061996  0  -0.006861  0.076827  0  4.038809  0
C  C107  1  0.59135366  0.29312902  0.87646612  1  0.026104  0  -0.082719  -0.179022  0  3.895442  0
C  C108  1  0.56545629  0.35994211  0.88496911  1  0.105279  0  -0.001957  0.148832  0  4.132372  0
C  C109  1  0.61076471  0.41883237  0.87888832  1  -0.050138  0  -0.081927  -0.175946  0  3.89409  0
C  C110  1  0.68032319  0.41202522  0.86322818  1  0.005725  0  -0.006987  0.076041  0  4.041895  0
C  C111  1  0.70375740  0.34521497  0.85155050  1  -0.006039  0  -0.086866  -0.179762  0  3.932239  0
C  C112  1  0.78688080  0.92307095  0.03699013  1  1.560645  0  0.233584  0.636478  0  4.111666  0
C  C113  1  0.86724231  0.65773761  0.87797084  1  1.543088  0  0.233373  0.635186  0  4.108405  0
C  C114  1  0.74956878  0.84102111  0.80609925  1  1.541716  0  0.235338  0.640869  0  4.104806  0
C  C115  1  0.92323988  0.74165748  0.08369447  1  1.548994  0  0.237135  0.645402  0  4.102899  0
C  C116  1  0.14222505  0.83179378  0.77046912  1  1.566783  0  0.23646  0.643848  0  4.101387  0
C  C117  1  0.06889811  0.09137552  0.94714650  1  1.557923  0  0.236621  0.643426  0  4.105746  0
C  C118  1  0.93268542  0.77429328  0.69036753  1  1.557391  0  0.234475  0.637733  0  4.110367  0
C  C119  1  0.09812403  0.69616009  0.95424524  1  1.551627  0  0.234776  0.639281  0  4.109145  0
C  C120  1  0.00940558  0.97967142  0.12043516  1  1.560722  0  0.23608  0.64307  0  4.101907  0
C  C121  1  0.82999440  0.05055885  0.85956370  1  1.544715  0  0.237997  0.646627  0  4.099398  0
C  C122  1  0.01306164  0.00565740  0.72494620  1  1.56357  0  0.232585  0.635318  0  4.112563  0
C  C123  1  0.18289722  0.91921568  0.00899069  1  1.549432  0  0.235866  0.641234  0  4.109449  0
C  C124  1  0.72548705  0.19691691  0.79427309  1  -0.027068  0  -0.09283  -0.141811  0  3.995301  0
C  C125  1  0.69273081  0.21786719  0.85437583  1  -0.092734  0  -0.002333  0.077285  0  3.99584  0
C  C126  1  0.69891199  0.17807958  0.91313818  1  0.008172  0  -0.090617  -0.136711  0  3.986406  0
C  C127  1  0.74217902  0.12266505  0.91373241  1  -0.069574  0  -0.080881  -0.082329  0  3.974369  0
C  C128  1  0.77681320  0.10365805  0.85429501  1  0.030094  0  -0.018507  -0.041638  0  3.97384  0
C  C129  1  0.76591183  0.13914432  0.79357453  1  -0.063694  0  -0.082884  -0.088779  0  3.991449  0
C  C130  1  0.72608798  0.52577286  0.91761239  1  -0.047823  0  -0.089721  -0.134302  0  3.988792  0
C  C131  1  0.72972445  0.47345630  0.86491181  1  0.014207  0  -0.001907  0.079871  0  3.991975  0
C  C132  1  0.78223947  0.48038112  0.81755130  1  -0.04623  0  -0.091793  -0.138603  0  3.982759  0
C  C133  1  0.82915562  0.53831667  0.82204864  1  -0.042157  0  -0.084003  -0.091057  0  3.992839  0
C  C134  1  0.82379065  0.59098680  0.87368796  1  -0.018791  0  -0.018231  -0.044983  0  3.968278  0
C  C135  1  0.77205309  0.58374033  0.92170901  1  -0.087844  0  -0.080853  -0.076882  0  3.972232  0
C  C136  1  0.23065732  0.20970993  0.97807038  1  -0.025389  0  -0.089875  -0.132301  0  3.986626  0
C  C137  1  0.20521491  0.27577220  0.96833612  1  -0.043619  0  -0.003606  0.074343  0  3.989241  0
C  C138  1  0.13254502  0.28073948  0.95966977  1  -0.016547  0  -0.091143  -0.133583  0  3.98109  0
C  C139  1  0.08712613  0.22198200  0.95850375  1  0.020296  0  -0.085789  -0.097029  0  3.99981  0
C  C140  1  0.11379605  0.15623686  0.96258876  1  -0.094266  0  -0.016431  -0.037103  0  3.976359  0
C  C141  1  0.18595772  0.15061918  0.97327761  1  0.003123  0  -0.080725  -0.083992  0  3.976106  0
C  C142  1  0.20783805  0.55451895  0.02292535  1  -0.045613  0  -0.091755  -0.142343  0  3.992865  0
C  C143  1  0.23830492  0.53086963  0.96236512  1  -0.025869  0  -0.001819  0.080735  0  3.992448  0
C  C144  1  0.22777265  0.56657865  0.90138579  1  -0.051399  0  -0.089761  -0.136515  0  3.987173  0
C  C145  1  0.18283672  0.62059737  0.89957227  1  -0.026937  0  -0.082851  -0.084854  0  3.984109  0
C  C146  1  0.15063926  0.64240584  0.95967635  1  -0.07194  0  -0.020118  -0.046269  0  3.980875  0
C  C147  1  0.16559571  0.61091220  0.02209175  1  -0.016498  0  -0.081149  -0.083809  0  3.987858  0
C  C148  1  0.43539035  0.37952106  0.91421798  1  -0.035559  0  -0.048709  -0.111874  0  4.115522  0
C  C149  1  0.49522064  0.36900671  0.90049133  1  -0.326044  0  -0.047398  -0.106375  0  4.112843  0
C  C150  1  0.97799742  0.61173033  0.21278308  1  -0.032858  0  -0.089557  -0.135214  0  3.987776  0
C  C151  1  0.91825233  0.60396851  0.25080578  1  -0.010453  0  -0.002523  0.076219  0  3.999391  0
C  C152  1  0.85758089  0.63586881  0.22858487  1  -0.001336  0  -0.093346  -0.142742  0  3.995695  0
C  C153  1  0.85722535  0.67674755  0.17115277  1  -0.097456  0  -0.083201  -0.087901  0  3.99438  0
C  C154  1  0.91865679  0.68890102  0.13721107  1  0.005551  0  -0.019976  -0.045628  0  3.980817  0
C  C155  1  0.97877340  0.65532904  0.15761921  1  -0.031383  0  -0.08003  -0.079719  0  3.974533  0
C  C156  1  0.90672573  0.61280552  0.57208515  1  -0.030722  0  -0.089469  -0.129652  0  3.991803  0
C  C157  1  0.91710383  0.63792655  0.50609494  1  -0.052847  0  -0.004441  0.071655  0  3.990227  0
C  C158  1  0.92620771  0.71037516  0.50099143  1  -0.066711  0  -0.089985  -0.130271  0  3.978615  0
C  C159  1  0.92635662  0.75592848  0.55928881  1  -0.007733  0  -0.081871  -0.091306  0  3.990137  0
C  C160  1  0.92069381  0.72965714  0.62498666  1  -0.032001  0  -0.01733  -0.036691  0  3.971991  0
C  C161  1  0.91035656  0.65764780  0.63072439  1  -0.003587  0  -0.084025  -0.088103  0  3.990586  0
C  C162  1  0.03163354  0.09694323  0.17937879  1  -0.033273  0  -0.079814  -0.081463  0  3.974602  0
C  C163  1  0.02362128  0.02477213  0.18512995  1  0.009373  0  -0.016864  -0.037998  0  3.978063  0
C  C164  1  0.02076418  0.99802847  0.25091296  1  -0.074765  0  -0.085592  -0.097472  0  4.003187  0
C  C165  1  0.02086185  0.04314325  0.30946839  1  -0.047012  0  -0.091383  -0.132915  0  3.982557  0
C  C166  1  0.02727328  0.11574169  0.30447033  1  -0.066665  0  -0.004533  0.071632  0  3.988839  0
C  C167  1  0.03536213  0.14145503  0.23831353  1  -0.012612  0  -0.089352  -0.131949  0  3.98627  0
C  C168  1  0.08120663  0.11528558  0.58345694  1  0.023187  0  -0.091221  -0.141083  0  3.995451  0
C  C169  1  0.02018983  0.14538676  0.55924995  1  -0.037581  0  -0.002193  0.079544  0  3.999214  0
C  C170  1  0.95885012  0.13416657  0.59411673  1  -0.035537  0  -0.089598  -0.134977  0  3.987768  0
C  C171  1  0.95730731  0.08926899  0.64818134  1  -0.012514  0  -0.084653  -0.089216  0  3.981822  0
C  C172  1  0.01799141  0.05769578  0.67073414  1  -0.074213  0  -0.018884  -0.043013  0  3.981095  0
C  C173  1  0.08060361  0.07306330  0.63985331  1  -0.077138  0  -0.081478  -0.085023  0  3.99153  0
C  C174  1  0.97550155  0.34541889  0.41053345  1  0.190523  0  -0.047848  -0.110052  0  4.114133  0
C  C175  1  0.96315858  0.40584992  0.40156973  1  -0.53553  0  -0.047767  -0.108241  0  4.112711  0
C  C176  1  0.27149567  0.88775287  0.64178017  1  -0.034938  0  -0.090903  -0.139782  0  3.989614  0
C  C177  1  0.30818134  0.82739256  0.63188733  1  -0.002371  0  -0.002071  0.07899  0  3.993655  0
C  C178  1  0.28450955  0.76609751  0.66148317  1  -0.061875  0  -0.091541  -0.139645  0  3.992798  0
C  C179  1  0.22724309  0.76563747  0.70246269  1  -0.046185  0  -0.083031  -0.089992  0  3.994046  0
C  C180  1  0.19488307  0.82746683  0.71700199  1  -0.042512  0  -0.018817  -0.041016  0  3.976012  0
C  C181  1  0.21650377  0.88826855  0.68543269  1  -0.047484  0  -0.081243  -0.082289  0  3.976541  0
C  C182  1  0.55912751  0.83237910  0.74142389  1  -0.02574  0  -0.089801  -0.131457  0  3.976167  0
C  C183  1  0.56431603  0.82411340  0.66905903  1  -0.060249  0  -0.004063  0.073787  0  3.987802  0
C  C184  1  0.63065220  0.81435962  0.64436985  1  -0.027784  0  -0.09055  -0.132431  0  3.990828  0
C  C185  1  0.68958086  0.81829580  0.68947346  1  0.00575  0  -0.083113  -0.087565  0  3.983256  0
C  C186  1  0.68382912  0.82828699  0.76139581  1  -0.094844  0  -0.015566  -0.032964  0  3.966292  0
C  C187  1  0.61777623  0.83285243  0.78726773  1  0.001679  0  -0.08255  -0.092573  0  3.989095  0
C  C188  1  0.24207202  0.94377339  0.12616187  1  0.013602  0  -0.080532  -0.083641  0  3.973572  0
C  C189  1  0.24787480  0.93435899  0.05421543  1  -0.080855  0  -0.016784  -0.037156  0  3.975472  0
C  C190  1  0.31395319  0.93098204  0.02811436  1  0.003275  0  -0.085031  -0.095926  0  4.002266  0
C  C191  1  0.37270728  0.93173142  0.07373006  1  -0.048083  0  -0.091033  -0.133743  0  3.982982  0
C  C192  1  0.36759848  0.93923354  0.14615276  1  -0.022209  0  -0.004977  0.072392  0  3.988061  0
C  C193  1  0.30119151  0.94811458  0.17109694  1  -0.096233  0  -0.088503  -0.12972  0  3.983932  0
C  C194  1  0.64731109  0.99178808  0.14824693  1  0.010026  0  -0.090998  -0.139952  0  3.993273  0
C  C195  1  0.62310750  0.93098195  0.17840676  1  -0.049887  0  -0.001437  0.07972  0  3.996887  0
C  C196  1  0.65789954  0.86965164  0.16713502  1  -0.058929  0  -0.090241  -0.135927  0  3.987856  0
C  C197  1  0.71151838  0.86788574  0.12187126  1  -0.046379  0  -0.084727  -0.088857  0  3.984787  0
C  C198  1  0.73376586  0.92827307  0.08993857  1  -0.08842  0  -0.01912  -0.042642  0  3.979327  0
C  C199  1  0.70327824  0.99092639  0.10561034  1  -0.017834  0  -0.082851  -0.087982  0  3.989793  0
C  C200  1  0.46195045  0.87415800  0.43679104  1  -0.110241  0  -0.048193  -0.108921  0  4.111719  0
C  C201  1  0.47237986  0.88701554  0.37684503  1  -0.251858  0  -0.048314  -0.109668  0  4.11265  0
O  O202  1  0.82780485  0.97498102  0.02708218  1  -1.181171  0  -0.334331  -0.604139  0  2.226699  0
O  O203  1  0.92429256  0.66495906  0.84872685  1  -1.171828  0  -0.325139  -0.594487  0  2.179379  0
O  O204  1  0.75696906  0.81834011  0.86636456  1  -1.167556  0  -0.327964  -0.596862  0  2.186251  0
O  O205  1  0.87036925  0.75231773  0.04420027  1  -1.186025  0  -0.336474  -0.606521  0  2.233686  0
O  O206  1  0.98326455  0.77438289  0.08376144  1  -1.183862  0  -0.379341  -0.637951  0  2.304714  0
O  O207  1  0.79639024  0.87661647  0.77572782  1  -1.181385  0  -0.384018  -0.64074  0  2.333464  0
O  O208  1  0.83901896  0.70642064  0.91285253  1  -1.1778  0  -0.38908  -0.645895  0  2.368896  0
O  O209  1  0.78684018  0.86303042  0.00488775  1  -1.182784  0  -0.378563  -0.635751  0  2.305536  0
O  O210  1  0.96420218  0.79041405  0.93954863  1  -1.199347  0  -0.79184  -1.150828  0  2.129382  0
O  O211  1  0.88108484  0.90849040  0.90249528  1  -1.200477  0  -0.792941  -1.151021  0  2.133159  0
O  O212  1  0.88973125  0.79846282  0.83015945  1  -1.214721  0  -0.696052  -1.070617  0  2.369409  0
O  O213  1  0.92454971  0.88123946  0.02306456  1  -1.247456  0  -0.695753  -1.073171  0  2.361446  0
O  O214  1  0.10225670  0.77944688  0.78112126  1  -1.17886  0  -0.335587  -0.604411  0  2.229877  0
O  O215  1  0.00822522  0.08429653  0.96930430  1  -1.181819  0  -0.333762  -0.604386  0  2.211746  0
O  O216  1  0.90929287  0.83425172  0.69689687  1  -1.176486  0  -0.327857  -0.597115  0  2.192036  0
O  O217  1  0.08921131  0.73745339  0.00579058  1  -1.174933  0  -0.333509  -0.602313  0  2.226203  0
O  O218  1  0.03256877  0.91948933  0.11404616  1  -1.179221  0  -0.331489  -0.603286  0  2.20403  0
O  O219  1  0.84071741  0.01050670  0.80761541  1  -1.178905  0  -0.336372  -0.604787  0  2.229694  0
O  O220  1  0.06517351  0.99695702  0.76628479  1  -1.185067  0  -0.334404  -0.603191  0  2.225969  0
O  O221  1  0.17577735  0.94184522  0.94858209  1  -1.177658  0  -0.331042  -0.602345  0  2.203832  0
O  O222  1  0.95298796  0.97310040  0.72534116  1  -1.187014  0  -0.376893  -0.633843  0  2.305491  0
O  O223  1  0.13764937  0.88038631  0.03774250  1  -1.178417  0  -0.380287  -0.637256  0  2.328451  0
O  O224  1  0.96819838  0.74429880  0.73761748  1  -1.178287  0  -0.381369  -0.637095  0  2.334807  0
O  O225  1  0.86309166  0.05173326  0.91942512  1  -1.182334  0  -0.379163  -0.6376  0  2.305345  0
O  O226  1  0.97069405  0.00814950  0.07472981  1  -1.181161  0  -0.381193  -0.638799  0  2.325991  0
O  O227  1  0.06533643  0.69623183  0.89423642  1  -1.187225  0  -0.379048  -0.636832  0  2.299903  0
O  O228  1  0.14357177  0.89127432  0.80392483  1  -1.183176  0  -0.38067  -0.639284  0  2.309357  0
O  O229  1  0.09796116  0.04628645  0.90879879  1  -1.182982  0  -0.379019  -0.637456  0  2.322217  0
O  O230  1  0.02465241  0.93391424  0.96325823  1  -1.198883  0  -0.791609  -1.152768  0  2.131045  0
O  O231  1  0.99935897  0.87241446  0.82063342  1  -1.200436  0  -0.791375  -1.150623  0  2.131631  0
O  O232  1  0.97113851  0.99281318  0.86233925  1  -1.233399  0  -0.694102  -1.070355  0  2.358346  0
O  O233  1  0.08451820  0.83359026  0.91123756  1  -1.252802  0  -0.694518  -1.072163  0  2.355313  0
