# generated using pymatgen
data_SmH4C12(O4F3)2
_symmetry_space_group_name_H-M   'P 1'
_cell_length_a   8.80748358
_cell_length_b   8.80722818
_cell_length_c   11.51169744
_cell_angle_alpha   105.92891255
_cell_angle_beta   111.78698168
_cell_angle_gamma   98.96621986
_symmetry_Int_Tables_number   1
_chemical_formula_structural   SmH4C12(O4F3)2
_chemical_formula_sum   'Sm2 H8 C24 O16 F12'
_cell_volume   763.40345943
_cell_formula_units_Z   2
loop_
 _symmetry_equiv_pos_site_id
 _symmetry_equiv_pos_as_xyz
  1  'x, y, z'
loop_
 _atom_site_type_symbol
 _atom_site_label
 _atom_site_symmetry_multiplicity
 _atom_site_fract_x
 _atom_site_fract_y
 _atom_site_fract_z
 _atom_site_occupancy
 _atom_site_hle17_bader_spin_density
 _atom_site_hle17_ddec_charge
 _atom_site_hle17_ddec_spin_density
 _atom_site_hle17_ddec_sum_bond_order
 _atom_site_hle17_magmom
 _atom_site_hse06_10hf_bader_spin_density
 _atom_site_hse06_10hf_ddec_charge
 _atom_site_hse06_10hf_ddec_spin_density
 _atom_site_hse06_10hf_ddec_sum_bond_order
 _atom_site_hse06_10hf_magmom
 _atom_site_hse06_bader_spin_density
 _atom_site_hse06_ddec_charge
 _atom_site_hse06_ddec_spin_density
 _atom_site_hse06_ddec_sum_bond_order
 _atom_site_hse06_magmom
 _atom_site_pbe_bader_spin_density
 _atom_site_pbe_cm5_charge
 _atom_site_pbe_ddec_charge
 _atom_site_pbe_ddec_spin_density
 _atom_site_pbe_ddec_sum_bond_order
 _atom_site_pbe_magmom
Sm  Sm0  1  0.64505853  0.83799906  0.48331322  1  0  2.299753  0  1.558303  0  0  2.213139  0  1.893133  0  0  2.255506  0  1.853871  0  0  1.493072  2.111944  0  2.050396  0
Sm  Sm1  1  0.35494301  0.16200283  0.51669079  1  0  2.299715  0  1.558398  0  0  2.213096  0  1.893245  0  0  2.255462  0  1.853981  0  0  1.493054  2.111904  0  2.050498  0
H  H2  1  0.84113289  0.85444201  0.31073640  1  0  0.461749  0  0.7928  0  0  0.436352  0  0.853704  0  0  0.445734  0  0.839743  0  0  0.32618  0.429388  0  0.863865  0
H  H3  1  0.54326106  0.53061770  0.68922560  1  0  0.462732  0  0.792053  0  0  0.437356  0  0.852343  0  0  0.446731  0  0.838403  0  0  0.326746  0.430351  0  0.86257  0
H  H4  1  0.15887026  0.14556114  0.68926660  1  0  0.46172  0  0.792832  0  0  0.436325  0  0.853737  0  0  0.445706  0  0.839778  0  0  0.326184  0.429361  0  0.863898  0
H  H5  1  0.45674855  0.46939039  0.31077598  1  0  0.462791  0  0.791979  0  0  0.437415  0  0.852264  0  0  0.446789  0  0.838326  0  0  0.326789  0.430411  0  0.862492  0
H  H6  1  0.97731790  0.85206192  0.44164886  1  0  0.440974  0  0.84633  0  0  0.412946  0  0.909999  0  0  0.422748  0  0.895549  0  0  0.309004  0.405665  0  0.9205  0
H  H7  1  0.41036214  0.53597227  0.55812676  1  0  0.440734  0  0.845408  0  0  0.412609  0  0.910208  0  0  0.422438  0  0.895753  0  0  0.308527  0.405318  0  0.920698  0
H  H8  1  0.02268242  0.14794371  0.55835652  1  0  0.44096  0  0.846347  0  0  0.412957  0  0.909989  0  0  0.422761  0  0.895534  0  0  0.308988  0.405676  0  0.920491  0
H  H9  1  0.58964224  0.46402720  0.44187314  1  0  0.44076  0  0.845421  0  0  0.412609  0  0.910225  0  0  0.422437  0  0.895773  0  0  0.308517  0.405318  0  0.920715  0
C  C10  1  0.25372295  0.75387539  0.49994253  1  0  0.775363  0  3.820572  0  0  0.724329  0  4.119304  0  0  0.760372  0  4.10464  0  0  0.250472  0.699183  0  4.125463  0
C  C11  1  0.74626851  0.24611838  0.50004725  1  0  0.775308  0  3.820831  0  0  0.724334  0  4.119467  0  0  0.760377  0  4.104805  0  0  0.250499  0.699186  0  4.125628  0
C  C12  1  0.12229683  0.62252942  0.49996428  1  0  -0.232708  0  3.790758  0  0  -0.233156  0  4.049939  0  0  -0.23896  0  4.06449  0  0  -0.025895  -0.230145  0  4.042342  0
C  C13  1  0.87769099  0.37746440  0.50002624  1  0  -0.232758  0  3.790715  0  0  -0.233196  0  4.049921  0  0  -0.239  0  4.06447  0  0  -0.025886  -0.230179  0  4.042317  0
C  C14  1  0.13132084  0.60965273  0.61978351  1  0  0.208353  0  3.807483  0  0  0.173627  0  4.107659  0  0  0.183407  0  4.115261  0  0  0.095582  0.166561  0  4.103682  0
C  C15  1  0.98964037  0.51163783  0.38014982  1  0  0.205073  0  3.808078  0  0  0.170329  0  4.108351  0  0  0.180107  0  4.115964  0  0  0.09375  0.163298  0  4.104371  0
C  C16  1  0.86866779  0.39034355  0.38020779  1  0  0.20846  0  3.80742  0  0  0.173694  0  4.107616  0  0  0.183474  0  4.115219  0  0  0.095563  0.166623  0  4.103647  0
C  C17  1  0.01035109  0.48835595  0.61983997  1  0  0.205204  0  3.808113  0  0  0.17041  0  4.108436  0  0  0.180189  0  4.116049  0  0  0.093788  0.163379  0  4.104448  0
C  C18  1  0.61669560  0.14112329  0.75729816  1  0  0.74674  0  3.849554  0  0  0.695023  0  4.158499  0  0  0.730816  0  4.144216  0  0  0.229941  0.671047  0  4.159462  0
C  C19  1  0.38331158  0.85888851  0.24270620  1  0  0.746904  0  3.849675  0  0  0.695233  0  4.158531  0  0  0.731039  0  4.144233  0  0  0.230015  0.67125  0  4.159503  0
C  C20  1  0.74738801  0.13975157  0.88658688  1  0  -0.174548  0  3.71334  0  0  -0.174289  0  3.970779  0  0  -0.178044  0  3.984268  0  0  -0.006855  -0.172669  0  3.96361  0
C  C21  1  0.25261597  0.86024656  0.11341607  1  0  -0.174766  0  3.713455  0  0  -0.174506  0  3.970855  0  0  -0.178268  0  3.98434  0  0  -0.006867  -0.172873  0  3.963686  0
C  C22  1  0.70569005  0.03652642  0.94930171  1  0  0.197618  0  3.783122  0  0  0.16023  0  4.086342  0  0  0.168554  0  4.094123  0  0  0.093624  0.154009  0  4.082242  0
C  C23  1  0.08672042  0.75582020  0.05072093  1  0  0.198188  0  3.785226  0  0  0.160626  0  4.088713  0  0  0.168952  0  4.096531  0  0  0.093705  0.154434  0  4.084509  0
C  C24  1  0.29430704  0.96347692  0.05069878  1  0  0.197599  0  3.783072  0  0  0.160239  0  4.086218  0  0  0.168566  0  4.094003  0  0  0.093523  0.15401  0  4.082116  0
C  C25  1  0.91329448  0.24417393  0.94928329  1  0  0.197791  0  3.785458  0  0  0.160259  0  4.088868  0  0  0.168575  0  4.09668  0  0  0.093551  0.154073  0  4.084663  0
C  C26  1  0.82327087  0.03994973  0.07161192  1  0  0.215235  0  3.771238  0  0  0.178437  0  4.07787  0  0  0.189352  0  4.08691  0  0  0.098978  0.170648  0  4.072758  0
C  C27  1  0.96794904  0.75097234  0.92833588  1  0  0.213367  0  3.770214  0  0  0.176427  0  4.076945  0  0  0.187337  0  4.086016  0  0  0.099402  0.16877  0  4.071638  0
C  C28  1  0.17672179  0.96005119  0.92838852  1  0  0.2151  0  3.771367  0  0  0.178292  0  4.077919  0  0  0.189195  0  4.08697  0  0  0.098885  0.170509  0  4.072779  0
C  C29  1  0.03205655  0.24902689  0.07167038  1  0  0.213461  0  3.770332  0  0  0.176606  0  4.076966  0  0  0.18754  0  4.086008  0  0  0.099458  0.168949  0  4.071681  0
C  C30  1  0.99002278  0.14846893  0.13799398  1  0  -0.235702  0  3.746749  0  0  -0.237747  0  4.012777  0  0  -0.247874  0  4.032767  0  0  -0.030948  -0.231759  0  4.000399  0
C  C31  1  0.00997514  0.85152924  0.86201077  1  0  -0.235761  0  3.746962  0  0  -0.237572  0  4.012558  0  0  -0.247683  0  4.032549  0  0  -0.030879  -0.231667  0  4.000401  0
C  C32  1  0.11331064  0.16074623  0.27358425  1  0  0.660433  0  3.942163  0  0  0.614613  0  4.249597  0  0  0.647704  0  4.242882  0  0  0.184228  0.593765  0  4.245067  0
C  C33  1  0.88667840  0.83924344  0.72641696  1  0  0.660398  0  3.942133  0  0  0.614543  0  4.249598  0  0  0.647634  0  4.24288  0  0  0.184205  0.593693  0  4.245046  0
O  O34  1  0.38300872  0.71431538  0.49292765  1  0  -0.703703  0  2.034612  0  0  -0.660227  0  2.277656  0  0  -0.685137  0  2.265157  0  0  -0.35553  -0.633949  0  2.287659  0
O  O35  1  0.22134092  0.89024499  0.50694360  1  0  -0.703522  0  2.032581  0  0  -0.660071  0  2.275589  0  0  -0.684968  0  2.263104  0  0  -0.355568  -0.633762  0  2.285577  0
O  O36  1  0.61698234  0.28567711  0.50706347  1  0  -0.703708  0  2.034711  0  0  -0.660246  0  2.277735  0  0  -0.685155  0  2.265235  0  0  -0.355574  -0.633968  0  2.287736  0
O  O37  1  0.77865416  0.10975591  0.49305577  1  0  -0.70346  0  2.032742  0  0  -0.660052  0  2.275745  0  0  -0.68495  0  2.263263  0  0  -0.355553  -0.633743  0  2.285734  0
O  O38  1  0.85287745  0.81506622  0.38426025  1  0  -0.892989  0  1.826025  0  0  -0.856546  0  2.011481  0  0  -0.873251  0  1.981174  0  0  -0.620523  -0.835453  0  2.037748  0
O  O39  1  0.43062348  0.46875381  0.61541210  1  0  -0.893533  0  1.82395  0  0  -0.856971  0  2.010911  0  0  -0.873718  0  1.980483  0  0  -0.62077  -0.83575  0  2.03726  0
O  O40  1  0.14712410  0.18493572  0.61574203  1  0  -0.892947  0  1.826086  0  0  -0.856524  0  2.01145  0  0  -0.873227  0  1.981144  0  0  -0.620502  -0.83543  0  2.037715  0
O  O41  1  0.56938332  0.53124926  0.38459104  1  0  -0.893635  0  1.823905  0  0  -0.857049  0  2.010862  0  0  -0.873795  0  1.980432  0  0  -0.620811  -0.835828  0  2.03721  0
O  O42  1  0.60130113  0.04420489  0.64552748  1  0  -0.812606  0  2.139672  0  0  -0.774259  0  2.402871  0  0  -0.800018  0  2.391591  0  0  -0.410652  -0.739979  0  2.4098  0
O  O43  1  0.39869878  0.95580332  0.35447577  1  0  -0.812549  0  2.139526  0  0  -0.774244  0  2.402759  0  0  -0.799984  0  2.391424  0  0  -0.410644  -0.739951  0  2.409665  0
O  O44  1  0.52657898  0.23811162  0.76366839  1  0  -0.630811  0  1.868182  0  0  -0.594117  0  2.081767  0  0  -0.617027  0  2.071132  0  0  -0.344191  -0.570745  0  2.089929  0
O  O45  1  0.47344110  0.76191371  0.23633658  1  0  -0.63092  0  1.868253  0  0  -0.59424  0  2.081803  0  0  -0.617155  0  2.071159  0  0  -0.344245  -0.570867  0  2.089969  0
O  O46  1  0.06794753  0.06958484  0.33123945  1  0  -0.68912  0  1.973184  0  0  -0.653623  0  2.215533  0  0  -0.676366  0  2.206052  0  0  -0.38426  -0.630614  0  2.221356  0
O  O47  1  0.73752461  0.73698849  0.66920777  1  0  -0.68989  0  1.974085  0  0  -0.654391  0  2.216391  0  0  -0.67713  0  2.206866  0  0  -0.385496  -0.631406  0  2.222281  0
O  O48  1  0.93204920  0.93040232  0.66875811  1  0  -0.68913  0  1.973073  0  0  -0.653673  0  2.215459  0  0  -0.676418  0  2.205978  0  0  -0.384286  -0.630651  0  2.221283  0
O  O49  1  0.26246359  0.26301353  0.33079950  1  0  -0.689964  0  1.974097  0  0  -0.654508  0  2.216478  0  0  -0.677251  0  2.206957  0  0  -0.385519  -0.63153  0  2.222367  0
F  F50  1  0.54810631  0.92967152  0.89024867  1  0  -0.14384  0  1.260115  0  0  -0.102911  0  1.435029  0  0  -0.110353  0  1.423575  0  0  -0.078594  -0.097635  0  1.44318  0
F  F51  1  0.03870860  0.65733955  0.10978549  1  0  -0.143739  0  1.261133  0  0  -0.102797  0  1.436332  0  0  -0.11024  0  1.424882  0  0  -0.078656  -0.097519  0  1.444446  0
F  F52  1  0.45188550  0.07034205  0.10974833  1  0  -0.143809  0  1.26011  0  0  -0.102895  0  1.435  0  0  -0.110337  0  1.423547  0  0  -0.078539  -0.097617  0  1.443154  0
F  F53  1  0.96130875  0.34264344  0.89021340  1  0  -0.143604  0  1.26109  0  0  -0.102662  0  1.436265  0  0  -0.110104  0  1.424816  0  0  -0.078586  -0.097386  0  1.444374  0
F  F54  1  0.76858709  0.93406391  0.12287271  1  0  -0.144038  0  1.242481  0  0  -0.099474  0  1.410985  0  0  -0.107099  0  1.399509  0  0  -0.073646  -0.094228  0  1.419178  0
F  F55  1  0.81097170  0.64484883  0.87709826  1  0  -0.142236  0  1.242527  0  0  -0.097688  0  1.411031  0  0  -0.1053  0  1.399587  0  0  -0.073066  -0.092398  0  1.419173  0
F  F56  1  0.23140598  0.06593448  0.87712813  1  0  -0.14397  0  1.242509  0  0  -0.099432  0  1.41101  0  0  -0.107054  0  1.399538  0  0  -0.073612  -0.09418  0  1.419198  0
F  F57  1  0.18903916  0.35514396  0.12291061  1  0  -0.142294  0  1.242579  0  0  -0.097748  0  1.411047  0  0  -0.105366  0  1.399596  0  0  -0.073072  -0.092466  0  1.419193  0
F  F58  1  0.25966148  0.71479176  0.73747669  1  0  -0.146739  0  1.266305  0  0  -0.104017  0  1.441752  0  0  -0.11227  0  1.431164  0  0  -0.079519  -0.098296  0  1.449495  0
F  F59  1  0.97690984  0.52231915  0.26238389  1  0  -0.146326  0  1.266653  0  0  -0.103564  0  1.442238  0  0  -0.111825  0  1.431653  0  0  -0.07897  -0.097853  0  1.44995  0
F  F60  1  0.74032998  0.28520190  0.26251654  1  0  -0.146814  0  1.26633  0  0  -0.10408  0  1.441787  0  0  -0.112333  0  1.431199  0  0  -0.079546  -0.098364  0  1.449536  0
F  F61  1  0.02308446  0.47767207  0.73760610  1  0  -0.146344  0  1.266745  0  0  -0.10358  0  1.442348  0  0  -0.111839  0  1.431764  0  0  -0.078966  -0.097864  0  1.450057  0
