# generated using pymatgen
data_ZnH9C5NO3
_symmetry_space_group_name_H-M   'P 1'
_cell_length_a   6.57383844
_cell_length_b   7.57216815
_cell_length_c   12.98132349
_cell_angle_alpha   90.00024526
_cell_angle_beta   89.99993754
_cell_angle_gamma   106.98930622
_symmetry_Int_Tables_number   1
_chemical_formula_structural   ZnH9C5NO3
_chemical_formula_sum   'Zn4 H36 C20 N4 O12'
_cell_volume   617.98699748
_cell_formula_units_Z   4
loop_
 _symmetry_equiv_pos_site_id
 _symmetry_equiv_pos_as_xyz
  1  'x, y, z'
loop_
 _atom_site_type_symbol
 _atom_site_label
 _atom_site_symmetry_multiplicity
 _atom_site_fract_x
 _atom_site_fract_y
 _atom_site_fract_z
 _atom_site_occupancy
 _atom_site_hle17_bader_spin_density
 _atom_site_hle17_ddec_charge
 _atom_site_hle17_ddec_spin_density
 _atom_site_hle17_ddec_sum_bond_order
 _atom_site_hle17_magmom
 _atom_site_hse06_10hf_bader_charge
 _atom_site_hse06_10hf_bader_spin_density
 _atom_site_hse06_10hf_ddec_charge
 _atom_site_hse06_10hf_ddec_spin_density
 _atom_site_hse06_10hf_ddec_sum_bond_order
 _atom_site_hse06_10hf_magmom
 _atom_site_hse06_bader_spin_density
 _atom_site_hse06_ddec_charge
 _atom_site_hse06_ddec_spin_density
 _atom_site_hse06_ddec_sum_bond_order
 _atom_site_hse06_magmom
 _atom_site_pbe_bader_spin_density
 _atom_site_pbe_cm5_charge
 _atom_site_pbe_ddec_charge
 _atom_site_pbe_ddec_spin_density
 _atom_site_pbe_ddec_sum_bond_order
 _atom_site_pbe_magmom
Zn  Zn0  1  0.11095760  0.55967274  0.78465641  1  0  1.094909  0  1.823924  0  1.27417  0  0.920204  0  2.291064  0  0  0.965007  0  2.233762  0  0  0.658847  0.888291  0  2.331082  0
Zn  Zn1  1  0.38903972  0.44032351  0.28465631  1  0  1.094868  0  1.824008  0  1.274194  0  0.92017  0  2.291143  0  0  0.964992  0  2.233847  0  0  0.658841  0.888259  0  2.331156  0
Zn  Zn2  1  0.88904404  0.44033538  0.21534197  1  0  1.09491  0  1.823791  0  1.274171  0  0.920196  0  2.290937  0  0  0.965  0  2.233632  0  0  0.65882  0.888289  0  2.330951  0
Zn  Zn3  1  0.61095198  0.55966533  0.71534361  1  0  1.094976  0  1.823801  0  1.274209  0  0.920262  0  2.290951  0  0  0.965064  0  2.233647  0  0  0.658848  0.888354  0  2.33097  0
H  H4  1  0.43703489  0.82778668  0.90674358  1  0  0.079247  0  0.946487  0  0.08728  0  0.091919  0  1.013492  0  0  0.093435  0  1.012776  0  0  0.10615  0.090738  0  1.014109  0
H  H5  1  0.06296096  0.17221051  0.40674224  1  0  0.0793  0  0.946471  0  0.087245  0  0.091912  0  1.013532  0  0  0.093428  0  1.012821  0  0  0.106152  0.090734  0  1.014147  0
H  H6  1  0.56296628  0.17221589  0.09325480  1  0  0.079233  0  0.946521  0  0.087263  0  0.091911  0  1.013518  0  0  0.093431  0  1.012793  0  0  0.106151  0.090733  0  1.014135  0
H  H7  1  0.93703323  0.82778107  0.59325614  1  0  0.079203  0  0.946546  0  0.087256  0  0.091874  0  1.013564  0  0  0.093392  0  1.012841  0  0  0.106136  0.090691  0  1.014188  0
H  H8  1  0.30896945  0.89479275  0.01494480  1  0  0.077138  0  0.94745  0  0.083235  0  0.089752  0  1.015558  0  0  0.091519  0  1.014584  0  0  0.102233  0.088434  0  1.016335  0
H  H9  1  0.19102672  0.10520290  0.51494295  1  0  0.077151  0  0.947408  0  0.083286  0  0.089781  0  1.015469  0  0  0.091549  0  1.014494  0  0  0.102242  0.088456  0  1.016263  0
H  H10  1  0.69103271  0.10521258  0.98505666  1  0  0.077124  0  0.947448  0  0.083282  0  0.089721  0  1.015569  0  0  0.091483  0  1.014602  0  0  0.102215  0.088402  0  1.016346  0
H  H11  1  0.80896902  0.89478449  0.48505620  1  0  0.077126  0  0.947462  0  0.083285  0  0.089719  0  1.015591  0  0  0.091484  0  1.014614  0  0  0.102207  0.0884  0  1.016365  0
H  H12  1  0.26866482  0.59947822  0.07734717  1  0  0.071795  0  0.942927  0  0.057476  0  0.087029  0  1.010209  0  0  0.088565  0  1.008448  0  0  0.105305  0.085734  0  1.011711  0
H  H13  1  0.23133286  0.40052204  0.57734680  1  0  0.071808  0  0.942939  0  0.057486  0  0.087051  0  1.010201  0  0  0.088582  0  1.008449  0  0  0.105312  0.085757  0  1.011703  0
H  H14  1  0.73133681  0.40052990  0.92265197  1  0  0.071856  0  0.942895  0  0.057504  0  0.087071  0  1.010167  0  0  0.088606  0  1.00841  0  0  0.105319  0.085775  0  1.011673  0
H  H15  1  0.76866134  0.59946954  0.42265234  1  0  0.071871  0  0.942887  0  0.057571  0  0.087078  0  1.010159  0  0  0.088611  0  1.008406  0  0  0.105321  0.085782  0  1.011663  0
H  H16  1  0.36730128  0.52360754  0.96195331  1  0  0.082933  0  0.941975  0  0.063088  0  0.101055  0  1.000314  0  0  0.101638  0  1.000666  0  0  0.110105  0.100582  0  1.000051  0
H  H17  1  0.13269559  0.47639284  0.46195345  1  0  0.082995  0  0.941901  0  0.062705  0  0.101076  0  1.000281  0  0  0.101661  0  1.000631  0  0  0.110105  0.100603  0  1.000017  0
H  H18  1  0.63269786  0.47639785  0.03804584  1  0  0.082924  0  0.942011  0  0.062956  0  0.101027  0  1.000337  0  0  0.101612  0  1.000688  0  0  0.110088  0.100556  0  1.000072  0
H  H19  1  0.86730061  0.52360010  0.53804647  1  0  0.082938  0  0.94201  0  0.063007  0  0.101033  0  1.000338  0  0  0.101618  0  1.000688  0  0  0.110088  0.10056  0  1.000076  0
H  H20  1  0.85149112  0.73908918  0.93794048  1  0  0.093801  0  0.949559  0  0.09071  0  0.109916  0  1.007708  0  0  0.111592  0  1.006812  0  0  0.110532  0.108598  0  1.008534  0
H  H21  1  0.64850553  0.26091040  0.43794008  1  0  0.093832  0  0.949516  0  0.090716  0  0.109942  0  1.007668  0  0  0.111615  0  1.006773  0  0  0.110533  0.108625  0  1.008494  0
H  H22  1  0.14850901  0.26091897  0.06205944  1  0  0.093851  0  0.949539  0  0.090787  0  0.10993  0  1.007715  0  0  0.111622  0  1.006782  0  0  0.11055  0.108614  0  1.008541  0
H  H23  1  0.35149018  0.73908115  0.56206061  1  0  0.09385  0  0.949552  0  0.090783  0  0.109926  0  1.00773  0  0  0.111614  0  1.006813  0  0  0.110538  0.108613  0  1.008556  0
H  H24  1  0.96437028  0.72590871  0.06226392  1  0  0.070826  0  0.942975  0  0.069791  0  0.084468  0  1.014494  0  0  0.085798  0  1.013272  0  0  0.10424  0.083363  0  1.015628  0
H  H25  1  0.53562366  0.27408950  0.56226335  1  0  0.070843  0  0.94297  0  0.069798  0  0.084482  0  1.014486  0  0  0.085813  0  1.013265  0  0  0.104243  0.083376  0  1.015625  0
H  H26  1  0.03563037  0.27409665  0.93773677  1  0  0.070803  0  0.942996  0  0.069892  0  0.084452  0  1.014496  0  0  0.085781  0  1.013274  0  0  0.104237  0.083346  0  1.015633  0
H  H27  1  0.46436800  0.72590351  0.43773734  1  0  0.070827  0  0.942984  0  0.069907  0  0.08447  0  1.014488  0  0  0.085799  0  1.013267  0  0  0.104245  0.083365  0  1.015626  0
H  H28  1  0.32811444  0.12095771  0.88657607  1  0  0.119354  0  0.923158  0  0.061528  0  0.139209  0  0.975683  0  0  0.140985  0  0.975848  0  0  0.107719  0.137917  0  0.975703  0
H  H29  1  0.17187684  0.87904358  0.38656564  1  0  0.119383  0  0.923119  0  0.061786  0  0.139254  0  0.975631  0  0  0.141036  0  0.975785  0  0  0.10775  0.137918  0  0.975698  0
H  H30  1  0.67188821  0.87904900  0.11342616  1  0  0.119353  0  0.923226  0  0.061754  0  0.139231  0  0.975737  0  0  0.141009  0  0.975903  0  0  0.107744  0.137947  0  0.97574  0
H  H31  1  0.82811029  0.12094951  0.61342581  1  0  0.119397  0  0.923192  0  0.061766  0  0.139249  0  0.975713  0  0  0.141028  0  0.975877  0  0  0.107743  0.137957  0  0.975725  0
H  H32  1  0.05977012  0.99031441  0.88866869  1  0  0.114235  0  0.947803  0  0.051684  0  0.128246  0  1.011223  0  0  0.130528  0  1.010523  0  0  0.104961  0.126605  0  1.011846  0
H  H33  1  0.44022372  0.00968130  0.38866827  1  0  0.114253  0  0.94775  0  0.051736  0  0.12826  0  1.011214  0  0  0.130542  0  1.010514  0  0  0.104978  0.126615  0  1.011832  0
H  H34  1  0.94023250  0.00969647  0.11133354  1  0  0.114255  0  0.947792  0  0.051801  0  0.128299  0  1.011157  0  0  0.130582  0  1.010454  0  0  0.104963  0.126657  0  1.011785  0
H  H35  1  0.55976702  0.99030062  0.61133550  1  0  0.114237  0  0.947827  0  0.051815  0  0.128302  0  1.011151  0  0  0.130586  0  1.010449  0  0  0.104967  0.126655  0  1.011782  0
H  H36  1  0.78472929  0.30771757  0.75278164  1  0  0.401637  0  0.924003  0  0.650196  0  0.367285  0  0.995218  0  0  0.378877  0  0.978662  0  0  0.264586  0.359046  0  1.006985  0
H  H37  1  0.71526724  0.69228480  0.25278305  1  0  0.401638  0  0.92399  0  0.650197  0  0.367293  0  0.995182  0  0  0.378885  0  0.978627  0  0  0.264592  0.359055  0  1.006948  0
H  H38  1  0.21529607  0.69228458  0.24721673  1  0  0.401652  0  0.923989  0  0.65019  0  0.367309  0  0.995203  0  0  0.378901  0  0.978649  0  0  0.264592  0.359073  0  1.006964  0
H  H39  1  0.28471733  0.30771390  0.74721764  1  0  0.401621  0  0.924034  0  0.650205  0  0.367259  0  0.995273  0  0  0.378851  0  0.978718  0  0  0.264546  0.359023  0  1.007036  0
C  C40  1  0.22331907  0.96121192  0.75216019  1  0  0.715093  0  3.820305  0  1.585644  0  0.662323  0  4.12695  0  0  0.695582  0  4.120477  0  0  0.213433  0.639709  0  4.130613  0
C  C41  1  0.27669224  0.03879775  0.25215608  1  0  0.714913  0  3.820409  0  1.585485  0  0.66235  0  4.126791  0  0  0.695621  0  4.120307  0  0  0.213541  0.639731  0  4.130444  0
C  C42  1  0.77667495  0.03880467  0.24783896  1  0  0.715149  0  3.819966  0  1.585542  0  0.66242  0  4.126571  0  0  0.695677  0  4.120095  0  0  0.213464  0.6398  0  4.130238  0
C  C43  1  0.72332914  0.96119752  0.74784076  1  0  0.715192  0  3.819977  0  1.585409  0  0.662568  0  4.126405  0  0  0.695828  0  4.119925  0  0  0.213511  0.639947  0  4.130075  0
C  C44  1  0.28556743  0.84333054  0.93503352  1  0  -0.005126  0  3.625629  0  0.219681  0  -0.061947  0  3.883569  0  0  -0.058689  0  3.895889  0  0  -0.079929  -0.063948  0  3.874985  0
C  C45  1  0.21443045  0.15666822  0.43503051  1  0  -0.00521  0  3.625718  0  0.219627  0  -0.061977  0  3.883708  0  0  -0.058713  0  3.896006  0  0  -0.079911  -0.063989  0  3.875111  0
C  C46  1  0.71443522  0.15667617  0.06496717  1  0  -0.005046  0  3.62558  0  0.219499  0  -0.061853  0  3.883568  0  0  -0.058598  0  3.895901  0  0  -0.079861  -0.063861  0  3.874988  0
C  C47  1  0.78556477  0.84332195  0.56496710  1  0  -0.005014  0  3.62562  0  0.21964  0  -0.061841  0  3.883586  0  0  -0.058593  0  3.895942  0  0  -0.079848  -0.063845  0  3.874987  0
C  C48  1  0.22394540  0.53450645  0.00131326  1  0  -0.039712  0  3.64955  0  0.266233  0  -0.098678  0  3.906243  0  0  -0.095624  0  3.918194  0  0  -0.07521  -0.100564  0  3.897994  0
C  C49  1  0.27605122  0.46549465  0.50131379  1  0  -0.039809  0  3.649553  0  0.266748  0  -0.098743  0  3.906241  0  0  -0.095692  0  3.918206  0  0  -0.075202  -0.100629  0  3.897997  0
C  C50  1  0.77605423  0.46550032  0.99868743  1  0  -0.03983  0  3.649611  0  0.266368  0  -0.09869  0  3.906181  0  0  -0.095641  0  3.918151  0  0  -0.075191  -0.100575  0  3.897931  0
C  C51  1  0.72394399  0.53449552  0.49868690  1  0  -0.039778  0  3.649634  0  0.266295  0  -0.098605  0  3.906137  0  0  -0.095555  0  3.9181  0  0  -0.075117  -0.100493  0  3.897888  0
C  C52  1  0.92785731  0.65802190  0.98640306  1  0  -0.040981  0  3.632542  0  0.232443  0  -0.099597  0  3.887494  0  0  -0.097369  0  3.900092  0  0  -0.075882  -0.100875  0  3.878603  0
C  C53  1  0.57213886  0.34197666  0.48640213  1  0  -0.041078  0  3.632577  0  0.232405  0  -0.099698  0  3.887527  0  0  -0.097471  0  3.900133  0  0  -0.07593  -0.100968  0  3.878619  0
C  C54  1  0.07214031  0.34198351  0.01359763  1  0  -0.041093  0  3.632452  0  0.232339  0  -0.099644  0  3.887391  0  0  -0.097411  0  3.89998  0  0  -0.075962  -0.10091  0  3.878477  0
C  C55  1  0.42785685  0.65801489  0.51359779  1  0  -0.041106  0  3.632607  0  0.232134  0  -0.099647  0  3.88752  0  0  -0.097421  0  3.900119  0  0  -0.075953  -0.100902  0  3.878574  0
C  C56  1  0.22015179  0.98366247  0.86874232  1  0  -0.303454  0  3.673995  0  -0.007276  0  -0.346059  0  3.925634  0  0  -0.352469  0  3.934486  0  0  -0.169163  -0.341704  0  3.919588  0
C  C57  1  0.27984451  0.01633999  0.36873969  1  0  -0.303372  0  3.673905  0  -0.0075  0  -0.346096  0  3.925592  0  0  -0.352504  0  3.93444  0  0  -0.16924  -0.341693  0  3.919523  0
C  C58  1  0.77984632  0.01634432  0.13125837  1  0  -0.303467  0  3.673879  0  -0.007499  0  -0.346162  0  3.92566  0  0  -0.352574  0  3.934508  0  0  -0.169154  -0.341804  0  3.919602  0
C  C59  1  0.72015370  0.98365430  0.63126023  1  0  -0.303535  0  3.67387  0  -0.007603  0  -0.346199  0  3.925508  0  0  -0.352614  0  3.934355  0  0  -0.169186  -0.341831  0  3.919442  0
N  N60  1  0.13083194  0.65431572  0.93765787  1  0  -0.247454  0  3.256278  0  -1.057566  0  -0.138511  0  3.499519  0  0  -0.157543  0  3.518711  0  0  -0.346035  -0.125358  0  3.486028  0
N  N61  1  0.36916492  0.34568447  0.43765755  1  0  -0.247373  0  3.256329  0  -1.057577  0  -0.138436  0  3.499537  0  0  -0.157464  0  3.518729  0  0  -0.346047  -0.125283  0  3.486046  0
N  N62  1  0.86916618  0.34569107  0.06234359  1  0  -0.247384  0  3.256251  0  -1.057599  0  -0.138479  0  3.49951  0  0  -0.157513  0  3.518703  0  0  -0.346039  -0.125326  0  3.48602  0
N  N63  1  0.63083279  0.65430844  0.56234237  1  0  -0.247484  0  3.256346  0  -1.057539  0  -0.138579  0  3.49959  0  0  -0.157611  0  3.518782  0  0  -0.34608  -0.125426  0  3.486105  0
O  O64  1  0.21092049  0.80206940  0.71257389  1  0  -0.675742  0  2.052203  0  -1.218592  0  -0.593858  0  2.325212  0  0  -0.622415  0  2.309583  0  0  -0.331526  -0.573968  0  2.335452  0
O  O65  1  0.28907275  0.19792778  0.21257094  1  0  -0.675708  0  2.052476  0  -1.218546  0  -0.593902  0  2.325403  0  0  -0.622508  0  2.309814  0  0  -0.331561  -0.574011  0  2.335646  0
O  O66  1  0.78907361  0.19793468  0.28742757  1  0  -0.675814  0  2.052259  0  -1.218668  0  -0.593942  0  2.325278  0  0  -0.622468  0  2.309612  0  0  -0.331539  -0.574055  0  2.335522  0
O  O67  1  0.71092447  0.80206375  0.78742744  1  0  -0.675817  0  2.052218  0  -1.218734  0  -0.594016  0  2.325246  0  0  -0.622535  0  2.309557  0  0  -0.331581  -0.57413  0  2.335494  0
O  O68  1  0.83346441  0.43899582  0.72815179  1  0  -0.987344  0  1.863466  0  -1.288741  0  -0.882013  0  2.175002  0  0  -0.913501  0  2.132677  0  0  -0.596813  -0.859372  0  2.204073  0
O  O69  1  0.66653210  0.56100636  0.22815367  1  0  -0.987316  0  1.863424  0  -1.288765  0  -0.88198  0  2.174963  0  0  -0.913469  0  2.132635  0  0  -0.596819  -0.859354  0  2.204062  0
O  O70  1  0.16653876  0.56100810  0.27184890  1  0  -0.987364  0  1.863421  0  -1.288733  0  -0.882018  0  2.174863  0  0  -0.913509  0  2.132536  0  0  -0.596794  -0.859384  0  2.203946  0
O  O71  1  0.33346052  0.43899358  0.77184856  1  0  -0.987363  0  1.863452  0  -1.288774  0  -0.882022  0  2.174967  0  0  -0.913511  0  2.13264  0  0  -0.596787  -0.859381  0  2.204042  0
O  O72  1  0.23587508  0.09996915  0.69627344  1  0  -0.621093  0  1.955111  0  -1.220978  0  -0.560705  0  2.183364  0  0  -0.585888  0  2.174488  0  0  -0.313527  -0.543197  0  2.189134  0
O  O73  1  0.26417449  0.90004081  0.19627071  1  0  -0.621086  0  1.954991  0  -1.221007  0  -0.560775  0  2.183165  0  0  -0.585956  0  2.174286  0  0  -0.313629  -0.543264  0  2.188931  0
O  O74  1  0.76411146  0.90003507  0.30373033  1  0  -0.621156  0  1.954712  0  -1.220805  0  -0.560767  0  2.182902  0  0  -0.58596  0  2.174044  0  0  -0.313593  -0.543254  0  2.188667  0
O  O75  1  0.73589568  0.09996750  0.80372921  1  0  -0.621195  0  1.954888  0  -1.220708  0  -0.560848  0  2.183033  0  0  -0.586043  0  2.174174  0  0  -0.313588  -0.543331  0  2.188796  0
