# generated using pymatgen
data_CdH15C20S2N5O6
_symmetry_space_group_name_H-M   'P 1'
_cell_length_a   7.20724378
_cell_length_b   11.53819604
_cell_length_c   14.82127741
_cell_angle_alpha   108.94793462
_cell_angle_beta   103.22074808
_cell_angle_gamma   92.89410355
_symmetry_Int_Tables_number   1
_chemical_formula_structural   CdH15C20S2N5O6
_chemical_formula_sum   'Cd2 H30 C40 S4 N10 O12'
_cell_volume   1124.37039928
_cell_formula_units_Z   2
loop_
 _symmetry_equiv_pos_site_id
 _symmetry_equiv_pos_as_xyz
  1  'x, y, z'
loop_
 _atom_site_type_symbol
 _atom_site_label
 _atom_site_symmetry_multiplicity
 _atom_site_fract_x
 _atom_site_fract_y
 _atom_site_fract_z
 _atom_site_occupancy
 _atom_site_hle17_bader_spin_density
 _atom_site_hle17_ddec_charge
 _atom_site_hle17_ddec_spin_density
 _atom_site_hle17_ddec_sum_bond_order
 _atom_site_hle17_magmom
 _atom_site_hse06_10hf_bader_spin_density
 _atom_site_hse06_10hf_ddec_charge
 _atom_site_hse06_10hf_ddec_spin_density
 _atom_site_hse06_10hf_ddec_sum_bond_order
 _atom_site_hse06_10hf_magmom
 _atom_site_hse06_bader_spin_density
 _atom_site_hse06_ddec_charge
 _atom_site_hse06_ddec_spin_density
 _atom_site_hse06_ddec_sum_bond_order
 _atom_site_hse06_magmom
 _atom_site_pbe_bader_spin_density
 _atom_site_pbe_cm5_charge
 _atom_site_pbe_ddec_charge
 _atom_site_pbe_ddec_spin_density
 _atom_site_pbe_ddec_sum_bond_order
 _atom_site_pbe_magmom
Cd  Cd0  1  0.49999890  0.49999789  0.50000059  1  0  0.944518  0  2.03313  0  0  0.762434  0  2.504367  0  0  0.806934  0  2.467418  0  0  0.722312  0.732252  0  2.528673  0
Cd  Cd1  1  0.49999948  0.99999758  0.49999963  1  0  0.945093  0  2.00999  0  0  0.7623  0  2.477782  0  0  0.806509  0  2.441888  0  0  0.724186  0.732221  0  2.501559  0
H  H2  1  0.94017500  0.56057101  0.62382487  1  0  0.076643  0  0.976519  0  0  0.081306  0  1.051125  0  0  0.083668  0  1.048541  0  0  0.1032  0.079604  0  1.052861  0
H  H3  1  0.05982303  0.43943218  0.37617755  1  0  0.076753  0  0.976394  0  0  0.08141  0  1.051034  0  0  0.083776  0  1.048446  0  0  0.103253  0.079708  0  1.052749  0
H  H4  1  0.15638927  0.58683322  0.79070141  1  0  0.121379  0  0.935929  0  0  0.129322  0  0.994654  0  0  0.133021  0  0.993462  0  0  0.111832  0.12666  0  0.995749  0
H  H5  1  0.84361385  0.41317365  0.20930115  1  0  0.121359  0  0.935829  0  0  0.129281  0  0.994587  0  0  0.13298  0  0.993399  0  0  0.11182  0.126622  0  0.995684  0
H  H6  1  0.00740858  0.56369821  0.92145801  1  0  0.114281  0  0.944143  0  0  0.119685  0  1.01323  0  0  0.123353  0  1.009083  0  0  0.114663  0.116999  0  1.016191  0
H  H7  1  0.99259536  0.43630587  0.07854528  1  0  0.114224  0  0.944006  0  0  0.119628  0  1.013137  0  0  0.123295  0  1.008994  0  0  0.114619  0.11695  0  1.01608  0
H  H8  1  0.45254638  0.48938387  0.71044097  1  0  0.088758  0  0.93932  0  0  0.094671  0  1.007598  0  0  0.097455  0  1.004472  0  0  0.117143  0.092558  0  1.010039  0
H  H9  1  0.54745694  0.51061744  0.28956222  1  0  0.088757  0  0.939335  0  0  0.094666  0  1.007611  0  0  0.097451  0  1.00448  0  0  0.11715  0.092554  0  1.01005  0
H  H10  1  0.07996218  0.83459347  0.38131281  1  0  0.069957  0  0.993976  0  0  0.074043  0  1.067862  0  0  0.07618  0  1.066086  0  0  0.099855  0.072407  0  1.069302  0
H  H11  1  0.92003885  0.16540415  0.61868583  1  0  0.06993  0  0.993941  0  0  0.074033  0  1.067821  0  0  0.07617  0  1.066041  0  0  0.099831  0.072394  0  1.069259  0
H  H12  1  0.87790469  0.72993096  0.20856022  1  0  0.118638  0  0.937168  0  0  0.128326  0  0.992843  0  0  0.131993  0  0.991732  0  0  0.111206  0.12569  0  0.993882  0
H  H13  1  0.12209127  0.27006947  0.79143925  1  0  0.118664  0  0.937157  0  0  0.12834  0  0.99285  0  0  0.132009  0  0.991739  0  0  0.111223  0.125704  0  0.993891  0
H  H14  1  0.03059421  0.70432161  0.06809493  1  0  0.111707  0  0.950382  0  0  0.116186  0  1.022499  0  0  0.120353  0  1.017535  0  0  0.112045  0.113131  0  1.026133  0
H  H15  1  0.96939890  0.29567883  0.93190356  1  0  0.11176  0  0.950288  0  0  0.116213  0  1.022438  0  0  0.120378  0  1.017477  0  0  0.112063  0.113159  0  1.026073  0
H  H16  1  0.56190400  0.89064838  0.28478278  1  0  0.084553  0  0.957347  0  0  0.087308  0  1.033446  0  0  0.090368  0  1.029945  0  0  0.113389  0.085164  0  1.035786  0
H  H17  1  0.43809682  0.10934832  0.71521492  1  0  0.0846  0  0.957265  0  0  0.087353  0  1.033375  0  0  0.090415  0  1.029868  0  0  0.113397  0.085208  0  1.035716  0
H  H18  1  0.38196317  0.46933461  0.92811046  1  0  0.402759  0  0.87958  0  0  0.370895  0  0.957706  0  0  0.383881  0  0.944177  0  0  0.308378  0.361764  0  0.96717  0
H  H19  1  0.61804115  0.53066484  0.07189170  1  0  0.402791  0  0.879572  0  0  0.370866  0  0.957793  0  0  0.383853  0  0.94426  0  0  0.308359  0.361733  0  0.967259  0
H  H20  1  0.64435228  0.81993505  0.05625050  1  0  0.408722  0  0.881205  0  0  0.376674  0  0.961178  0  0  0.389632  0  0.944812  0  0  0.303933  0.367582  0  0.971147  0
H  H21  1  0.35564837  0.18006721  0.94374994  1  0  0.408664  0  0.881311  0  0  0.3766  0  0.961297  0  0  0.389557  0  0.944926  0  0  0.303913  0.367509  0  0.971265  0
H  H22  1  0.56719890  0.11256372  0.10808800  1  0  0.362327  0  0.913376  0  0  0.318222  0  1.010613  0  0  0.333422  0  0.995745  0  0  0.29219  0.307299  0  1.021196  0
H  H23  1  0.43279769  0.88743949  0.89191224  1  0  0.362258  0  0.91342  0  0  0.318163  0  1.010654  0  0  0.333364  0  0.995785  0  0  0.29214  0.307239  0  1.021237  0
H  H24  1  0.70491501  0.08469143  0.25290888  1  0  0.083435  0  0.953301  0  0  0.091073  0  1.019744  0  0  0.093239  0  1.017152  0  0  0.116926  0.089436  0  1.02165  0
H  H25  1  0.29508111  0.91530344  0.74708717  1  0  0.083471  0  0.953386  0  0  0.091162  0  1.019763  0  0  0.093337  0  1.017169  0  0  0.116936  0.089527  0  1.021671  0
H  H26  1  0.31136905  0.10792304  0.27012975  1  0  0.110123  0  0.944221  0  0  0.118161  0  1.008517  0  0  0.120389  0  1.007072  0  0  0.110271  0.116437  0  1.009642  0
H  H27  1  0.68862856  0.89207830  0.72987148  1  0  0.110117  0  0.944174  0  0  0.118141  0  1.008483  0  0  0.12038  0  1.007021  0  0  0.110266  0.116417  0  1.009609  0
H  H28  1  0.89092990  0.14220814  0.02443141  1  0  0.087001  0  0.956491  0  0  0.091547  0  1.027795  0  0  0.094102  0  1.025449  0  0  0.11702  0.089609  0  1.029541  0
H  H29  1  0.10907362  0.85780058  0.97556964  1  0  0.087009  0  0.956568  0  0  0.091563  0  1.027852  0  0  0.094103  0  1.025546  0  0  0.117034  0.089629  0  1.029578  0
H  H30  1  0.03959098  0.08291897  0.34598857  1  0  0.099971  0  0.995082  0  0  0.105235  0  1.063177  0  0  0.107718  0  1.0642  0  0  0.095191  0.103486  0  1.062548  0
H  H31  1  0.96040515  0.91707590  0.65400816  1  0  0.099896  0  0.995239  0  0  0.10518  0  1.063305  0  0  0.107661  0  1.06433  0  0  0.095166  0.103434  0  1.062678  0
C  C32  1  0.66785813  0.22436413  0.42484580  1  0  0.312369  0  4.002378  0  0  0.291674  0  4.307588  0  0  0.314213  0  4.320431  0  0  0.149678  0.276454  0  4.298832  0
C  C33  1  0.33214041  0.77562888  0.57514936  1  0  0.312349  0  4.002584  0  0  0.291648  0  4.307801  0  0  0.314186  0  4.320653  0  0  0.149632  0.276428  0  4.299043  0
C  C34  1  0.25890575  0.24932236  0.51982181  1  0  0.311161  0  3.989908  0  0  0.290541  0  4.291453  0  0  0.312281  0  4.304506  0  0  0.149583  0.27586  0  4.282591  0
C  C35  1  0.74110317  0.75067244  0.48017427  1  0  0.311048  0  3.989816  0  0  0.290425  0  4.291392  0  0  0.312168  0  4.304454  0  0  0.149524  0.275744  0  4.282524  0
C  C36  1  0.88211642  0.55034675  0.68305661  1  0  0.143693  0  3.685928  0  0  0.109741  0  3.93609  0  0  0.118287  0  3.954639  0  0  0.054143  0.104233  0  3.923596  0
C  C37  1  0.11788240  0.44965366  0.31694384  1  0  0.143537  0  3.685837  0  0  0.109521  0  3.936045  0  0  0.11806  0  3.954594  0  0  0.05405  0.104028  0  3.923562  0
C  C38  1  0.00118437  0.56501722  0.77556965  1  0  -0.110416  0  3.696034  0  0  -0.120139  0  3.947182  0  0  -0.129191  0  3.96863  0  0  -0.077364  -0.114317  0  3.932668  0
C  C39  1  0.99881856  0.43498872  0.22443400  1  0  -0.110388  0  3.695791  0  0  -0.120047  0  3.946943  0  0  -0.129098  0  3.96839  0  0  -0.077392  -0.114228  0  3.932431  0
C  C40  1  0.91798447  0.55273421  0.84848611  1  0  0.014402  0  3.654525  0  0  -0.019507  0  3.908974  0  0  -0.01249  0  3.925338  0  0  -0.050827  -0.023459  0  3.897448  0
C  C41  1  0.08202352  0.44726892  0.15151671  1  0  0.0144  0  3.65434  0  0  -0.019549  0  3.908812  0  0  -0.012529  0  3.925168  0  0  -0.050809  -0.023497  0  3.897285  0
C  C42  1  0.71757411  0.52571464  0.82645519  1  0  -0.133235  0  3.753735  0  0  -0.108016  0  3.993207  0  0  -0.122876  0  4.018741  0  0  -0.013902  -0.098744  0  3.97622  0
C  C43  1  0.28243164  0.47428480  0.17354779  1  0  -0.133258  0  3.753824  0  0  -0.108064  0  3.993266  0  0  -0.122927  0  4.018806  0  0  -0.013899  -0.09879  0  3.976277  0
C  C44  1  0.60874015  0.51123062  0.73126946  1  0  0.137775  0  3.665097  0  0  0.095099  0  3.912921  0  0  0.104786  0  3.930629  0  0  0.057531  0.088868  0  3.901126  0
C  C45  1  0.39126560  0.48876882  0.26873420  1  0  0.137773  0  3.665166  0  0  0.095105  0  3.912962  0  0  0.104793  0  3.93067  0  0  0.057543  0.088876  0  3.901165  0
C  C46  1  0.62435526  0.51494841  0.90351975  1  0  0.673704  0  3.794022  0  0  0.61515  0  4.099804  0  0  0.649943  0  4.091563  0  0  0.242717  0.591607  0  4.104888  0
C  C47  1  0.37565090  0.48505288  0.09648375  1  0  0.674009  0  3.79374  0  0  0.61556  0  4.099372  0  0  0.650351  0  4.091126  0  0  0.242951  0.592015  0  4.104461  0
C  C48  1  0.14131378  0.82158906  0.31842329  1  0  0.139544  0  3.691703  0  0  0.107812  0  3.940484  0  0  0.116205  0  3.958537  0  0  0.051175  0.102554  0  3.928054  0
C  C49  1  0.85868477  0.17840395  0.68157255  1  0  0.139518  0  3.691651  0  0  0.107788  0  3.940436  0  0  0.116179  0  3.958487  0  0  0.051161  0.10253  0  3.928003  0
C  C50  1  0.02945811  0.76279682  0.22200823  1  0  -0.108384  0  3.699944  0  0  -0.117033  0  3.949383  0  0  -0.125504  0  3.970389  0  0  -0.078066  -0.111695  0  3.935097  0
C  C51  1  0.97053865  0.23720082  0.77798994  1  0  -0.108398  0  3.700039  0  0  -0.117037  0  3.949464  0  0  -0.125515  0  3.970481  0  0  -0.078091  -0.111698  0  3.935176  0
C  C52  1  0.11435630  0.74884531  0.14435915  1  0  0.003008  0  3.662754  0  0  -0.030356  0  3.91557  0  0  -0.023723  0  3.931538  0  0  -0.056308  -0.034188  0  3.904497  0
C  C53  1  0.88564209  0.25115325  0.85563876  1  0  0.002906  0  3.662753  0  0  -0.03042  0  3.915612  0  0  -0.023776  0  3.931596  0  0  -0.056314  -0.034261  0  3.904531  0
C  C54  1  0.30974208  0.79322303  0.16587848  1  0  -0.132485  0  3.756208  0  0  -0.105967  0  3.992813  0  0  -0.119832  0  4.017536  0  0  -0.017296  -0.097047  0  3.97612  0
C  C55  1  0.69025775  0.20678201  0.83412123  1  0  -0.132389  0  3.756184  0  0  -0.10595  0  3.99291  0  0  -0.119863  0  4.017691  0  0  -0.01733  -0.096997  0  3.976176  0
C  C56  1  0.41048382  0.85310564  0.26470257  1  0  0.131229  0  3.678315  0  0  0.088248  0  3.929858  0  0  0.097567  0  3.947329  0  0  0.054783  0.082294  0  3.917891  0
C  C57  1  0.58951622  0.14689383  0.73529845  1  0  0.131235  0  3.678147  0  0  0.088257  0  3.929752  0  0  0.09759  0  3.947233  0  0  0.054816  0.082295  0  3.917777  0
C  C58  1  0.40702706  0.77602380  0.08461836  1  0  0.6437  0  3.848413  0  0  0.591848  0  4.150935  0  0  0.625373  0  4.142454  0  0  0.223234  0.569099  0  4.156131  0
C  C59  1  0.59297560  0.22397474  0.91538069  1  0  0.643676  0  3.848379  0  0  0.591859  0  4.150881  0  0  0.625398  0  4.142404  0  0  0.223269  0.569101  0  4.156074  0
C  C60  1  0.82661678  0.09679943  0.22332582  1  0  0.148966  0  3.662721  0  0  0.112818  0  3.916616  0  0  0.122162  0  3.932646  0  0  0.055165  0.106866  0  3.905827  0
C  C61  1  0.17338261  0.90319728  0.77667105  1  0  0.148879  0  3.662784  0  0  0.112681  0  3.916689  0  0  0.122016  0  3.932728  0  0  0.055147  0.106727  0  3.905904  0
C  C62  1  0.01331188  0.09454219  0.27424154  1  0  -0.115544  0  3.717321  0  0  -0.122698  0  3.965075  0  0  -0.133035  0  3.989289  0  0  -0.08304  -0.116324  0  3.948961  0
C  C63  1  0.98668549  0.90545823  0.72575606  1  0  -0.115501  0  3.717488  0  0  -0.122665  0  3.965229  0  0  -0.133001  0  3.989448  0  0  -0.083047  -0.116296  0  3.949119  0
C  C64  1  0.16290684  0.10797127  0.23203441  1  0  0.008744  0  3.659502  0  0  -0.021062  0  3.903226  0  0  -0.014954  0  3.922369  0  0  -0.055799  -0.024351  0  3.890038  0
C  C65  1  0.83709644  0.89203004  0.76796540  1  0  0.008759  0  3.65956  0  0  -0.021027  0  3.903279  0  0  -0.014922  0  3.922419  0  0  -0.055768  -0.024317  0  3.890091  0
C  C66  1  0.11955192  0.12372132  0.13997210  1  0  -0.142739  0  3.762623  0  0  -0.116824  0  4.002767  0  0  -0.131507  0  4.027778  0  0  -0.01698  -0.107575  0  3.9863  0
C  C67  1  0.88044836  0.87628556  0.86003083  1  0  -0.142664  0  3.762671  0  0  -0.116778  0  4.002816  0  0  -0.131462  0  4.02783  0  0  -0.016999  -0.107528  0  3.986346  0
C  C68  1  0.92800304  0.12720998  0.09475892  1  0  0.135472  0  3.675912  0  0  0.089618  0  3.934886  0  0  0.099086  0  3.951709  0  0  0.056351  0.083578  0  3.923464  0
C  C69  1  0.07199539  0.87279506  0.90524267  1  0  0.135434  0  3.676002  0  0  0.089621  0  3.934909  0  0  0.099088  0  3.951723  0  0  0.056355  0.083586  0  3.923486  0
C  C70  1  0.27283888  0.13751257  0.08997353  1  0  0.674573  0  3.836139  0  0  0.618958  0  4.137364  0  0  0.654134  0  4.128002  0  0  0.237472  0.59501  0  4.143442  0
C  C71  1  0.72716609  0.86249614  0.91003038  1  0  0.674507  0  3.836413  0  0  0.618897  0  4.137652  0  0  0.654075  0  4.128287  0  0  0.237438  0.594948  0  4.143731  0
S  S72  1  0.75017414  0.35550907  0.41991329  1  0  -0.330735  0  2.1685  0  0  -0.300937  0  2.497513  0  0  -0.317959  0  2.490187  0  0  -0.140264  -0.289127  0  2.501693  0
S  S73  1  0.24981956  0.64448767  0.58008364  1  0  -0.330689  0  2.168455  0  0  -0.300881  0  2.49745  0  0  -0.317895  0  2.490114  0  0  -0.140238  -0.289072  0  2.501633  0
S  S74  1  0.18873686  0.11920640  0.53140892  1  0  -0.330994  0  2.21469  0  0  -0.295416  0  2.54835  0  0  -0.311396  0  2.538923  0  0  -0.13039  -0.284469  0  2.55419  0
S  S75  1  0.81125866  0.88078569  0.46858838  1  0  -0.330919  0  2.214828  0  0  -0.29535  0  2.548514  0  0  -0.311328  0  2.539088  0  0  -0.130379  -0.284408  0  2.554356  0
N  N76  1  0.60891378  0.12676636  0.42507014  1  0  -0.544605  0  2.873175  0  0  -0.490247  0  3.15281  0  0  -0.511138  0  3.158895  0  0  -0.397515  -0.476284  0  3.148385  0
N  N77  1  0.39107280  0.87323043  0.57492603  1  0  -0.544632  0  2.873465  0  0  -0.490263  0  3.153076  0  0  -0.511157  0  3.159171  0  0  -0.397488  -0.476299  0  3.14865  0
N  N78  1  0.30462255  0.34349692  0.51023558  1  0  -0.528468  0  2.894706  0  0  -0.472428  0  3.171742  0  0  -0.492989  0  3.178806  0  0  -0.392616  -0.458645  0  3.166567  0
N  N79  1  0.69537929  0.65649143  0.48976550  1  0  -0.528415  0  2.894439  0  0  -0.472373  0  3.171473  0  0  -0.492939  0  3.178546  0  0  -0.392587  -0.458587  0  3.166291  0
N  N80  1  0.68970191  0.52372452  0.66148786  1  0  -0.326683  0  3.273247  0  0  -0.247061  0  3.533355  0  0  -0.268658  0  3.554672  0  0  -0.323985  -0.232513  0  3.518864  0
N  N81  1  0.31029997  0.47627680  0.33851383  1  0  -0.326633  0  3.273212  0  0  -0.246975  0  3.533301  0  0  -0.268573  0  3.554623  0  0  -0.323945  -0.232428  0  3.518806  0
N  N82  1  0.32751849  0.86737225  0.33915528  1  0  -0.329415  0  3.27598  0  0  -0.248106  0  3.53417  0  0  -0.269662  0  3.555698  0  0  -0.327645  -0.233398  0  3.519235  0
N  N83  1  0.67247786  0.13262355  0.66084305  1  0  -0.329392  0  3.275845  0  0  -0.248085  0  3.534054  0  0  -0.269642  0  3.555582  0  0  -0.32759  -0.233377  0  3.519118  0
N  N84  1  0.78401731  0.11370789  0.13550773  1  0  -0.298102  0  3.20359  0  0  -0.23233  0  3.455233  0  0  -0.248849  0  3.470263  0  0  -0.305814  -0.221119  0  3.444965  0
N  N85  1  0.21598475  0.88629435  0.86449152  1  0  -0.298017  0  3.203553  0  0  -0.232287  0  3.455233  0  0  -0.248805  0  3.470264  0  0  -0.305777  -0.221076  0  3.444964  0
O  O86  1  0.43912419  0.47129305  0.87070624  1  0  -0.541174  0  2.098665  0  0  -0.490338  0  2.321982  0  0  -0.513294  0  2.307635  0  0  -0.318887  -0.474409  0  2.331437  0
O  O87  1  0.56088133  0.52870546  0.12929514  1  0  -0.541301  0  2.09875  0  0  -0.490445  0  2.322051  0  0  -0.513401  0  2.307696  0  0  -0.318924  -0.474523  0  2.331526  0
O  O88  1  0.71708590  0.54449557  0.99149636  1  0  -0.556573  0  1.99519  0  0  -0.50011  0  2.213824  0  0  -0.523728  0  2.205778  0  0  -0.272137  -0.484027  0  2.219062  0
O  O89  1  0.28291862  0.45550480  0.00850605  1  0  -0.556717  0  1.994897  0  0  -0.500329  0  2.213483  0  0  -0.52394  0  2.205428  0  0  -0.272285  -0.484245  0  2.218725  0
O  O90  1  0.58997739  0.82826281  0.11588225  1  0  -0.556312  0  2.105856  0  0  -0.505566  0  2.332277  0  0  -0.528489  0  2.316826  0  0  -0.332509  -0.489461  0  2.341252  0
O  O91  1  0.41001615  0.17173948  0.88411810  1  0  -0.55632  0  2.105896  0  0  -0.505533  0  2.33226  0  0  -0.528456  0  2.316801  0  0  -0.332548  -0.489429  0  2.341238  0
O  O92  1  0.32437355  0.71838898  0.99736048  1  0  -0.555382  0  1.94449  0  0  -0.516423  0  2.171887  0  0  -0.536472  0  2.164327  0  0  -0.292582  -0.50254  0  2.176653  0
O  O93  1  0.67562326  0.28161515  0.00264070  1  0  -0.555355  0  1.944467  0  0  -0.516414  0  2.17185  0  0  -0.536463  0  2.164283  0  0  -0.292574  -0.502529  0  2.176622  0
O  O94  1  0.43086231  0.09772882  0.12463419  1  0  -0.547959  0  2.16814  0  0  -0.491047  0  2.407644  0  0  -0.515489  0  2.393281  0  0  -0.314356  -0.473891  0  2.417211  0
O  O95  1  0.56914262  0.90227341  0.87536738  1  0  -0.547883  0  2.168175  0  0  -0.490981  0  2.407686  0  0  -0.515428  0  2.393327  0  0  -0.314297  -0.473825  0  2.417253  0
O  O96  1  0.24233842  0.18132812  0.02220456  1  0  -0.574203  0  2.011129  0  0  -0.524876  0  2.237125  0  0  -0.548247  0  2.228666  0  0  -0.284023  -0.508878  0  2.242463  0
O  O97  1  0.75767265  0.81868241  0.97779979  1  0  -0.574206  0  2.011235  0  0  -0.524917  0  2.237268  0  0  -0.548287  0  2.228809  0  0  -0.284042  -0.508919  0  2.242604  0
