# generated using pymatgen
data_CsH7C8O3
_symmetry_space_group_name_H-M   'P 1'
_cell_length_a   7.21775455
_cell_length_b   7.46680481
_cell_length_c   17.27600054
_cell_angle_alpha   89.99991585
_cell_angle_beta   89.99911047
_cell_angle_gamma   89.99991047
_symmetry_Int_Tables_number   1
_chemical_formula_structural   CsH7C8O3
_chemical_formula_sum   'Cs4 H28 C32 O12'
_cell_volume   931.06524641
_cell_formula_units_Z   4
loop_
 _symmetry_equiv_pos_site_id
 _symmetry_equiv_pos_as_xyz
  1  'x, y, z'
loop_
 _atom_site_type_symbol
 _atom_site_label
 _atom_site_symmetry_multiplicity
 _atom_site_fract_x
 _atom_site_fract_y
 _atom_site_fract_z
 _atom_site_occupancy
 _atom_site_hle17_bader_spin_density
 _atom_site_hle17_ddec_charge
 _atom_site_hle17_ddec_spin_density
 _atom_site_hle17_ddec_sum_bond_order
 _atom_site_hle17_magmom
 _atom_site_hse06_10hf_bader_spin_density
 _atom_site_hse06_10hf_ddec_charge
 _atom_site_hse06_10hf_ddec_spin_density
 _atom_site_hse06_10hf_ddec_sum_bond_order
 _atom_site_hse06_10hf_magmom
 _atom_site_hse06_bader_spin_density
 _atom_site_hse06_ddec_charge
 _atom_site_hse06_ddec_spin_density
 _atom_site_hse06_ddec_sum_bond_order
 _atom_site_hse06_magmom
 _atom_site_pbe_bader_spin_density
 _atom_site_pbe_cm5_charge
 _atom_site_pbe_ddec_charge
 _atom_site_pbe_ddec_spin_density
 _atom_site_pbe_ddec_sum_bond_order
 _atom_site_pbe_magmom
Cs  Cs0  1  0.85776291  0.02909282  0.57678581  1  0  0.950157  0  0.634361  0  0  0.890968  0  0.875113  0  0  0.908455  0  0.850126  0  0  0.928542  0.878131  0  0.892601  0
Cs  Cs1  1  0.35776855  0.97091784  0.42321508  1  0  0.950196  0  0.634246  0  0  0.891024  0  0.874959  0  0  0.908491  0  0.849996  0  0  0.928491  0.878141  0  0.892514  0
Cs  Cs2  1  0.35777038  0.47092464  0.57678726  1  0  0.950191  0  0.634289  0  0  0.891079  0  0.87501  0  0  0.9085  0  0.850026  0  0  0.928535  0.878133  0  0.892576  0
Cs  Cs3  1  0.85776801  0.52909406  0.42321478  1  0  0.950181  0  0.63429  0  0  0.891008  0  0.875004  0  0  0.908476  0  0.850045  0  0  0.928489  0.878138  0  0.892545  0
H  H4  1  0.50761355  0.79236420  0.84631259  1  0  0.101163  0  1.000479  0  0  0.108991  0  1.068298  0  0  0.1112  0  1.069288  0  0  0.097831  0.107435  0  1.067643  0
H  H5  1  0.00761424  0.20761736  0.15368767  1  0  0.101169  0  1.00064  0  0  0.108985  0  1.068457  0  0  0.111193  0  1.06945  0  0  0.097803  0.107428  0  1.06781  0
H  H6  1  0.00762573  0.70763076  0.84631481  1  0  0.101135  0  1.000756  0  0  0.108975  0  1.068553  0  0  0.111183  0  1.069547  0  0  0.097797  0.10742  0  1.067901  0
H  H7  1  0.50761591  0.29237625  0.15368834  1  0  0.101152  0  1.00059  0  0  0.108983  0  1.068406  0  0  0.111193  0  1.069396  0  0  0.097796  0.10743  0  1.067747  0
H  H8  1  0.67657242  0.77011747  0.96936368  1  0  0.081863  0  0.967303  0  0  0.092931  0  1.029657  0  0  0.094853  0  1.02969  0  0  0.097089  0.091555  0  1.029653  0
H  H9  1  0.17657072  0.22986793  0.03063607  1  0  0.081851  0  0.967478  0  0  0.092988  0  1.029732  0  0  0.094908  0  1.029784  0  0  0.097037  0.091612  0  1.029728  0
H  H10  1  0.17658455  0.72987428  0.96936531  1  0  0.08181  0  0.967452  0  0  0.092923  0  1.029752  0  0  0.094841  0  1.029791  0  0  0.097091  0.091547  0  1.029747  0
H  H11  1  0.67658352  0.27011648  0.03063907  1  0  0.081877  0  0.967353  0  0  0.092964  0  1.029673  0  0  0.09488  0  1.029728  0  0  0.097089  0.091587  0  1.02967  0
H  H12  1  0.94247015  0.97226802  0.99802042  1  0  0.084733  0  0.980806  0  0  0.094957  0  1.04516  0  0  0.097273  0  1.045434  0  0  0.093575  0.093255  0  1.045126  0
H  H13  1  0.44246857  0.02771711  0.00197761  1  0  0.084675  0  0.980819  0  0  0.094897  0  1.045171  0  0  0.097212  0  1.045442  0  0  0.093574  0.093178  0  1.045152  0
H  H14  1  0.44247717  0.52771400  0.99801872  1  0  0.084715  0  0.980889  0  0  0.094963  0  1.045203  0  0  0.097277  0  1.045476  0  0  0.093591  0.093276  0  1.045151  0
H  H15  1  0.94248648  0.47226845  0.00198220  1  0  0.084663  0  0.980894  0  0  0.094903  0  1.045208  0  0  0.097216  0  1.045484  0  0  0.093579  0.093186  0  1.045186  0
H  H16  1  0.04745074  0.19051389  0.89708877  1  0  0.083892  0  0.968995  0  0  0.094733  0  1.030143  0  0  0.096483  0  1.030721  0  0  0.095802  0.093461  0  1.02982  0
H  H17  1  0.54745696  0.80947298  0.10290659  1  0  0.083965  0  0.968821  0  0  0.094816  0  1.029961  0  0  0.096564  0  1.030543  0  0  0.095873  0.093549  0  1.029627  0
H  H18  1  0.54745238  0.30946411  0.89708769  1  0  0.083957  0  0.968855  0  0  0.094804  0  1.029994  0  0  0.096553  0  1.030575  0  0  0.095868  0.093535  0  1.029665  0
H  H19  1  0.04745670  0.69052143  0.10291346  1  0  0.08393  0  0.968964  0  0  0.094744  0  1.030122  0  0  0.096493  0  1.030702  0  0  0.095814  0.093475  0  1.029794  0
H  H20  1  0.88056119  0.21166727  0.77186612  1  0  0.112307  0  0.96243  0  0  0.120392  0  1.026464  0  0  0.124756  0  1.023761  0  0  0.10804  0.117246  0  1.028525  0
H  H21  1  0.38057033  0.78831792  0.22813173  1  0  0.112278  0  0.962409  0  0  0.120309  0  1.02652  0  0  0.124673  0  1.023818  0  0  0.107995  0.117167  0  1.028571  0
H  H22  1  0.38055795  0.28832147  0.77186539  1  0  0.112228  0  0.962461  0  0  0.12032  0  1.026497  0  0  0.124686  0  1.02379  0  0  0.108014  0.117179  0  1.028547  0
H  H23  1  0.88055417  0.71168248  0.22813419  1  0  0.112253  0  0.962472  0  0  0.12034  0  1.026507  0  0  0.124704  0  1.023805  0  0  0.108048  0.117197  0  1.028563  0
H  H24  1  0.32999888  0.93882332  0.75701350  1  0  0.081845  0  0.915231  0  0  0.095304  0  0.976933  0  0  0.096082  0  0.976194  0  0  0.109307  0.094731  0  0.97755  0
H  H25  1  0.83000562  0.06118201  0.24298698  1  0  0.081767  0  0.915244  0  0  0.09525  0  0.976968  0  0  0.096033  0  0.976225  0  0  0.109267  0.094677  0  0.977582  0
H  H26  1  0.83000243  0.56119032  0.75701087  1  0  0.081818  0  0.915259  0  0  0.095281  0  0.976986  0  0  0.096062  0  0.976246  0  0  0.109271  0.094707  0  0.977604  0
H  H27  1  0.32999376  0.43883511  0.24299020  1  0  0.081806  0  0.91522  0  0  0.095278  0  0.97692  0  0  0.096058  0  0.976178  0  0  0.109282  0.094706  0  0.977533  0
H  H28  1  0.48274401  0.77689996  0.71541837  1  0  0.081698  0  0.936283  0  0  0.090627  0  1.006755  0  0  0.092854  0  1.004392  0  0  0.110232  0.089028  0  1.008528  0
H  H29  1  0.98275855  0.22310388  0.28457418  1  0  0.081707  0  0.93619  0  0  0.090634  0  1.006742  0  0  0.092866  0  1.004361  0  0  0.110242  0.089031  0  1.008518  0
H  H30  1  0.98275830  0.72311230  0.71542083  1  0  0.081736  0  0.936217  0  0  0.090663  0  1.006752  0  0  0.092893  0  1.004372  0  0  0.11026  0.08906  0  1.00853  0
H  H31  1  0.48273872  0.27690627  0.28457404  1  0  0.081789  0  0.936297  0  0  0.09068  0  1.006813  0  0  0.092905  0  1.004456  0  0  0.110253  0.089078  0  1.008589  0
C  C32  1  0.68244800  0.00583096  0.80116007  1  0  0.263242  0  3.823242  0  0  0.258147  0  4.078129  0  0  0.268967  0  4.094734  0  0  0.078184  0.250671  0  4.066924  0
C  C33  1  0.18244394  0.99415310  0.19883790  1  0  0.263434  0  3.823283  0  0  0.258296  0  4.07822  0  0  0.269128  0  4.09482  0  0  0.078204  0.250821  0  4.067013  0
C  C34  1  0.18244710  0.49416460  0.80116151  1  0  0.263429  0  3.823148  0  0  0.258272  0  4.078106  0  0  0.269099  0  4.094708  0  0  0.078215  0.250797  0  4.066897  0
C  C35  1  0.68243791  0.50584223  0.19884051  1  0  0.263306  0  3.823101  0  0  0.258179  0  4.078053  0  0  0.269001  0  4.094657  0  0  0.078221  0.250707  0  4.066848  0
C  C36  1  0.62515398  0.88036562  0.85652866  1  0  -0.22023  0  3.767061  0  0  -0.237343  0  4.010957  0  0  -0.243624  0  4.03215  0  0  -0.114776  -0.233141  0  3.996743  0
C  C37  1  0.12515524  0.11962117  0.14347026  1  0  -0.220311  0  3.767229  0  0  -0.237375  0  4.011133  0  0  -0.243656  0  4.032321  0  0  -0.114734  -0.233174  0  3.996918  0
C  C38  1  0.12516358  0.61962919  0.85653153  1  0  -0.220351  0  3.767547  0  0  -0.23746  0  4.011461  0  0  -0.243743  0  4.032653  0  0  -0.114766  -0.23326  0  3.997247  0
C  C39  1  0.62515949  0.38037368  0.14347202  1  0  -0.220266  0  3.767199  0  0  -0.23736  0  4.011099  0  0  -0.243639  0  4.032284  0  0  -0.114741  -0.233157  0  3.996883  0
C  C40  1  0.72066299  0.86908622  0.92683514  1  0  -0.046896  0  3.80286  0  0  -0.055423  0  4.044999  0  0  -0.054837  0  4.065675  0  0  -0.092969  -0.055608  0  4.030842  0
C  C41  1  0.22067378  0.13091120  0.07316316  1  0  -0.047071  0  3.802894  0  0  -0.055627  0  4.045022  0  0  -0.055061  0  4.06572  0  0  -0.093026  -0.055812  0  4.030861  0
C  C42  1  0.22066564  0.63091097  0.92683742  1  0  -0.046691  0  3.803024  0  0  -0.055237  0  4.045142  0  0  -0.054652  0  4.065821  0  0  -0.092947  -0.055426  0  4.030992  0
C  C43  1  0.72066836  0.36908912  0.07316667  1  0  -0.046854  0  3.802862  0  0  -0.055387  0  4.045  0  0  -0.05481  0  4.065684  0  0  -0.092981  -0.055574  0  4.030844  0
C  C44  1  0.87058594  0.98086351  0.94272255  1  0  -0.112912  0  3.800757  0  0  -0.127823  0  4.048281  0  0  -0.132039  0  4.070196  0  0  -0.109045  -0.124994  0  4.033431  0
C  C45  1  0.37058785  0.01912169  0.05727363  1  0  -0.112599  0  3.800732  0  0  -0.127498  0  4.048269  0  0  -0.131714  0  4.070184  0  0  -0.108915  -0.124657  0  4.033426  0
C  C46  1  0.37058743  0.51912945  0.94272433  1  0  -0.113013  0  3.800631  0  0  -0.12795  0  4.048235  0  0  -0.132167  0  4.070149  0  0  -0.109093  -0.125134  0  4.03338  0
C  C47  1  0.87059744  0.48085977  0.05727763  1  0  -0.112925  0  3.800533  0  0  -0.127846  0  4.048079  0  0  -0.132062  0  4.069993  0  0  -0.109084  -0.125005  0  4.033233  0
C  C48  1  0.92867246  0.10366640  0.88647413  1  0  -0.052025  0  3.796597  0  0  -0.061675  0  4.041513  0  0  -0.061008  0  4.062299  0  0  -0.094715  -0.061945  0  4.027312  0
C  C49  1  0.42867180  0.89631741  0.11351878  1  0  -0.052201  0  3.796704  0  0  -0.06188  0  4.041655  0  0  -0.061214  0  4.062439  0  0  -0.094845  -0.062153  0  4.027451  0
C  C50  1  0.42867316  0.39631526  0.88647622  1  0  -0.052039  0  3.796197  0  0  -0.061699  0  4.041142  0  0  -0.061034  0  4.06193  0  0  -0.094727  -0.061973  0  4.026948  0
C  C51  1  0.92867526  0.60367926  0.11352711  1  0  -0.052129  0  3.796428  0  0  -0.061736  0  4.041327  0  0  -0.06107  0  4.062114  0  0  -0.094705  -0.062007  0  4.027122  0
C  C52  1  0.83604662  0.11634935  0.81594189  1  0  -0.199996  0  3.752023  0  0  -0.221705  0  4.004639  0  0  -0.226707  0  4.022212  0  0  -0.10737  -0.218373  0  3.99293  0
C  C53  1  0.33605582  0.88364259  0.18405508  1  0  -0.200071  0  3.751984  0  0  -0.221704  0  4.004661  0  0  -0.226703  0  4.022227  0  0  -0.107361  -0.218373  0  3.992951  0
C  C54  1  0.33604734  0.38364065  0.81594168  1  0  -0.200018  0  3.75194  0  0  -0.221718  0  4.004602  0  0  -0.226717  0  4.022164  0  0  -0.107439  -0.218382  0  3.992883  0
C  C55  1  0.83604817  0.61635531  0.18406225  1  0  -0.199945  0  3.752101  0  0  -0.221647  0  4.004719  0  0  -0.226649  0  4.022292  0  0  -0.107444  -0.218313  0  3.993004  0
C  C56  1  0.44072112  0.91863129  0.71381971  1  0  -0.060291  0  3.613064  0  0  -0.118797  0  3.87906  0  0  -0.114175  0  3.877917  0  0  -0.072228  -0.12207  0  3.879854  0
C  C57  1  0.94072482  0.08137393  0.28617891  1  0  -0.06017  0  3.612802  0  0  -0.11877  0  3.87898  0  0  -0.114148  0  3.877868  0  0  -0.072165  -0.12205  0  3.879786  0
C  C58  1  0.94072740  0.58138102  0.71381879  1  0  -0.060292  0  3.612981  0  0  -0.118895  0  3.879069  0  0  -0.11427  0  3.877948  0  0  -0.072274  -0.122171  0  3.87987  0
C  C59  1  0.44071162  0.41863357  0.28618214  1  0  -0.060393  0  3.613039  0  0  -0.118908  0  3.879109  0  0  -0.114291  0  3.877975  0  0  -0.072203  -0.122175  0  3.879905  0
C  C60  1  0.36346587  0.95872356  0.63294416  1  0  0.674672  0  3.958021  0  0  0.633408  0  4.258478  0  0  0.665619  0  4.249818  0  0  0.16484  0.6116  0  4.263566  0
C  C61  1  0.86345002  0.04130183  0.36705379  1  0  0.674937  0  3.957629  0  0  0.633697  0  4.258089  0  0  0.665916  0  4.249417  0  0  0.16488  0.611888  0  4.263182  0
C  C62  1  0.86346808  0.54128772  0.63294501  1  0  0.674903  0  3.958012  0  0  0.633713  0  4.258357  0  0  0.665928  0  4.249687  0  0  0.164927  0.611904  0  4.263448  0
C  C63  1  0.36345751  0.45870284  0.36705815  1  0  0.674927  0  3.957883  0  0  0.633727  0  4.258203  0  0  0.665943  0  4.249535  0  0  0.164903  0.611919  0  4.263298  0
O  O64  1  0.59694208  0.03072529  0.73093865  1  0  -0.29632  0  2.375573  0  0  -0.227415  0  2.614353  0  0  -0.244158  0  2.61573  0  0  -0.221137  -0.215599  0  2.613048  0
O  O65  1  0.09694100  0.96926689  0.26906161  1  0  -0.296405  0  2.375485  0  0  -0.227519  0  2.614366  0  0  -0.244276  0  2.615762  0  0  -0.221124  -0.215694  0  2.613062  0
O  O66  1  0.09694539  0.46927324  0.73093837  1  0  -0.296411  0  2.375462  0  0  -0.227465  0  2.614282  0  0  -0.244209  0  2.615664  0  0  -0.221092  -0.215633  0  2.612971  0
O  O67  1  0.59693353  0.53073502  0.26906189  1  0  -0.296227  0  2.375343  0  0  -0.227347  0  2.614157  0  0  -0.244088  0  2.615545  0  0  -0.221068  -0.21554  0  2.612864  0
O  O68  1  0.43496070  0.08319380  0.59301892  1  0  -0.774307  0  2.025217  0  0  -0.724498  0  2.270268  0  0  -0.748436  0  2.259761  0  0  -0.566664  -0.707699  0  2.27689  0
O  O69  1  0.93493733  0.91684759  0.40698610  1  0  -0.774257  0  2.025156  0  0  -0.724421  0  2.270162  0  0  -0.748373  0  2.25968  0  0  -0.566501  -0.707636  0  2.276803  0
O  O70  1  0.93496211  0.41682219  0.59302008  1  0  -0.774298  0  2.025394  0  0  -0.724509  0  2.270402  0  0  -0.748449  0  2.259898  0  0  -0.566569  -0.707712  0  2.277029  0
O  O71  1  0.43494147  0.58316696  0.40698610  1  0  -0.774344  0  2.025258  0  0  -0.724554  0  2.270255  0  0  -0.748495  0  2.259762  0  0  -0.566621  -0.707755  0  2.276888  0
O  O72  1  0.23019915  0.85800186  0.61265695  1  0  -0.752594  0  1.945935  0  0  -0.705815  0  2.184493  0  0  -0.731557  0  2.176268  0  0  -0.504521  -0.687671  0  2.189482  0
O  O73  1  0.73019202  0.14205313  0.38733550  1  0  -0.752899  0  1.945677  0  0  -0.706106  0  2.184216  0  0  -0.731854  0  2.175994  0  0  -0.504714  -0.68797  0  2.189223  0
O  O74  1  0.73021361  0.64202703  0.61265310  1  0  -0.752782  0  1.945798  0  0  -0.706002  0  2.184283  0  0  -0.731746  0  2.176054  0  0  -0.504642  -0.687857  0  2.189271  0
O  O75  1  0.23019557  0.35796769  0.38734167  1  0  -0.752823  0  1.945804  0  0  -0.706042  0  2.184283  0  0  -0.731785  0  2.176061  0  0  -0.504647  -0.687897  0  2.189286  0
