# generated using pymatgen
data_ZnH15C19N5O4
_symmetry_space_group_name_H-M   'P 1'
_cell_length_a   11.08238183
_cell_length_b   15.95617828
_cell_length_c   17.29496276
_cell_angle_alpha   96.25042804
_cell_angle_beta   89.39675894
_cell_angle_gamma   93.30661103
_symmetry_Int_Tables_number   1
_chemical_formula_structural   ZnH15C19N5O4
_chemical_formula_sum   'Zn2 H30 C38 N10 O8'
_cell_volume   3035.04164395
_cell_formula_units_Z   2
loop_
 _symmetry_equiv_pos_site_id
 _symmetry_equiv_pos_as_xyz
  1  'x, y, z'
loop_
 _atom_site_type_symbol
 _atom_site_label
 _atom_site_symmetry_multiplicity
 _atom_site_fract_x
 _atom_site_fract_y
 _atom_site_fract_z
 _atom_site_occupancy
 _atom_site_pbe_bader_charge
 _atom_site_pbe_bader_spin_density
 _atom_site_pbe_cm5_charge
 _atom_site_pbe_ddec_charge
 _atom_site_pbe_ddec_spin_density
 _atom_site_pbe_ddec_sum_bond_order
 _atom_site_pbe_magmom
Zn  Zn0  1  0.49445963  0.40959544  0.50441848  1  1.282445  0  0.66843  0.826336  0  2.40159  0
Zn  Zn1  1  0.50383580  0.58910883  0.50724506  1  1.278428  0  0.670831  0.82338  0  2.416873  0
H  H2  1  0.37654184  0.71308505  0.43936859  1  0.132527  0  0.124139  0.098694  0  0.992261  0
H  H3  1  0.37386308  0.87079231  0.43779330  1  0.116829  0  0.108225  0.122232  0  1.024932  0
H  H4  1  0.68296115  0.89534236  0.58976358  1  0.087703  0  0.115187  0.133723  0  0.991224  0
H  H5  1  0.32863859  0.10277060  0.40853736  1  0.06656  0  0.114505  0.132746  0  0.991728  0
H  H6  1  0.62580934  0.12678154  0.56987846  1  0.117799  0  0.10874  0.122135  0  1.022593  0
H  H7  1  0.61825431  0.28494723  0.57299172  1  0.133576  0  0.126714  0.103589  0  0.972278  0
H  H8  1  0.50864457  0.61973924  0.26648056  1  0.074405  0  0.099767  0.102658  0  1.009995  0
H  H9  1  0.50713009  0.61636740  0.12083497  1  0.100654  0  0.096956  0.101933  0  1.036349  0
H  H10  1  0.49420106  0.34537867  0.10155383  1  0.046606  0  0.103103  0.113111  0  1.007057  0
H  H11  1  0.51378776  0.65897215  0.90968039  1  0.089079  0  0.10198  0.11126  0  1.008709  0
H  H12  1  0.49249346  0.38791307  0.88993395  1  0.103007  0  0.097507  0.102695  0  1.034425  0
H  H13  1  0.49010657  0.38493868  0.74435934  1  0.085694  0  0.101341  0.106613  0  1.001086  0
H  H14  1  0.77690647  0.59979918  0.39948044  1  0.058723  0  0.098727  0.116386  0  1.031899  0
H  H15  1  0.22429046  0.60153680  0.38825904  1  0.034262  0  0.097946  0.108537  0  1.039507  0
H  H16  1  0.11010696  0.40164195  0.56683169  1  0.077706  0  0.104319  0.110329  0  0.99377  0
H  H17  1  0.88414600  0.39718746  0.57002816  1  0.079477  0  0.103932  0.108276  0  0.994946  0
H  H18  1  0.70907914  0.66439696  0.57203710  1  0.51127  0  0.307104  0.331387  0  0.973885  0
H  H19  1  0.76655135  0.76238099  0.61506276  1  0.446287  0  0.326052  0.321408  0  0.913057  0
H  H20  1  0.29556289  0.33277334  0.43085574  1  0.540623  0  0.305123  0.332193  0  0.97596  0
H  H21  1  0.24517821  0.23516366  0.38265255  1  0.448951  0  0.324433  0.3198  0  0.915082  0
H  H22  1  0.49917760  0.33417218  0.31115203  1  0.514817  0  0.293703  0.309619  0  1.003987  0
H  H23  1  0.50472265  0.27708287  0.21822701  1  0.442749  0  0.3089  0.303676  0  0.943431  0
H  H24  1  0.50590936  0.67107748  0.70054296  1  0.48558  0  0.293546  0.309719  0  1.003352  0
H  H25  1  0.50438756  0.72772971  0.79366790  1  0.430368  0  0.307394  0.301577  0  0.945673  0
H  H26  1  0.89573647  0.77073701  0.31090491  1  0.001144  0  0.08849  0.117278  0  1.001984  0
H  H27  1  0.77143159  0.69450157  0.30805679  1  0.040118  0  0.093887  0.132681  0  0.99674  0
H  H28  1  0.88737728  0.68584371  0.23628859  1  0.043144  0  0.094071  0.126879  0  0.992945  0
H  H29  1  0.10753943  0.68722892  0.23018346  1  0.046412  0  0.094661  0.128487  0  0.991288  0
H  H30  1  0.23384880  0.69256477  0.29332229  1  0.045121  0  0.091815  0.127232  0  1.00103  0
H  H31  1  0.12505085  0.77100362  0.30546073  1  0.046981  0  0.088416  0.117393  0  1.000921  0
C  C32  1  0.50498002  0.49366135  0.35287341  1  1.508642  0  0.209697  0.598203  0  4.160701  0
C  C33  1  0.26109289  0.50146953  0.49548721  1  1.57604  0  0.223055  0.609179  0  4.142913  0
C  C34  1  0.49627903  0.51121506  0.65802769  1  1.522412  0  0.210817  0.601158  0  4.154214  0
C  C35  1  0.73712612  0.49122574  0.50384280  1  1.558902  0  0.221701  0.608127  0  4.147932  0
C  C36  1  0.44323509  0.75624125  0.47110530  1  0.428886  0  0.05083  0.13026  0  3.959628  0
C  C37  1  0.44108074  0.84246979  0.47037637  1  -0.024326  0  -0.10713  -0.253284  0  3.989333  0
C  C38  1  0.52955246  0.89307412  0.51476161  1  0.378317  0  0.096657  0.218714  0  4.078197  0
C  C39  1  0.61474978  0.85574081  0.55584648  1  0.039297  0  -0.084435  -0.297326  0  3.869909  0
C  C40  1  0.61343036  0.76656961  0.55167636  1  0.995631  0  0.23717  0.462477  0  4.073117  0
C  C41  1  0.39370832  0.14228242  0.44515070  1  -0.010544  0  -0.085527  -0.297674  0  3.873156  0
C  C42  1  0.47668911  0.10481579  0.48780121  1  0.316602  0  0.095858  0.216475  0  4.07962  0
C  C43  1  0.56056990  0.15535734  0.53597315  1  -0.036383  0  -0.105599  -0.24926  0  3.987839  0
C  C44  1  0.55567808  0.24170059  0.53781159  1  0.46385  0  0.050344  0.128301  0  3.964385  0
C  C45  1  0.39240631  0.23145143  0.45162112  1  1.022311  0  0.236697  0.462959  0  4.072921  0
C  C46  1  0.50184071  0.48556240  0.26674954  1  0.000744  0  -0.035216  -0.168019  0  3.919062  0
C  C47  1  0.50505802  0.55998820  0.22918968  1  -0.071451  0  -0.089297  -0.064619  0  4.037571  0
C  C48  1  0.50453970  0.55879039  0.14926308  1  -0.012346  0  -0.113308  -0.19865  0  4.015257  0
C  C49  1  0.50113129  0.47964535  0.10369854  1  0.419858  0  0.084027  0.196853  0  4.077389  0
C  C50  1  0.49747428  0.40516464  0.13893733  1  -0.018262  0  -0.098481  -0.270179  0  3.910905  0
C  C51  1  0.49691187  0.40567772  0.22060162  1  0.416064  0  0.109229  0.319472  0  4.073353  0
C  C52  1  0.50849425  0.59924920  0.87220575  1  -0.072742  0  -0.098692  -0.269594  0  3.913157  0
C  C53  1  0.50287195  0.52465567  0.90734275  1  0.41038  0  0.083317  0.195322  0  4.081394  0
C  C54  1  0.49676964  0.44560988  0.86163387  1  -0.00344  0  -0.11262  -0.198086  0  4.013902  0
C  C55  1  0.49571629  0.44463599  0.78170235  1  -0.066477  0  -0.087688  -0.061295  0  4.029583  0
C  C56  1  0.50074766  0.51913034  0.74424619  1  -0.000821  0  -0.034465  -0.165806  0  3.912271  0
C  C57  1  0.50836410  0.59892032  0.79057014  1  0.450889  0  0.107816  0.316646  0  4.07326  0
C  C58  1  0.87167497  0.49405746  0.49473247  1  -0.056055  0  -0.013463  -0.071377  0  3.938023  0
C  C59  1  0.93482065  0.54953663  0.44637690  1  0.016329  0  -0.006338  0.05774  0  3.979289  0
C  C60  1  0.93455185  0.44032982  0.53521599  1  0.01565  0  -0.092237  -0.106049  0  4.029209  0
C  C61  1  0.87527131  0.60067716  0.39809738  1  -0.021132  0  -0.100711  -0.204715  0  3.959321  0
C  C62  1  0.93734830  0.65069547  0.34875141  1  -0.006874  0  -0.012462  0.112751  0  3.966716  0
C  C63  1  0.12619517  0.49803444  0.48986011  1  -0.101751  0  -0.01428  -0.073645  0  3.942005  0
C  C64  1  0.06126961  0.44248036  0.53310446  1  -0.022116  0  -0.092307  -0.107662  0  4.028368  0
C  C65  1  0.06458643  0.55085819  0.44350678  1  -0.046656  0  -0.005504  0.061116  0  3.984564  0
C  C66  1  0.12615348  0.60200773  0.39177729  1  0.041368  0  -0.100718  -0.205628  0  3.974009  0
C  C67  1  0.06643864  0.65099119  0.34516828  1  -0.051152  0  -0.013826  0.11148  0  3.969886  0
C  C68  1  0.86923114  0.70301099  0.29855780  1  -0.033889  0  -0.235908  -0.399135  0  3.988689  0
C  C69  1  0.13699106  0.70300558  0.29086207  1  -0.078009  0  -0.234987  -0.397315  0  3.990453  0
N  N70  1  0.52573365  0.71847639  0.51077258  1  -1.24396  0  -0.33614  -0.320672  0  3.42079  0
N  N71  1  0.53996408  0.98264731  0.52189368  1  -0.477232  0  -0.135442  -0.117195  0  3.237231  0
N  N72  1  0.46744477  0.01517090  0.47948377  1  -0.448877  0  -0.135636  -0.118702  0  3.235573  0
N  N73  1  0.47499463  0.27970499  0.49687957  1  -1.216794  0  -0.335191  -0.32108  0  3.416166  0
N  N74  1  0.50079860  0.46810720  0.02138648  1  -0.517365  0  -0.150955  -0.13642  0  3.274336  0
N  N75  1  0.50354403  0.53609250  0.98963151  1  -0.523948  0  -0.151058  -0.136405  0  3.27858  0
N  N76  1  0.69682488  0.72718030  0.58880043  1  -1.255501  0  -0.567907  -0.617984  0  3.296586  0
N  N77  1  0.31109400  0.27071395  0.41265702  1  -1.283108  0  -0.568153  -0.62144  0  3.300371  0
N  N78  1  0.48920216  0.33088553  0.25238972  1  -1.276036  0  -0.598043  -0.62604  0  3.365438  0
N  N79  1  0.51839317  0.67394148  0.75905769  1  -1.275321  0  -0.598218  -0.625976  0  3.362672  0
O  O80  1  0.50340480  0.42593219  0.38698372  1  -1.167526  0  -0.315559  -0.554838  0  2.366294  0
O  O81  1  0.50943486  0.56802290  0.38905928  1  -1.167972  0  -0.325002  -0.558896  0  2.348445  0
O  O82  1  0.31776019  0.57323531  0.50210683  1  -1.154356  0  -0.308129  -0.533907  0  2.331285  0
O  O83  1  0.31012179  0.43069370  0.49551035  1  -1.179316  0  -0.313938  -0.569553  0  2.365023  0
O  O84  1  0.49548255  0.57931002  0.62451880  1  -1.163585  0  -0.316449  -0.551907  0  2.368263  0
O  O85  1  0.49296454  0.43711148  0.62148895  1  -1.166088  0  -0.322412  -0.551462  0  2.339728  0
O  O86  1  0.68212784  0.41920606  0.50316818  1  -1.147858  0  -0.312492  -0.538958  0  2.30417  0
O  O87  1  0.68644469  0.56183603  0.51279068  1  -1.19195  0  -0.311238  -0.570442  0  2.389215  0
