# generated using pymatgen
data_CoH16C24(NO2)2
_symmetry_space_group_name_H-M   'P 1'
_cell_length_a   9.39264078
_cell_length_b   11.28774923
_cell_length_c   26.03775207
_cell_angle_alpha   87.59525196
_cell_angle_beta   84.24977449
_cell_angle_gamma   65.39556218
_symmetry_Int_Tables_number   1
_chemical_formula_structural   CoH16C24(NO2)2
_chemical_formula_sum   'Co4 H64 C96 N8 O16'
_cell_volume   2497.28999389
_cell_formula_units_Z   4
loop_
 _symmetry_equiv_pos_site_id
 _symmetry_equiv_pos_as_xyz
  1  'x, y, z'
loop_
 _atom_site_type_symbol
 _atom_site_label
 _atom_site_symmetry_multiplicity
 _atom_site_fract_x
 _atom_site_fract_y
 _atom_site_fract_z
 _atom_site_occupancy
 _atom_site_pbe_bader_charge
 _atom_site_pbe_bader_spin_density
 _atom_site_pbe_cm5_charge
 _atom_site_pbe_ddec_charge
 _atom_site_pbe_ddec_spin_density
 _atom_site_pbe_ddec_sum_bond_order
 _atom_site_pbe_magmom
Co  Co0  1  0.09590268  0.60851162  0.95654552  1  1.296379  2.599018  0.683743  0.877832  2.840872  2.554  2.577
Co  Co1  1  0.29580851  0.60824593  0.54342257  1  1.295359  2.599291  0.683376  0.876972  2.840399  2.55094  2.577
Co  Co2  1  0.90410596  0.39148245  0.04344811  1  1.296255  2.599108  0.683537  0.877663  2.840846  2.552793  2.577
Co  Co3  1  0.70418813  0.39176372  0.45657697  1  1.295432  2.599266  0.683529  0.877297  2.840403  2.551045  2.577
H  H4  1  0.50725129  0.72276270  0.90137239  1  0.070359  0.000319  0.100475  0.101503  0.000121  1.023296  0.0
H  H5  1  0.69432493  0.75055863  0.83428562  1  0.044445  0.00013  0.096343  0.089339  8.5e-05  1.054388  0.0
H  H6  1  0.38957090  0.76501785  0.71819426  1  0.034497  6.4e-05  0.101455  0.102232  2.2e-05  1.015553  0.0
H  H7  1  0.20959148  0.72823073  0.78565925  1  0.079484  0.000565  0.103093  0.106544  0.000312  1.008649  0.0
H  H8  1  0.96454162  0.48876723  0.15500027  1  0.116078  -2e-06  0.104485  0.118583  -0.000154  1.031617  0.0
H  H9  1  0.01033926  0.51658085  0.24493845  1  0.071589  0.000143  0.100453  0.102175  5.4e-05  1.016485  0.0
H  H10  1  0.35150829  0.66532185  0.18847258  1  0.062779  8.7e-05  0.101505  0.101992  1.9e-05  1.00044  0.0
H  H11  1  0.29281618  0.65063005  0.09851619  1  0.079634  0.000286  0.098481  0.101093  7e-05  1.023674  0.0
H  H12  1  0.98090634  0.85653924  0.02162517  1  0.13768  0.001519  0.120198  0.096121  0.000338  0.996583  0.001
H  H13  1  0.76693910  0.08013923  0.02236305  1  0.120706  0.000912  0.110546  0.124081  0.000456  1.017768  0.0
H  H14  1  0.59869666  0.96130744  0.89305014  1  0.090324  0.000887  0.104774  0.107704  0.000441  1.025858  0.0
H  H15  1  0.81927980  0.74367874  0.89932130  1  0.103795  0.001583  0.116337  0.087715  0.000345  1.021982  0.001
H  H16  1  0.61781048  0.26598528  0.01009705  1  0.143537  0.000896  0.108901  0.130643  0.000463  1.063116  0.0
H  H17  1  0.39358437  0.47925256  0.00627305  1  0.10124  0.001259  0.118359  0.087284  0.000213  1.017984  0.001
H  H18  1  0.19525281  0.35075034  0.89847733  1  0.090821  0.001344  0.116958  0.082484  0.000126  1.026548  0.001
H  H19  1  0.40210781  0.12820906  0.90004027  1  0.042552  0.000881  0.109023  0.115008  0.000438  1.004125  0.0
H  H20  1  0.77088050  0.72274873  0.59877944  1  0.064898  0.000332  0.100221  0.100735  0.000127  1.023218  0.0
H  H21  1  0.55568775  0.75073845  0.66580425  1  0.045615  0.000129  0.096606  0.089857  8.4e-05  1.053544  0.0
H  H22  1  0.84610830  0.76450916  0.78198977  1  0.074136  6.3e-05  0.101468  0.102035  2.2e-05  1.016576  0.0
H  H23  1  0.06317162  0.72726504  0.71460850  1  0.054559  0.000568  0.102968  0.106503  0.000311  1.008691  0.0
H  H24  1  0.54681001  0.48903564  0.34507072  1  0.121233  -5e-06  0.104706  0.119077  -0.000154  1.032686  0.0
H  H25  1  0.47365618  0.51683782  0.25506376  1  0.069583  0.000142  0.100182  0.101805  5.4e-05  1.016708  0.0
H  H26  1  0.98349753  0.66504741  0.31125785  1  0.073175  8.6e-05  0.101431  0.101468  1.9e-05  1.00093  0.0
H  H27  1  0.05632528  0.65042462  0.40128462  1  0.077593  0.000285  0.098424  0.101235  6.9e-05  1.023641  0.0
H  H28  1  0.16239417  0.85675224  0.47838734  1  0.112616  0.00151  0.120317  0.096614  0.000337  0.996017  0.001
H  H29  1  0.15287226  0.08023973  0.47768160  1  0.107054  0.000913  0.110807  0.124473  0.000454  1.017814  0.0
H  H30  1  0.44041582  0.96077282  0.60692169  1  0.067287  0.000883  0.105299  0.108396  0.000439  1.025485  0.0
H  H31  1  0.43698616  0.74338269  0.60071310  1  0.121204  0.001588  0.116466  0.088052  0.000343  1.02153  0.001
H  H32  1  0.11664423  0.26585324  0.48991007  1  0.156482  0.000888  0.108937  0.130455  0.000461  1.06304  0.0
H  H33  1  0.12768899  0.47900489  0.49370903  1  0.092271  0.001264  0.118453  0.087019  0.000215  1.018169  0.001
H  H34  1  0.45463984  0.35017267  0.60153887  1  0.093264  0.001343  0.116615  0.082122  0.000126  1.02669  0.001
H  H35  1  0.47005324  0.12774271  0.60004151  1  0.060646  0.000874  0.109557  0.115465  0.000438  1.002687  0.0
H  H36  1  0.49275870  0.27724598  0.09862782  1  0.070261  0.00032  0.100524  0.101562  0.000121  1.023274  0.0
H  H37  1  0.30568549  0.24944908  0.16571114  1  0.044531  0.00013  0.09623  0.089297  8.5e-05  1.054617  0.0
H  H38  1  0.61044287  0.23497037  0.28180428  1  0.034301  6.4e-05  0.10145  0.102254  2.2e-05  1.015668  0.0
H  H39  1  0.79041493  0.27177016  0.21434240  1  0.079597  0.000564  0.103111  0.106563  0.000312  1.00867  0.0
H  H40  1  0.03545763  0.51123073  0.84499671  1  0.116057  -1e-06  0.104525  0.118602  -0.000153  1.031634  0.0
H  H41  1  0.98963938  0.48342199  0.75506153  1  0.071829  0.000143  0.100489  0.102201  5.4e-05  1.016613  0.0
H  H42  1  0.64848418  0.33467904  0.81152691  1  0.062734  8.6e-05  0.10152  0.101985  1.9e-05  1.000394  0.0
H  H43  1  0.70718657  0.34936304  0.90148075  1  0.079708  0.000285  0.098503  0.101131  6.9e-05  1.023668  0.0
H  H44  1  0.01911434  0.14344800  0.97837351  1  0.137545  0.001518  0.120242  0.096066  0.000337  0.996736  0.001
H  H45  1  0.23306918  0.91984704  0.97763227  1  0.12031  0.000911  0.110479  0.124012  0.000456  1.017829  0.0
H  H46  1  0.40129192  0.03868857  0.10695650  1  0.090431  0.000886  0.104766  0.1077  0.00044  1.025814  0.0
H  H47  1  0.18070676  0.25631045  0.10068017  1  0.103948  0.001582  0.116317  0.087678  0.000345  1.022078  0.001
H  H48  1  0.38217742  0.73399709  0.98990872  1  0.146546  0.000896  0.108873  0.130585  0.000464  1.063244  0.0
H  H49  1  0.60640900  0.52074248  0.99373535  1  0.101245  0.001258  0.118386  0.087346  0.000213  1.017783  0.001
H  H50  1  0.80474575  0.64924275  0.10152592  1  0.091252  0.001343  0.116936  0.08244  0.000127  1.026434  0.001
H  H51  1  0.59789506  0.87178402  0.09996512  1  0.042189  0.000881  0.109111  0.115089  0.000438  1.004063  0.0
H  H52  1  0.22913633  0.27724631  0.40122269  1  0.065504  0.000332  0.100214  0.100749  0.000127  1.023207  0.0
H  H53  1  0.44431835  0.24925659  0.33419598  1  0.04553  0.000129  0.096601  0.089855  8.4e-05  1.053533  0.0
H  H54  1  0.15387913  0.23550829  0.21801266  1  0.074318  6.3e-05  0.101398  0.101961  2.2e-05  1.016748  0.0
H  H55  1  0.93682450  0.27274364  0.28539531  1  0.054565  0.000568  0.102984  0.106583  0.000311  1.008683  0.0
H  H56  1  0.45317990  0.51096817  0.65492765  1  0.12167  -5e-06  0.104719  0.119072  -0.000154  1.032669  0.0
H  H57  1  0.52633383  0.48314651  0.74493383  1  0.068975  0.000142  0.100163  0.101786  5.4e-05  1.01656  0.0
H  H58  1  0.01649570  0.33494763  0.68874019  1  0.073223  8.6e-05  0.101401  0.101454  1.9e-05  1.000955  0.0
H  H59  1  0.94366557  0.34957724  0.59871145  1  0.07755  0.000285  0.098422  0.101288  6.9e-05  1.02359  0.0
H  H60  1  0.83760855  0.14326229  0.52160842  1  0.112269  0.001511  0.120377  0.096714  0.000337  0.995896  0.001
H  H61  1  0.84714294  0.91976700  0.52231500  1  0.107125  0.000913  0.110878  0.124573  0.000454  1.017747  0.0
H  H62  1  0.55958656  0.03923391  0.39307730  1  0.067227  0.000883  0.105307  0.108458  0.000439  1.025429  0.0
H  H63  1  0.56301693  0.25662891  0.39928155  1  0.121003  0.001589  0.116493  0.088089  0.000343  1.021373  0.001
H  H64  1  0.88335685  0.73416031  0.51008731  1  0.156574  0.000887  0.108987  0.130473  0.00046  1.063011  0.0
H  H65  1  0.87231468  0.52100574  0.50629177  1  0.091914  0.001264  0.118419  0.086946  0.000215  1.018112  0.001
H  H66  1  0.54536159  0.64983601  0.39846166  1  0.093072  0.001343  0.116572  0.082013  0.000126  1.02695  0.001
H  H67  1  0.52994442  0.87226500  0.39996072  1  0.060628  0.000874  0.109547  0.115442  0.000438  1.002679  0.0
C  C68  1  0.24541897  0.68767873  0.88752436  1  1.513962  -0.005342  0.192667  0.544425  -0.007063  4.222716  -0.006
C  C69  1  0.34680991  0.72217830  0.84779486  1  -0.042047  0.002687  -0.020787  -0.028057  0.00144  3.99361  0.002
C  C70  1  0.48176328  0.73317086  0.86106905  1  0.010961  -6.9e-05  -0.08793  -0.09548  -0.000437  3.98951  0.0
C  C71  1  0.58623215  0.75011025  0.82297406  1  -0.066861  0.000368  -0.092056  -0.131386  8.9e-05  3.989708  0.0
C  C72  1  0.55955113  0.75922156  0.77037382  1  -0.00017  -0.001643  -0.004802  0.067746  -0.001765  3.979284  -0.001
C  C73  1  0.41801640  0.75640409  0.75809436  1  -0.001052  0.000281  -0.088862  -0.128359  2.6e-05  3.976736  0.0
C  C74  1  0.31500599  0.73620064  0.79590923  1  -0.062999  -4.6e-05  -0.086326  -0.094609  -0.000426  3.989194  0.0
C  C75  1  0.09800732  0.55181781  0.06698626  1  1.51733  -0.000813  0.2134  0.569038  -0.00235  4.200638  0.002
C  C76  1  0.12560087  0.56869860  0.12100846  1  -0.032512  0.00861  -0.024183  -0.04728  0.004401  4.001064  0.007
C  C77  1  0.04551676  0.53149734  0.16248726  1  -0.067453  0.000672  -0.090032  -0.108041  9.6e-05  3.980666  0.0
C  C78  1  0.07173491  0.54677304  0.21291285  1  -0.054739  0.000634  -0.09013  -0.126512  0.000296  3.977465  0.0
C  C79  1  0.18461377  0.59211655  0.22319651  1  -0.003452  -0.000172  -0.003327  0.071973  -0.00026  3.992074  0.0
C  C80  1  0.26456112  0.62873632  0.18130112  1  -0.102214  0.000405  -0.089446  -0.129306  0.00013  3.976011  0.0
C  C81  1  0.23282820  0.62009261  0.13089324  1  0.033686  0.000642  -0.087201  -0.086079  -9.7e-05  3.97997  0.0
C  C82  1  0.89284883  0.88519411  0.99388723  1  0.456894  -0.009204  0.047414  0.096341  -0.009895  3.94803  -0.005
C  C83  1  0.77243532  0.00975606  0.99391495  1  -0.024191  0.00188  -0.081978  -0.174332  0.000425  3.922141  0.002
C  C84  1  0.66092289  0.04262955  0.95744085  1  -0.034787  -0.014503  0.008027  0.09962  -0.015472  3.980632  -0.008
C  C85  1  0.67902010  0.94418412  0.92271629  1  -0.043432  0.001666  -0.085964  -0.177097  0.000288  3.954773  0.002
C  C86  1  0.80221178  0.82224789  0.92547628  1  0.451261  -0.009224  0.04468  0.09849  -0.009869  3.953594  -0.006
C  C87  1  0.53183470  0.17380966  0.95552251  1  -0.037049  -0.014211  0.007231  0.098269  -0.015178  3.983199  -0.008
C  C88  1  0.52665280  0.27719448  0.98505918  1  -0.024835  0.001891  -0.084656  -0.180004  0.000412  3.921969  0.002
C  C89  1  0.40193590  0.39860852  0.98279290  1  0.447433  -0.009687  0.044594  0.098245  -0.01023  3.940482  -0.006
C  C90  1  0.28993920  0.32738235  0.92331080  1  0.452934  -0.008779  0.047148  0.104752  -0.009501  3.944634  -0.005
C  C91  1  0.40848999  0.20232587  0.92401714  1  0.057747  0.001548  -0.083253  -0.174547  0.000258  3.949121  0.002
C  C92  1  0.06774813  0.68707060  0.61269405  1  1.499892  -0.005311  0.193009  0.546446  -0.007059  4.220505  -0.006
C  C93  1  0.93185929  0.72175756  0.65242571  1  -0.026508  0.002693  -0.021147  -0.030053  0.001442  3.994089  0.002
C  C94  1  0.78581128  0.73305703  0.63910561  1  -0.049932  -4.3e-05  -0.087734  -0.093506  -0.000428  3.987995  0.0
C  C95  1  0.66427675  0.75010817  0.67715899  1  -0.025437  0.000366  -0.092713  -0.133684  8.6e-05  3.989777  0.0
C  C96  1  0.68182320  0.75914677  0.72976769  1  -0.025406  -0.001648  -0.004582  0.069384  -0.001766  3.978613  -0.001
C  C97  1  0.82627764  0.75603996  0.74208177  1  -0.071682  0.000284  -0.08938  -0.128913  2.8e-05  3.978749  0.0
C  C98  1  0.94964200  0.73565921  0.70430884  1  0.022224  -7.6e-05  -0.085058  -0.093059  -0.000431  3.990184  0.0
C  C99  1  0.34992528  0.55201505  0.43297660  1  1.522515  -0.00105  0.214542  0.570826  -0.002334  4.199243  0.002
C  C100  1  0.30565325  0.56879639  0.37892931  1  -0.031042  0.008562  -0.024896  -0.048114  0.004369  4.001763  0.007
C  C101  1  0.42314049  0.53168209  0.33751094  1  -0.032245  0.000687  -0.089856  -0.108792  0.000114  3.981996  0.0
C  C102  1  0.38190846  0.54694754  0.28704268  1  -0.075752  0.000623  -0.089795  -0.125678  0.000289  3.977703  0.0
C  C103  1  0.22374085  0.59211973  0.27668334  1  0.014577  -0.000151  -0.002985  0.073516  -0.000236  3.992178  0.0
C  C104  1  0.10697157  0.62856149  0.31852011  1  -0.087276  0.000395  -0.088991  -0.128269  0.000124  3.974427  0.0
C  C105  1  0.14704442  0.62000730  0.36896073  1  -0.036146  0.000669  -0.087383  -0.086887  -8.4e-05  3.978328  0.0
C  C106  1  0.22186808  0.88526379  0.50613301  1  0.478032  -0.009158  0.047709  0.096257  -0.009855  3.948622  -0.005
C  C107  1  0.21781964  0.00974814  0.50612253  1  -0.035192  0.001861  -0.082231  -0.175287  0.000423  3.924104  0.002
C  C108  1  0.29668465  0.04241482  0.54256694  1  -0.036324  -0.014492  0.007552  0.09907  -0.015438  3.979827  -0.008
C  C109  1  0.37708376  0.94382865  0.57727148  1  0.002462  0.001651  -0.085657  -0.176972  0.000276  3.954557  0.002
C  C110  1  0.37558126  0.82200258  0.57453451  1  0.458596  -0.009224  0.044411  0.097657  -0.009853  3.953439  -0.006
C  C111  1  0.29483089  0.17348406  0.54447840  1  -0.013914  -0.014182  0.007858  0.099885  -0.015165  3.981135  -0.008
C  C112  1  0.19672629  0.27692060  0.51492043  1  -0.063459  0.001873  -0.084791  -0.180475  0.0004  3.923084  0.002
C  C113  1  0.20004710  0.39828768  0.51719198  1  0.48571  -0.009686  0.044681  0.098876  -0.010219  3.939544  -0.006
C  C114  1  0.38337785  0.32685194  0.57667559  1  0.508855  -0.008756  0.047994  0.105565  -0.009478  3.943772  -0.005
C  C115  1  0.38973753  0.20185546  0.57599052  1  -0.036992  0.001552  -0.083926  -0.175756  0.000259  3.945324  0.002
C  C116  1  0.75455858  0.31232021  0.11248764  1  1.512758  -0.005329  0.192855  0.544635  -0.007051  4.223106  -0.006
C  C117  1  0.65317343  0.27783038  0.15221366  1  -0.040947  0.002686  -0.020804  -0.028247  0.001441  3.994449  0.002
C  C118  1  0.51823194  0.26684172  0.13893280  1  0.011041  -6.6e-05  -0.087953  -0.095476  -0.000434  3.99001  0.0
C  C119  1  0.41377110  0.24989258  0.17702421  1  -0.067083  0.000367  -0.092033  -0.131444  8.8e-05  3.990249  0.0
C  C120  1  0.44045210  0.24078127  0.22962368  1  -6.3e-05  -0.001638  -0.004818  0.067761  -0.00176  3.97921  -0.001
C  C121  1  0.58198991  0.24359484  0.24190695  1  -0.001107  0.00028  -0.088926  -0.128544  2.6e-05  3.976925  0.0
C  C122  1  0.68499785  0.26380122  0.20409633  1  -0.062927  -4.4e-05  -0.086284  -0.09441  -0.000423  3.989555  0.0
C  C123  1  0.90201291  0.44818502  0.93300139  1  1.517861  -0.000815  0.21316  0.568976  -0.002345  4.201036  0.002
C  C124  1  0.87440754  0.43130229  0.87898274  1  -0.032843  0.008608  -0.024184  -0.046894  0.0044  4.001298  0.007
C  C125  1  0.95448234  0.46849868  0.83750669  1  -0.067248  0.000673  -0.089945  -0.108057  9.7e-05  3.981159  0.0
C  C126  1  0.92825478  0.45322687  0.78708369  1  -0.054997  0.000634  -0.090183  -0.126617  0.000296  3.97778  0.0
C  C127  1  0.81537788  0.40787947  0.77680079  1  -0.003721  -0.000173  -0.003368  0.072018  -0.00026  3.991988  0.0
C  C128  1  0.73543377  0.37125970  0.81869836  1  -0.102225  0.000406  -0.089436  -0.129229  0.00013  3.975678  0.0
C  C129  1  0.76717944  0.37990146  0.86910503  1  0.033747  0.000642  -0.087189  -0.086268  -9.7e-05  3.979772  0.0
C  C130  1  0.10717670  0.11478339  0.00610914  1  0.456995  -0.009198  0.047541  0.096653  -0.009888  3.948507  -0.005
C  C131  1  0.22758226  0.99022241  0.00608401  1  -0.024426  0.001879  -0.081998  -0.174281  0.000425  3.922259  0.002
C  C132  1  0.33907850  0.95735575  0.04256244  1  -0.027921  -0.01449  0.007993  0.099399  -0.015461  3.980998  -0.008
C  C133  1  0.32098653  0.05579922  0.07728645  1  -0.050376  0.001662  -0.085836  -0.176989  0.000288  3.954694  0.002
C  C134  1  0.19780114  0.17773351  0.07452357  1  0.451625  -0.009218  0.044613  0.098661  -0.009862  3.953763  -0.006
C  C135  1  0.46816037  0.82618830  0.04448231  1  -0.037595  -0.014199  0.007248  0.09831  -0.015166  3.983341  -0.008
C  C136  1  0.47332982  0.72280056  0.01494579  1  -0.027414  0.00189  -0.084605  -0.180009  0.000412  3.921728  0.002
C  C137  1  0.59805003  0.60138847  0.01721228  1  0.447132  -0.009677  0.044507  0.098247  -0.010219  3.940232  -0.006
C  C138  1  0.71004873  0.67262341  0.07669184  1  0.452709  -0.008772  0.047183  0.104776  -0.009493  3.944538  -0.005
C  C139  1  0.59150370  0.79767696  0.07598687  1  0.058411  0.001547  -0.083383  -0.174547  0.000258  3.949162  0.002
C  C140  1  0.93225054  0.31293516  0.38731125  1  1.500618  -0.005316  0.193098  0.54662  -0.007065  4.220356  -0.006
C  C141  1  0.06813901  0.27824040  0.34758014  1  -0.027126  0.002692  -0.021136  -0.03033  0.001443  3.993863  0.002
C  C142  1  0.21419523  0.26694580  0.36089600  1  -0.050563  -4.5e-05  -0.087747  -0.093413  -0.00043  3.987879  0.0
C  C143  1  0.33572713  0.24989564  0.32284232  1  -0.025326  0.000367  -0.092664  -0.133653  8.7e-05  3.989672  0.0
C  C144  1  0.31818238  0.24085996  0.27023080  1  -0.025252  -0.001652  -0.004485  0.069465  -0.00177  3.978433  -0.001
C  C145  1  0.17371687  0.24396970  0.25791824  1  -0.071992  0.000285  -0.089337  -0.128763  2.9e-05  3.978742  0.0
C  C146  1  0.05035625  0.26434947  0.29569412  1  0.022232  -7.8e-05  -0.085105  -0.0932  -0.000433  3.989933  0.0
C  C147  1  0.65007987  0.44798389  0.56701860  1  1.522616  -0.001056  0.214608  0.57094  -0.002336  4.199077  0.002
C  C148  1  0.69434445  0.43120255  0.62106848  1  -0.030822  0.008563  -0.024808  -0.047796  0.004369  4.001582  0.007
C  C149  1  0.57685546  0.46831392  0.66248774  1  -0.033191  0.000688  -0.089846  -0.108899  0.000114  3.981822  0.0
C  C150  1  0.61808857  0.45303776  0.71295539  1  -0.075161  0.000623  -0.089779  -0.125596  0.000289  3.977644  0.0
C  C151  1  0.77625423  0.40786947  0.72331512  1  0.014305  -0.00015  -0.003044  0.073315  -0.000235  3.992299  0.0
C  C152  1  0.89302603  0.37142479  0.68147716  1  -0.086601  0.000394  -0.0889  -0.128085  0.000124  3.974299  0.0
C  C153  1  0.85294797  0.37999359  0.63103415  1  -0.036122  0.00067  -0.087433  -0.087138  -8.3e-05  3.978603  0.0
C  C154  1  0.77813319  0.11475366  0.49386352  1  0.478621  -0.009161  0.047538  0.095973  -0.009858  3.948786  -0.005
C  C155  1  0.78218830  0.99026249  0.49387772  1  -0.035405  0.001862  -0.082212  -0.175181  0.000423  3.923849  0.002
C  C156  1  0.70332102  0.95759386  0.45743036  1  -0.036131  -0.0145  0.007503  0.098815  -0.015446  3.979589  -0.008
C  C157  1  0.62291995  0.05618392  0.42272506  1  0.001924  0.001651  -0.085672  -0.176971  0.000276  3.954567  0.002
C  C158  1  0.62441673  0.17801292  0.42546449  1  0.459772  -0.009228  0.044404  0.097703  -0.009857  3.953429  -0.006
C  C159  1  0.70517146  0.82652268  0.45551868  1  -0.014356  -0.014188  0.007822  0.099956  -0.015171  3.980818  -0.008
C  C160  1  0.80328134  0.72308418  0.48507803  1  -0.063598  0.001872  -0.0848  -0.180455  0.000399  3.922936  0.002
C  C161  1  0.79995675  0.60171613  0.48280741  1  0.486213  -0.009689  0.044651  0.09885  -0.010223  3.939345  -0.006
C  C162  1  0.61662776  0.67315479  0.42332483  1  0.509032  -0.00876  0.048056  0.105704  -0.009481  3.943885  -0.005
C  C163  1  0.61026689  0.79814932  0.42400805  1  -0.036477  0.001552  -0.083942  -0.175814  0.000259  3.945451  0.002
N  N164  1  0.90864175  0.79192262  0.96034104  1  -1.200718  0.047469  -0.326842  -0.238363  0.024962  3.585803  0.045
N  N165  1  0.28369649  0.42521089  0.95264197  1  -1.210206  0.042773  -0.326897  -0.246366  0.022524  3.589295  0.041
N  N166  1  0.29935056  0.79186131  0.53966736  1  -1.221649  0.047352  -0.327179  -0.237886  0.02491  3.582171  0.045
N  N167  1  0.29179009  0.42476308  0.54732813  1  -1.213267  0.042739  -0.327124  -0.246358  0.022529  3.587763  0.041
N  N168  1  0.09137776  0.20805195  0.03965677  1  -1.200705  0.047447  -0.326846  -0.238649  0.024949  3.586226  0.045
N  N169  1  0.71629786  0.57479487  0.04736042  1  -1.210217  0.042763  -0.326775  -0.24631  0.022518  3.589193  0.041
N  N170  1  0.70064439  0.20815809  0.46033053  1  -1.22249  0.04736  -0.327162  -0.237918  0.024915  3.582315  0.045
N  N171  1  0.70821689  0.57523878  0.45267194  1  -1.213587  0.04274  -0.327114  -0.246305  0.022528  3.587313  0.041
O  O172  1  0.25343594  0.70288887  0.93550948  1  -1.142769  0.082999  -0.311409  -0.546969  0.042806  2.251205  0.071
O  O173  1  0.15442866  0.63849436  0.87413544  1  -1.141837  0.083355  -0.31647  -0.551878  0.042791  2.201511  0.072
O  O174  1  0.12219381  0.62622902  0.03216593  1  -1.148665  0.091644  -0.304386  -0.541626  0.048151  2.379539  0.076
O  O175  1  0.05418660  0.46275296  0.05789816  1  -1.173714  0.094264  -0.313765  -0.575963  0.049503  2.532277  0.078
O  O176  1  0.04426655  0.70231104  0.56471926  1  -1.143953  0.083306  -0.311929  -0.547759  0.042979  2.249713  0.072
O  O177  1  0.20798040  0.63786432  0.62604177  1  -1.143613  0.08304  -0.316321  -0.552236  0.042523  2.200566  0.072
O  O178  1  0.25116102  0.62643756  0.46775995  1  -1.149549  0.091587  -0.305608  -0.542842  0.048066  2.376462  0.076
O  O179  1  0.48278821  0.46293469  0.44216330  1  -1.172883  0.094377  -0.313888  -0.576278  0.049509  2.533106  0.078
O  O180  1  0.74652365  0.29710324  0.06450486  1  -1.142385  0.08294  -0.311717  -0.54715  0.042791  2.250794  0.071
O  O181  1  0.84554856  0.36149677  0.12588056  1  -1.141557  0.083308  -0.316359  -0.551855  0.042769  2.201574  0.072
O  O182  1  0.87780106  0.37377285  0.96781041  1  -1.149564  0.091639  -0.304397  -0.541858  0.048131  2.379393  0.076
O  O183  1  0.94584784  0.53724110  0.94210293  1  -1.173068  0.094315  -0.313635  -0.575875  0.04954  2.532386  0.078
O  O184  1  0.95571707  0.29770348  0.43528914  1  -1.144278  0.083328  -0.31206  -0.547864  0.042986  2.249497  0.072
O  O185  1  0.79200685  0.36213656  0.37396752  1  -1.143604  0.083064  -0.316358  -0.55231  0.042537  2.200673  0.072
O  O186  1  0.74882809  0.37356333  0.53223007  1  -1.149353  0.091601  -0.305626  -0.542995  0.048075  2.376428  0.076
O  O187  1  0.51721956  0.53707204  0.55783857  1  -1.17313  0.094353  -0.313891  -0.576252  0.049492  2.53316  0.078
