# generated using pymatgen
data_KNiH12C18(NO3)3
_symmetry_space_group_name_H-M   'P 1'
_cell_length_a   10.25928797
_cell_length_b   10.25926303
_cell_length_c   14.00518433
_cell_angle_alpha   68.51213234
_cell_angle_beta   68.51224579
_cell_angle_gamma   59.99824171
_symmetry_Int_Tables_number   1
_chemical_formula_structural   KNiH12C18(NO3)3
_chemical_formula_sum   'K2 Ni2 H24 C36 N6 O18'
_cell_volume   1156.75909815
_cell_formula_units_Z   2
loop_
 _symmetry_equiv_pos_site_id
 _symmetry_equiv_pos_as_xyz
  1  'x, y, z'
loop_
 _atom_site_type_symbol
 _atom_site_label
 _atom_site_symmetry_multiplicity
 _atom_site_fract_x
 _atom_site_fract_y
 _atom_site_fract_z
 _atom_site_occupancy
 _atom_site_pbe_bader_charge
 _atom_site_pbe_bader_spin_density
 _atom_site_pbe_cm5_charge
 _atom_site_pbe_ddec_charge
 _atom_site_pbe_ddec_spin_density
 _atom_site_pbe_ddec_sum_bond_order
 _atom_site_pbe_magmom
K  K0  1  0.58663568  0.58663650  0.24036239  1  0.878021  0.000527  0.910113  0.87119  0.000292  0.790825  0.0
K  K1  1  0.08664371  0.08662557  0.74035945  1  0.878036  0.000527  0.910132  0.871187  0.000292  0.790872  0.0
Ni  Ni2  1  0.49635696  0.49640397  0.51090416  1  1.2572  1.606766  0.634127  0.964352  1.799443  2.491357  1.594
Ni  Ni3  1  0.99640787  0.99635541  0.01090368  1  1.257224  1.606768  0.634188  0.964464  1.799446  2.491314  1.594
H  H4  1  0.78326833  0.22999183  0.26514334  1  0.537562  -3.7e-05  0.306285  0.274689  3.3e-05  0.997837  0.0
H  H5  1  0.72157630  0.78331097  0.26516788  1  0.529995  -3.6e-05  0.30674  0.274896  3.4e-05  0.996539  0.0
H  H6  1  0.22995081  0.72162760  0.26514438  1  0.526549  -3.5e-05  0.305458  0.272658  3.6e-05  0.998116  0.0
H  H7  1  0.28330876  0.22157551  0.76516785  1  0.529989  -3.6e-05  0.306732  0.274895  3.4e-05  0.996525  0.0
H  H8  1  0.22163012  0.72994863  0.76514434  1  0.526566  -3.5e-05  0.305464  0.272677  3.6e-05  0.99809  0.0
H  H9  1  0.72999399  0.28326582  0.76514347  1  0.537542  -3.7e-05  0.30631  0.274751  3.3e-05  0.997789  0.0
H  H10  1  0.05800123  0.02852305  0.54180510  1  0.105624  0.000108  0.11448  0.1042  4.8e-05  1.011207  0.0
H  H11  1  0.37154048  0.05808184  0.54184562  1  0.107517  0.000107  0.113722  0.10282  4.7e-05  1.012042  0.0
H  H12  1  0.02861902  0.37155479  0.54185845  1  0.113224  0.000108  0.114297  0.102944  4.7e-05  1.011078  0.0
H  H13  1  0.55808545  0.87153930  0.04184644  1  0.107488  0.000107  0.113728  0.102809  4.7e-05  1.012059  0.0
H  H14  1  0.87155596  0.52861716  0.04185747  1  0.113218  0.000108  0.114313  0.102959  4.8e-05  1.011073  0.0
H  H15  1  0.52852527  0.55799607  0.04180602  1  0.105566  0.000108  0.114497  0.104201  4.8e-05  1.011175  0.0
H  H16  1  0.18537609  0.91735663  0.38072815  1  0.121206  5.5e-05  0.111153  0.130295  2.2e-05  1.013999  0.0
H  H17  1  0.51641077  0.18547824  0.38071030  1  0.118208  5.2e-05  0.110572  0.129746  2.1e-05  1.015062  0.0
H  H18  1  0.91742153  0.51640689  0.38074288  1  0.111066  5.4e-05  0.110679  0.130369  2.3e-05  1.013687  0.0
H  H19  1  0.68547775  0.01641274  0.88071002  1  0.118205  5.2e-05  0.110567  0.12973  2.1e-05  1.015092  0.0
H  H20  1  0.01640508  0.41741962  0.88074217  1  0.111343  5.4e-05  0.110663  0.130352  2.3e-05  1.013686  0.0
H  H21  1  0.41735782  0.68537311  0.88072948  1  0.121252  5.5e-05  0.111165  0.130344  2.2e-05  1.013999  0.0
H  H22  1  0.03035255  0.02912227  0.24022188  1  0.175951  0.000392  0.12915  0.110842  0.000152  1.011806  0.0
H  H23  1  0.70017998  0.03042845  0.24022970  1  0.149553  0.000394  0.129477  0.10946  0.000152  1.012666  0.0
H  H24  1  0.02917943  0.70016319  0.24025215  1  0.181183  0.000385  0.128865  0.110319  0.000151  1.012363  0.0
H  H25  1  0.53042651  0.20018175  0.74022974  1  0.14955  0.000394  0.129476  0.109454  0.000152  1.012661  0.0
H  H26  1  0.20016248  0.52917841  0.74025201  1  0.180969  0.000385  0.128864  0.110328  0.000151  1.012349  0.0
H  H27  1  0.52912181  0.53034936  0.74022382  1  0.175962  0.000392  0.129153  0.110807  0.000152  1.011844  0.0
C  C28  1  0.76249869  0.24339125  0.41432124  1  1.250227  -0.001294  0.226462  0.479115  -0.00169  4.076377  -0.001
C  C29  1  0.57971865  0.76257751  0.41435079  1  1.236735  -0.00135  0.225863  0.477922  -0.001681  4.076492  -0.001
C  C30  1  0.24337393  0.57982099  0.41432583  1  1.25819  -0.001337  0.226191  0.476969  -0.001681  4.075981  -0.001
C  C31  1  0.26257596  0.07971726  0.91435221  1  1.236849  -0.00135  0.22582  0.477793  -0.00168  4.0766  -0.001
C  C32  1  0.07982168  0.74337668  0.91432490  1  1.258193  -0.001337  0.226257  0.477084  -0.00168  4.075907  -0.001
C  C33  1  0.74339925  0.26249092  0.91431979  1  1.250191  -0.001294  0.226475  0.479101  -0.00169  4.076496  -0.001
C  C34  1  0.84654311  0.18737154  0.49430731  1  -0.036218  0.001119  -0.026787  -0.216202  -1.7e-05  3.917668  0.001
C  C35  1  0.47168435  0.84664912  0.49431231  1  -0.016286  0.001133  -0.025548  -0.214935  -7e-06  3.916223  0.001
C  C36  1  0.18743830  0.47170011  0.49428124  1  -0.042243  0.001139  -0.026937  -0.215497  -9e-06  3.918649  0.001
C  C37  1  0.34665223  0.97168381  0.99431163  1  -0.015977  0.001134  -0.025604  -0.215  -7e-06  3.916304  0.001
C  C38  1  0.97170170  0.68743811  0.99428050  1  -0.042169  0.00114  -0.026989  -0.215575  -9e-06  3.918596  0.001
C  C39  1  0.68737424  0.34654139  0.99430776  1  -0.036284  0.00112  -0.026824  -0.216303  -1.6e-05  3.917676  0.001
C  C40  1  0.99637488  0.07146009  0.47987316  1  -0.064333  -0.001547  -0.054796  -0.006818  -0.0017  3.957735  -0.001
C  C41  1  0.45206065  0.99654405  0.47985243  1  -0.069218  -0.001555  -0.054073  -0.00452  -0.001709  3.956183  -0.001
C  C42  1  0.07160925  0.45208265  0.47986538  1  -0.023047  -0.001548  -0.054927  -0.004714  -0.001705  3.958002  -0.001
C  C43  1  0.49654392  0.95206204  0.97985288  1  -0.069575  -0.001555  -0.054028  -0.004402  -0.001709  3.956261  -0.001
C  C44  1  0.95208283  0.57161021  0.97986403  1  -0.022934  -0.001548  -0.055004  -0.004823  -0.001705  3.958094  -0.001
C  C45  1  0.57146540  0.49636763  0.97987359  1  -0.064238  -0.001547  -0.054821  -0.006734  -0.0017  3.957795  -0.001
C  C46  1  0.06877556  0.00909476  0.39010108  1  0.086407  -0.000677  -0.104612  -0.183712  -0.000832  4.013089  0.0
C  C47  1  0.53176682  0.06894027  0.39006463  1  0.035382  -0.00067  -0.104223  -0.184223  -0.000815  4.014071  0.0
C  C48  1  0.00923578  0.53178472  0.39008758  1  0.003411  -0.000668  -0.105649  -0.187083  -0.000816  4.014524  0.0
C  C49  1  0.56893945  0.03177011  0.89006403  1  0.035482  -0.00067  -0.104241  -0.184287  -0.000815  4.01407  0.0
C  C50  1  0.03178250  0.50923499  0.89008702  1  0.003004  -0.000668  -0.105594  -0.186987  -0.000816  4.014426  0.0
C  C51  1  0.50909665  0.56877171  0.89010255  1  0.086065  -0.000677  -0.104645  -0.183865  -0.000832  4.01308  0.0
C  C52  1  0.98708158  0.06749775  0.31338313  1  0.337138  -0.000123  0.062626  0.118668  -0.00034  3.900037  0.0
C  C53  1  0.63181413  0.98720839  0.31336127  1  0.404117  -0.000104  0.062821  0.119979  -0.000342  3.898467  0.0
C  C54  1  0.06759461  0.63182939  0.31339900  1  0.379654  -0.000101  0.064245  0.120355  -0.000341  3.900458  0.0
C  C55  1  0.48720540  0.13181655  0.81336141  1  0.404084  -0.000103  0.062854  0.120059  -0.000342  3.898411  0.0
C  C56  1  0.13182910  0.56759591  0.81339809  1  0.379878  -0.000101  0.064243  0.120327  -0.00034  3.900468  0.0
C  C57  1  0.56750196  0.48707674  0.81338178  1  0.337516  -0.000123  0.062634  0.118765  -0.000339  3.899937  0.0
C  C58  1  0.77809847  0.24862181  0.59222918  1  1.597741  -0.002609  0.20864  0.607884  -0.002956  4.205473  -0.002
C  C59  1  0.38108453  0.77813155  0.59225570  1  1.575816  -0.002583  0.20587  0.606691  -0.002951  4.208904  -0.002
C  C60  1  0.24860128  0.38107448  0.59222321  1  1.555459  -0.002595  0.205954  0.603946  -0.002964  4.205784  -0.002
C  C61  1  0.27812998  0.88108052  0.09225568  1  1.575658  -0.002583  0.205811  0.606664  -0.00295  4.208795  -0.002
C  C62  1  0.88107814  0.74860313  0.09222192  1  1.555107  -0.002596  0.205986  0.603998  -0.002964  4.205752  -0.002
C  C63  1  0.74862825  0.27808929  0.09222843  1  1.597745  -0.00261  0.208682  0.607966  -0.002956  4.205339  -0.002
N  N64  1  0.84174974  0.17989810  0.32654855  1  -1.297046  0.003787  -0.363067  -0.261258  0.001918  3.595008  0.003
N  N65  1  0.65164795  0.84185791  0.32654143  1  -1.268583  0.003787  -0.363208  -0.260629  0.001922  3.593238  0.003
N  N66  1  0.17994158  0.65171440  0.32655223  1  -1.285913  0.00378  -0.362496  -0.258192  0.001917  3.593347  0.003
N  N67  1  0.34185866  0.15164468  0.82654202  1  -1.268606  0.003788  -0.363225  -0.260651  0.001923  3.593227  0.003
N  N68  1  0.15171365  0.67993978  0.82655225  1  -1.285913  0.00378  -0.362511  -0.258211  0.001918  3.593369  0.003
N  N69  1  0.67989976  0.34174849  0.82654915  1  -1.296848  0.003788  -0.363086  -0.26134  0.001919  3.595035  0.003
O  O70  1  0.62384315  0.34392889  0.41432956  1  -1.156445  0.057287  -0.37116  -0.57793  0.031722  2.416127  0.053
O  O71  1  0.61801016  0.62386079  0.41441298  1  -1.151988  0.057502  -0.370632  -0.576943  0.031693  2.415639  0.053
O  O72  1  0.34377485  0.61807858  0.41437293  1  -1.144227  0.057242  -0.369582  -0.575573  0.031687  2.414562  0.053
O  O73  1  0.12386462  0.11800336  0.91441434  1  -1.152058  0.057502  -0.370601  -0.576872  0.031694  2.415718  0.053
O  O74  1  0.11807519  0.84377539  0.91437438  1  -1.144265  0.057238  -0.369615  -0.575641  0.031685  2.414652  0.053
O  O75  1  0.84393440  0.12384029  0.91432969  1  -1.156611  0.057283  -0.371164  -0.577896  0.03172  2.416306  0.053
O  O76  1  0.64887199  0.36661189  0.60328533  1  -1.151573  0.066326  -0.314931  -0.55719  0.036489  2.363079  0.062
O  O77  1  0.38127286  0.64889510  0.60332058  1  -1.147466  0.066242  -0.313607  -0.557495  0.036517  2.364966  0.062
O  O78  1  0.36656886  0.38127755  0.60330430  1  -1.141237  0.066334  -0.313733  -0.556218  0.036528  2.362419  0.062
O  O79  1  0.14889590  0.88127405  0.10331849  1  -1.147245  0.06624  -0.313541  -0.557446  0.036515  2.365109  0.062
O  O80  1  0.88128266  0.86656780  0.10330122  1  -1.141268  0.066331  -0.313699  -0.556199  0.036526  2.362507  0.062
O  O81  1  0.86661846  0.14886833  0.10328243  1  -1.151753  0.066326  -0.314962  -0.557252  0.036489  2.363238  0.062
O  O82  1  0.85361039  0.17908680  0.66426704  1  -1.216645  0.008072  -0.438029  -0.634319  0.003883  2.201582  0.007
O  O83  1  0.30319438  0.85358854  0.66432873  1  -1.215299  0.008087  -0.437898  -0.634251  0.00389  2.201598  0.007
O  O84  1  0.17899686  0.30316924  0.66429999  1  -1.205421  0.008084  -0.437914  -0.632609  0.003886  2.200254  0.007
O  O85  1  0.35359346  0.80318715  0.16432788  1  -1.215353  0.008088  -0.437869  -0.634243  0.003891  2.201371  0.007
O  O86  1  0.80317268  0.67899511  0.16430115  1  -1.205061  0.008086  -0.437958  -0.632651  0.003886  2.200203  0.007
O  O87  1  0.67908758  0.35360009  0.16426876  1  -1.216467  0.008073  -0.438015  -0.634329  0.003884  2.201419  0.007
