# generated using pymatgen
data_CdH14C20N4(O3F2)2
_symmetry_space_group_name_H-M   'P 1'
_cell_length_a   7.80475283
_cell_length_b   8.29709412
_cell_length_c   8.95231784
_cell_angle_alpha   78.64878237
_cell_angle_beta   66.58034690
_cell_angle_gamma   83.56037864
_symmetry_Int_Tables_number   1
_chemical_formula_structural   CdH14C20N4(O3F2)2
_chemical_formula_sum   'Cd1 H14 C20 N4 O6 F4'
_cell_volume   521.18794860
_cell_formula_units_Z   1
loop_
 _symmetry_equiv_pos_site_id
 _symmetry_equiv_pos_as_xyz
  1  'x, y, z'
loop_
 _atom_site_type_symbol
 _atom_site_label
 _atom_site_symmetry_multiplicity
 _atom_site_fract_x
 _atom_site_fract_y
 _atom_site_fract_z
 _atom_site_occupancy
 _atom_site_hle17_bader_spin_density
 _atom_site_hle17_ddec_charge
 _atom_site_hle17_ddec_spin_density
 _atom_site_hle17_ddec_sum_bond_order
 _atom_site_hle17_magmom
 _atom_site_hse06_10hf_bader_spin_density
 _atom_site_hse06_10hf_ddec_charge
 _atom_site_hse06_10hf_ddec_spin_density
 _atom_site_hse06_10hf_ddec_sum_bond_order
 _atom_site_hse06_10hf_magmom
 _atom_site_hse06_bader_spin_density
 _atom_site_hse06_ddec_charge
 _atom_site_hse06_ddec_spin_density
 _atom_site_hse06_ddec_sum_bond_order
 _atom_site_hse06_magmom
 _atom_site_pbe_bader_spin_density
 _atom_site_pbe_cm5_charge
 _atom_site_pbe_ddec_charge
 _atom_site_pbe_ddec_spin_density
 _atom_site_pbe_ddec_sum_bond_order
 _atom_site_pbe_magmom
Cd  Cd0  1  0.00000139  0.00000075  0.49999811  1  0  1.138637  0  1.68896  0  0  0.957017  0  2.133755  0  0  1.011145  0  2.081251  0  0  0.758234  0.918886  0  2.169415  0
H  H1  1  0.01521591  0.15073821  0.17769975  1  0  0.374203  0  0.949543  0  0  0.329011  0  1.040747  0  0  0.341085  0  1.02337  0  0  0.273605  0.320545  0  1.052904  0
H  H2  1  0.98478528  0.84926619  0.82229772  1  0  0.374222  0  0.94954  0  0  0.329028  0  1.040729  0  0  0.341102  0  1.023353  0  0  0.273605  0.320562  0  1.052887  0
H  H3  1  0.05214100  0.27411582  0.28110323  1  0  0.410447  0  0.901972  0  0  0.378078  0  0.968697  0  0  0.390177  0  0.951117  0  0  0.27674  0.369551  0  0.981047  0
H  H4  1  0.94786310  0.72588613  0.71889478  1  0  0.410452  0  0.901973  0  0  0.378075  0  0.968713  0  0  0.390174  0  0.951131  0  0  0.276736  0.369546  0  0.981062  0
H  H5  1  0.76191306  0.05269474  0.21203905  1  0  0.093237  0  0.931173  0  0  0.105144  0  0.995013  0  0  0.107932  0  0.990805  0  0  0.125155  0.102999  0  0.99821  0
H  H6  1  0.23808845  0.94730348  0.78796160  1  0  0.093268  0  0.931163  0  0  0.105194  0  0.99498  0  0  0.107983  0  0.990767  0  0  0.125169  0.103049  0  0.998176  0
H  H7  1  0.40220968  0.62653561  0.03219942  1  0  0.121229  0  0.952461  0  0  0.128102  0  1.013827  0  0  0.131773  0  1.011903  0  0  0.109958  0.125455  0  1.015402  0
H  H8  1  0.59779603  0.37346268  0.96779755  1  0  0.121196  0  0.952499  0  0  0.128073  0  1.013867  0  0  0.131743  0  1.011944  0  0  0.109937  0.125427  0  1.015442  0
H  H9  1  0.44131176  0.02696682  0.35268684  1  0  0.084263  0  0.947818  0  0  0.093776  0  1.010895  0  0  0.096074  0  1.009152  0  0  0.11732  0.09203  0  1.012228  0
H  H10  1  0.55868817  0.97303512  0.64731149  1  0  0.084299  0  0.947759  0  0  0.093765  0  1.010885  0  0  0.096063  0  1.009144  0  0  0.117317  0.092019  0  1.012219  0
H  H11  1  0.12185795  0.72835290  0.25394512  1  0  0.093031  0  0.935976  0  0  0.097587  0  1.003775  0  0  0.10061  0  1.000728  0  0  0.11808  0.095342  0  1.005978  0
H  H12  1  0.87814371  0.27164289  0.74605366  1  0  0.092985  0  0.936101  0  0  0.097552  0  1.003874  0  0  0.100575  0  1.000826  0  0  0.118061  0.09531  0  1.006077  0
H  H13  1  0.71323958  0.73799694  0.96217053  1  0  0.107861  0  0.950545  0  0  0.120195  0  1.008852  0  0  0.123253  0  1.005868  0  0  0.114324  0.117864  0  1.011178  0
H  H14  1  0.28676466  0.26200254  0.03782897  1  0  0.107889  0  0.950492  0  0  0.120218  0  1.008806  0  0  0.123276  0  1.005822  0  0  0.114324  0.117888  0  1.01113  0
C  C15  1  0.37813092  0.40726757  0.46908250  1  0  -0.216712  0  3.763021  0  0  -0.222686  0  4.035226  0  0  -0.228412  0  4.049867  0  0  -0.031529  -0.219162  0  4.025916  0
C  C16  1  0.62186473  0.59273550  0.53092045  1  0  -0.216648  0  3.762942  0  0  -0.222595  0  4.035148  0  0  -0.228322  0  4.04979  0  0  -0.031473  -0.219083  0  4.025856  0
C  C17  1  0.55871691  0.44056063  0.35399405  1  0  0.19665  0  3.797875  0  0  0.159683  0  4.101852  0  0  0.168907  0  4.110571  0  0  0.086448  0.153068  0  4.096525  0
C  C18  1  0.44127715  0.55944614  0.64600770  1  0  0.196586  0  3.797693  0  0  0.159567  0  4.101758  0  0  0.168791  0  4.110473  0  0  0.086361  0.152955  0  4.096434  0
C  C19  1  0.77237707  0.97291327  0.12442747  1  0  0.124234  0  3.649856  0  0  0.07768  0  3.917466  0  0  0.08836  0  3.929764  0  0  0.087321  0.070484  0  3.909384  0
C  C20  1  0.22762425  0.02708868  0.87557038  1  0  0.124174  0  3.649918  0  0  0.077615  0  3.917497  0  0  0.088295  0  3.929795  0  0  0.08729  0.070419  0  3.909412  0
C  C21  1  0.41731916  0.71774346  0.09760926  1  0  -0.109869  0  3.715569  0  0  -0.125453  0  3.9803  0  0  -0.133553  0  4.00124  0  0  -0.078703  -0.120369  0  3.966321  0
C  C22  1  0.58268655  0.28225483  0.90238771  1  0  -0.109798  0  3.715563  0  0  -0.125389  0  3.98029  0  0  -0.133489  0  4.00123  0  0  -0.078646  -0.120307  0  3.966315  0
C  C23  1  0.43851450  0.93996061  0.27686867  1  0  0.099256  0  3.673413  0  0  0.063071  0  3.91802  0  0  0.068351  0  3.939878  0  0  0.057089  0.059801  0  3.903132  0
C  C24  1  0.56148690  0.06004014  0.72312712  1  0  0.099272  0  3.673395  0  0  0.063124  0  3.91799  0  0  0.068406  0  3.939846  0  0  0.057092  0.059854  0  3.903103  0
C  C25  1  0.60312736  0.89455150  0.15122155  1  0  -0.015411  0  3.817828  0  0  0.007393  0  4.05912  0  0  -0.000588  0  4.08521  0  0  -0.007333  0.012431  0  4.041572  0
C  C26  1  0.39687407  0.10544794  0.84878003  1  0  -0.015499  0  3.817757  0  0  0.007328  0  4.059021  0  0  -0.000656  0  4.085114  0  0  -0.007363  0.012369  0  4.041468  0
C  C27  1  0.26021997  0.77295740  0.22233097  1  0  0.153928  0  3.656089  0  0  0.118957  0  3.914746  0  0  0.127242  0  3.932384  0  0  0.058867  0.113713  0  3.902697  0
C  C28  1  0.73978295  0.22704087  0.77766696  1  0  0.153958  0  3.656335  0  0  0.119001  0  3.91496  0  0  0.127286  0  3.932598  0  0  0.058873  0.113756  0  3.902915  0
C  C29  1  0.67757666  0.53236194  0.38305859  1  0  0.201481  0  3.788685  0  0  0.167087  0  4.090954  0  0  0.176565  0  4.099509  0  0  0.088385  0.160301  0  4.085741  0
C  C30  1  0.32242064  0.46763618  0.61694799  1  0  0.201598  0  3.788436  0  0  0.167187  0  4.090787  0  0  0.176665  0  4.099341  0  0  0.088437  0.160398  0  4.085572  0
C  C31  1  0.59027379  0.77977588  0.05985788  1  0  -0.025578  0  3.657626  0  0  -0.057006  0  3.908933  0  0  -0.052907  0  3.92706  0  0  -0.056533  -0.059342  0  3.896573  0
C  C32  1  0.40972892  0.22022606  0.94014061  1  0  -0.025556  0  3.657441  0  0  -0.056995  0  3.908767  0  0  -0.052895  0  3.926892  0  0  -0.056515  -0.059331  0  3.896406  0
C  C33  1  0.24663266  0.31295600  0.43337208  1  0  0.691896  0  3.907747  0  0  0.639366  0  4.212966  0  0  0.674842  0  4.202275  0  0  0.211097  0.615292  0  4.219357  0
C  C34  1  0.75336056  0.68704096  0.56662828  1  0  0.691981  0  3.907727  0  0  0.639385  0  4.213039  0  0  0.674862  0  4.202349  0  0  0.211091  0.615314  0  4.219433  0
N  N35  1  0.92895423  0.95549547  0.00139162  1  0  -0.208372  0  3.085099  0  0  -0.157948  0  3.35087  0  0  -0.171295  0  3.369448  0  0  -0.200997  -0.149028  0  3.338416  0
N  N36  1  0.07104860  0.04450398  0.99860949  1  0  -0.208354  0  3.085144  0  0  -0.157936  0  3.350915  0  0  -0.171281  0  3.369493  0  0  -0.200969  -0.149016  0  3.33846  0
N  N37  1  0.27101708  0.88306144  0.31008684  1  0  -0.33542  0  3.248901  0  0  -0.256752  0  3.512852  0  0  -0.277558  0  3.533317  0  0  -0.326247  -0.24273  0  3.49867  0
N  N38  1  0.72898298  0.11693804  0.68991074  1  0  -0.335454  0  3.249035  0  0  -0.256797  0  3.51298  0  0  -0.277603  0  3.533445  0  0  -0.326258  -0.242773  0  3.498795  0
O  O39  1  0.18930248  0.17978592  0.53359056  1  0  -0.648187  0  1.977367  0  0  -0.587982  0  2.229582  0  0  -0.616993  0  2.217818  0  0  -0.328447  -0.56731  0  2.236663  0
O  O40  1  0.81069365  0.82020857  0.46641258  1  0  -0.648219  0  1.977331  0  0  -0.587964  0  2.229542  0  0  -0.616975  0  2.21778  0  0  -0.328429  -0.567288  0  2.23661  0
O  O41  1  0.20817719  0.37415213  0.30958968  1  0  -0.601304  0  1.934448  0  0  -0.553695  0  2.15201  0  0  -0.578858  0  2.142553  0  0  -0.308849  -0.535804  0  2.157814  0
O  O42  1  0.79181729  0.62584729  0.69041094  1  0  -0.601386  0  1.934387  0  0  -0.553755  0  2.151982  0  0  -0.578919  0  2.142525  0  0  -0.3089  -0.535863  0  2.157787  0
O  O43  1  0.96419254  0.19201915  0.28506171  1  0  -0.836986  0  1.932494  0  0  -0.779359  0  2.146932  0  0  -0.801954  0  2.109717  0  0  -0.599166  -0.763259  0  2.172576  0
O  O44  1  0.03580865  0.80798527  0.71493464  1  0  -0.837023  0  1.932532  0  0  -0.779392  0  2.146967  0  0  -0.801984  0  2.109752  0  0  -0.599164  -0.76329  0  2.172618  0
F  F45  1  0.85028267  0.56246971  0.26478099  1  0  -0.14978  0  1.220971  0  0  -0.10471  0  1.389605  0  0  -0.112487  0  1.379557  0  0  -0.083025  -0.099129  0  1.396625  0
F  F46  1  0.14971491  0.43752353  0.73522409  1  0  -0.149833  0  1.220819  0  0  -0.104754  0  1.389467  0  0  -0.112533  0  1.379418  0  0  -0.083058  -0.099174  0  1.396489  0
F  F47  1  0.62220999  0.38181348  0.20927701  1  0  -0.173437  0  1.257189  0  0  -0.118073  0  1.423313  0  0  -0.126166  0  1.413314  0  0  -0.082678  -0.112214  0  1.430272  0
F  F48  1  0.37777764  0.61818340  0.79072751  1  0  -0.173408  0  1.257223  0  0  -0.118014  0  1.423363  0  0  -0.126107  0  1.413361  0  0  -0.082638  -0.112155  0  1.430321  0
