# generated using pymatgen
data_MnH5C10N2Cl2O5
_symmetry_space_group_name_H-M   'P 1'
_cell_length_a   8.94282931
_cell_length_b   9.41189728
_cell_length_c   11.05833238
_cell_angle_alpha   61.35666374
_cell_angle_beta   67.71757603
_cell_angle_gamma   78.33805389
_symmetry_Int_Tables_number   1
_chemical_formula_structural   MnH5C10N2Cl2O5
_chemical_formula_sum   'Mn2 H10 C20 N4 Cl4 O10'
_cell_volume   755.62552006
_cell_formula_units_Z   2
loop_
 _symmetry_equiv_pos_site_id
 _symmetry_equiv_pos_as_xyz
  1  'x, y, z'
loop_
 _atom_site_type_symbol
 _atom_site_label
 _atom_site_symmetry_multiplicity
 _atom_site_fract_x
 _atom_site_fract_y
 _atom_site_fract_z
 _atom_site_occupancy
 _atom_site_hle17_ddec_charge
 _atom_site_hle17_ddec_spin_density
 _atom_site_hle17_ddec_sum_bond_order
 _atom_site_hle17_magmom
 _atom_site_hse06_10hf_ddec_charge
 _atom_site_hse06_10hf_ddec_spin_density
 _atom_site_hse06_10hf_ddec_sum_bond_order
 _atom_site_hse06_10hf_magmom
 _atom_site_hse06_ddec_charge
 _atom_site_hse06_ddec_spin_density
 _atom_site_hse06_ddec_sum_bond_order
 _atom_site_hse06_magmom
 _atom_site_pbe_cm5_charge
 _atom_site_pbe_ddec_charge
 _atom_site_pbe_ddec_spin_density
 _atom_site_pbe_ddec_sum_bond_order
 _atom_site_pbe_magmom
Mn  Mn0  1  0.63459018  0.74102785  0.55204309  1  1.113812  4.795733  1.78881  4.68  0.951797  4.705489  2.268578  4.523  1.006864  4.764115  2.20203  4.599  0.59247  0.917092  4.62018  2.31773  4.423
Mn  Mn1  1  0.36511438  0.25907261  0.44808327  1  1.114872  -4.796393  1.784731  -4.68  0.952395  -4.70656  2.264584  -4.524  1.007656  -4.764876  2.198026  -4.599  0.592108  0.917362  -4.622023  2.313752  -4.425
H  H2  1  0.48602883  0.95963448  0.35945255  1  0.421095  0.000761  0.889074  0.001  0.385923  0.001589  0.961102  0.002  0.397393  0.001315  0.944314  0.001  0.289519  0.378281  0.001813  0.972273  0.002
H  H3  1  0.51382333  0.04007784  0.64099625  1  0.420839  -0.000758  0.889337  -0.001  0.385784  -0.001582  0.961134  -0.002  0.397236  -0.001307  0.944374  -0.001  0.289376  0.378145  -0.001806  0.972294  -0.002
H  H4  1  0.66728073  0.00354886  0.27968598  1  0.426307  0.000444  0.827886  0.001  0.401137  0.001253  0.898605  0.002  0.410256  0.000908  0.887814  0.002  0.310041  0.395245  0.001567  0.905233  0.002
H  H5  1  0.33247591  0.99644358  0.72076982  1  0.426006  -0.000438  0.828486  -0.001  0.401051  -0.001243  0.899034  -0.002  0.410201  -0.0009  0.888162  -0.002  0.309804  0.395126  -0.001556  0.90573  -0.002
H  H6  1  0.22036994  0.73336052  0.71054206  1  0.090856  -8e-05  0.931813  0.0  0.097467  8.7e-05  0.994495  0.0  0.100221  5e-06  0.991465  0.0  0.12307  0.095704  0.000168  0.99645  0.001
H  H7  1  0.77988278  0.26682932  0.28938745  1  0.090852  8.3e-05  0.931956  0.0  0.097257  -8.3e-05  0.994886  0.0  0.100085  -3e-06  0.991752  0.0  0.123127  0.095509  -0.000162  0.996845  -0.001
H  H8  1  0.98380054  0.59655044  0.73490356  1  0.128995  -0.000282  0.94274  0.0  0.136952  -0.000318  1.000384  0.0  0.140164  -0.000304  1.000481  0.0  0.115999  0.134976  -0.000359  1.00007  0.0
H  H9  1  0.01634138  0.40362460  0.26517331  1  0.129715  0.000282  0.94245  0.0  0.137343  0.000321  1.000438  0.0  0.140574  0.000307  1.000486  0.0  0.115925  0.135355  0.000363  1.000149  0.0
H  H10  1  0.05132428  0.40564467  0.62064867  1  0.102998  5.2e-05  0.931578  0.0  0.105936  -0.000186  1.001088  0.0  0.109416  -8.4e-05  0.996537  0.0  0.128318  0.103643  -0.000295  1.004306  -0.001
H  H11  1  0.94868399  0.59456455  0.37946245  1  0.102579  -5.3e-05  0.931456  0.0  0.105559  0.000186  1.000985  0.0  0.109077  8.3e-05  0.996429  0.0  0.128095  0.103249  0.000295  1.004201  0.001
C  C12  1  0.95346041  0.90181757  0.45264102  1  0.284715  -0.000548  3.856682  0.0  0.259119  -0.000221  4.133809  0.001  0.28248  1.7e-05  4.138585  0.001  0.108379  0.240923  -0.001022  4.133941  0.001
C  C13  1  0.04663364  0.09794404  0.54736938  1  0.286365  0.000577  3.855819  0.0  0.26006  0.000346  4.133808  -0.001  0.283378  3.3e-05  4.138591  -0.001  0.108906  0.241871  0.001374  4.13394  0.0
C  C14  1  0.16924783  0.02547710  0.45032933  1  0.273658  -0.000544  3.852392  -0.001  0.244977  -0.001647  4.129097  -0.003  0.266402  -0.000444  4.136848  -0.002  0.104435  0.228196  -0.003115  4.126803  -0.004
C  C15  1  0.83087576  0.97425796  0.54967900  1  0.27383  0.000541  3.85307  0.001  0.245131  0.001723  4.129099  0.003  0.266477  0.000441  4.136897  0.002  0.104359  0.228376  0.003394  4.126752  0.004
C  C16  1  0.11783044  0.93941075  0.39969609  1  -0.165998  -0.000255  3.852841  0.0  -0.168478  -0.000483  4.150666  0.0  -0.186142  -0.000577  4.175655  0.0  -0.048009  -0.155988  -0.000197  4.134791  0.0
C  C17  1  0.88231063  0.06028098  0.60034700  1  -0.166508  0.000259  3.853166  0.0  -0.168401  0.000462  4.150505  0.0  -0.18605  0.000594  4.175531  0.0  -0.047773  -0.155916  0.000156  4.134612  0.0
C  C18  1  0.61840827  0.52259681  0.85980167  1  0.286332  0.001257  3.839859  0.002  0.262128  0.002599  4.112544  0.004  0.284106  0.001609  4.120338  0.003  0.109225  0.24607  0.003538  4.10764  0.005
C  C19  1  0.38143593  0.47745189  0.14009468  1  0.287633  -0.001241  3.838103  -0.002  0.26304  -0.002516  4.111155  -0.004  0.285062  -0.001567  4.118875  -0.003  0.109593  0.24697  -0.00343  4.106291  -0.005
C  C20  1  0.53396246  0.36942971  0.12502470  1  0.290161  0.000706  3.834726  -0.001  0.265674  0.000762  4.105288  -0.001  0.288277  0.000848  4.1118  -0.001  0.113038  0.249459  0.001108  4.101599  -0.001
C  C21  1  0.46598711  0.63059608  0.87486722  1  0.290359  -0.000653  3.835763  0.001  0.265615  -0.000665  4.106466  0.002  0.288203  -0.000791  4.113017  0.001  0.112988  0.249369  -0.000983  4.102807  0.001
C  C22  1  0.64456485  0.39619923  0.98609129  1  -0.154439  0.00151  3.827439  0.001  -0.15888  0.002006  4.123438  0.001  -0.176708  0.001793  4.148237  0.001  -0.047169  -0.1465  0.002092  4.106799  0.001
C  C23  1  0.35535573  0.60384988  0.01375748  1  -0.155114  -0.001472  3.827103  -0.001  -0.159343  -0.001978  4.123164  -0.001  -0.177165  -0.001744  4.147937  -0.001  -0.04734  -0.146966  -0.002056  4.106563  -0.001
C  C24  1  0.23718707  0.64978776  0.66394647  1  0.186834  -0.001156  3.656845  -0.001  0.152853  -0.000909  3.915716  -0.001  0.162299  -0.001021  3.932634  -0.001  0.07451  0.147235  -0.001196  3.903268  -0.001
C  C25  1  0.76298205  0.35031282  0.33598946  1  0.187976  0.001155  3.657969  0.001  0.153982  0.000928  3.916878  0.001  0.163362  0.001031  3.933776  0.001  0.074581  0.14835  0.001214  3.904443  0.001
C  C26  1  0.10862112  0.57460185  0.67806087  1  -0.155714  0.000976  3.686934  0.001  -0.169485  0.000734  3.944933  0.001  -0.181122  0.000864  3.967268  0.001  -0.068844  -0.161591  0.000715  3.92901  0.001
C  C27  1  0.89147419  0.42547827  0.32195080  1  -0.156934  -0.000963  3.686976  -0.001  -0.170405  -0.000726  3.944971  -0.001  -0.182044  -0.000858  3.967338  -0.001  -0.068803  -0.162513  -0.000698  3.929041  -0.001
C  C28  1  0.14480902  0.46965494  0.61455176  1  0.208962  -0.001306  3.602335  -0.001  0.170343  -0.002142  3.863115  -0.002  0.181848  -0.001824  3.876263  -0.002  0.087433  0.162874  -0.002337  3.853437  -0.002
C  C29  1  0.85521472  0.53042579  0.38550749  1  0.209531  0.001313  3.601195  0.001  0.170938  0.002155  3.861556  0.002  0.18239  0.00183  3.874757  0.002  0.087868  0.163525  0.00235  3.851829  0.002
C  C30  1  0.41495401  0.51676154  0.53747663  1  0.313446  -0.001628  3.744921  -0.002  0.291169  -0.001997  3.997374  -0.002  0.304275  -0.001829  4.011857  -0.002  0.265517  0.282004  -0.002569  3.988125  -0.002
C  C31  1  0.58510062  0.48327058  0.46249472  1  0.313434  0.001646  3.745426  0.002  0.291117  0.002002  3.997755  0.002  0.304206  0.001831  4.012246  0.002  0.265582  0.281978  0.002576  3.988483  0.002
N  N32  1  0.39069727  0.62193689  0.59273260  1  -0.355218  0.021693  3.131787  0.014  -0.299708  0.027756  3.396002  0.017  -0.319266  0.025096  3.410645  0.015  -0.286989  -0.286176  0.031035  3.386367  0.021
N  N33  1  0.60948044  0.37817365  0.40716545  1  -0.355935  -0.021589  3.132558  -0.014  -0.300289  -0.02764  3.396754  -0.017  -0.319877  -0.024992  3.411477  -0.015  -0.286968  -0.286713  -0.030913  3.387061  -0.02
N  N34  1  0.29834677  0.43975578  0.54479991  1  -0.354662  -0.025021  3.158334  -0.015  -0.291864  -0.029182  3.423049  -0.015  -0.312644  -0.026323  3.435908  -0.013  -0.289151  -0.276758  -0.03087  3.414142  -0.017
N  N35  1  0.70164598  0.56031079  0.45525833  1  -0.355071  0.025025  3.157697  0.015  -0.292208  0.029221  3.422188  0.015  -0.312943  0.026358  3.435045  0.013  -0.28944  -0.277158  0.030906  3.413304  0.017
Cl  Cl36  1  0.25643937  0.86182506  0.28644808  1  -0.037705  -0.000153  1.388917  0.0  -0.028321  -0.000184  1.608717  0.0  -0.02708  -0.000203  1.605519  0.0  -0.007381  -0.030201  -0.000156  1.611549  0.0
Cl  Cl37  1  0.74348379  0.13793722  0.71342494  1  -0.037724  0.000155  1.389609  0.0  -0.028502  0.000181  1.609329  0.0  -0.02726  0.000208  1.606133  0.0  -0.00762  -0.030388  0.000145  1.612165  0.0
Cl  Cl38  1  0.81516859  0.27157264  0.97360105  1  -0.066882  0.000275  1.351094  0.0  -0.054711  0.000666  1.56327  0.0  -0.054244  0.000513  1.559302  0.0  -0.015226  -0.054663  0.000719  1.566155  0.0
Cl  Cl39  1  0.18486853  0.72871717  0.02586528  1  -0.0667  -0.000275  1.350721  0.0  -0.054431  -0.000659  1.56278  0.0  -0.053973  -0.000505  1.558806  0.0  -0.015108  -0.054386  -0.000709  1.565675  0.0
O  O40  1  0.89771048  0.80861843  0.42806161  1  -0.479706  0.021732  2.056537  0.014  -0.425605  0.023045  2.298016  0.013  -0.448193  0.021224  2.290277  0.012  -0.266298  -0.412454  0.025001  2.305862  0.016
O  O41  1  0.10227158  0.19128045  0.57187789  1  -0.481003  -0.021765  2.056677  -0.014  -0.426501  -0.02298  2.298436  -0.013  -0.44913  -0.0212  2.290758  -0.012  -0.266898  -0.413306  -0.024751  2.306294  -0.015
O  O42  1  0.31616706  0.04886511  0.42394433  1  -0.518396  -0.02042  2.162978  -0.012  -0.449053  -0.020795  2.402161  -0.009  -0.475533  -0.019968  2.395455  -0.009  -0.270151  -0.432571  -0.02133  2.408758  -0.01
O  O43  1  0.68394236  0.95097414  0.57604264  1  -0.517979  0.020449  2.163237  0.011  -0.448839  0.02081  2.40243  0.009  -0.475177  0.019962  2.395676  0.009  -0.270022  -0.432377  0.02143  2.408975  0.01
O  O44  1  0.71298970  0.55733987  0.73024336  1  -0.504699  0.025066  2.066551  0.015  -0.452483  0.024772  2.322365  0.011  -0.478964  0.023317  2.315649  0.01  -0.282214  -0.432689  0.024792  2.326292  0.011
O  O45  1  0.28679451  0.44277191  0.26960849  1  -0.505496  -0.024996  2.06544  -0.015  -0.453122  -0.024724  2.321307  -0.011  -0.479622  -0.023274  2.314577  -0.01  -0.282327  -0.433297  -0.024762  2.325129  -0.011
O  O46  1  0.55154203  0.25957950  0.24345705  1  -0.511406  -0.021575  2.149776  -0.012  -0.451999  -0.021302  2.397354  -0.009  -0.477386  -0.019735  2.390396  -0.007  -0.267936  -0.434211  -0.024106  2.402428  -0.012
O  O47  1  0.44840142  0.74050090  0.75644248  1  -0.51129  0.02175  2.151298  0.012  -0.451944  0.021505  2.399339  0.009  -0.477351  0.019911  2.392393  0.007  -0.268154  -0.434156  0.024359  2.404455  0.012
O  O48  1  0.59766056  0.91011414  0.34405440  1  -0.823998  0.02948  1.912756  0.018  -0.775087  0.038887  2.126444  0.024  -0.797024  0.034533  2.094838  0.02  -0.572341  -0.757934  0.042615  2.146972  0.027
O  O49  1  0.40225110  0.08973951  0.65615541  1  -0.823585  -0.029357  1.912743  -0.018  -0.775086  -0.038761  2.125953  -0.023  -0.797012  -0.034419  2.094314  -0.02  -0.572103  -0.757974  -0.042504  2.146536  -0.027
