# generated using pymatgen
data_Mn3H48C60N6O17
_symmetry_space_group_name_H-M   'P 1'
_cell_length_a   11.48102843
_cell_length_b   11.48100863
_cell_length_c   24.95643510
_cell_angle_alpha   92.93021396
_cell_angle_beta   92.92974428
_cell_angle_gamma   102.49864080
_symmetry_Int_Tables_number   1
_chemical_formula_structural   Mn3H48C60N6O17
_chemical_formula_sum   'Mn6 H96 C120 N12 O34'
_cell_volume   3200.91552124
_cell_formula_units_Z   2
loop_
 _symmetry_equiv_pos_site_id
 _symmetry_equiv_pos_as_xyz
  1  'x, y, z'
loop_
 _atom_site_type_symbol
 _atom_site_label
 _atom_site_symmetry_multiplicity
 _atom_site_fract_x
 _atom_site_fract_y
 _atom_site_fract_z
 _atom_site_occupancy
 _atom_site_pbe_bader_charge
 _atom_site_pbe_bader_spin_density
 _atom_site_pbe_cm5_charge
 _atom_site_pbe_ddec_charge
 _atom_site_pbe_ddec_spin_density
 _atom_site_pbe_ddec_sum_bond_order
 _atom_site_pbe_magmom
Mn  Mn0  1  0.81151540  0.18214879  0.48988440  1  1.508126  4.49962  0.615695  0.942716  4.631851  2.410183  4.419
Mn  Mn1  1  0.81785268  0.18850329  0.01011818  1  1.50825  4.499576  0.615723  0.942656  4.631849  2.410389  4.419
Mn  Mn2  1  0.18847661  0.81786207  0.51011670  1  1.508136  4.499618  0.615699  0.942681  4.631902  2.410135  4.419
Mn  Mn3  1  0.18215269  0.81151581  0.98988295  1  1.508203  4.499583  0.615685  0.942728  4.631862  2.41011  4.419
Mn  Mn4  1  0.99999122  0.49999836  0.49999716  1  1.579701  4.549482  0.607246  1.111296  4.683971  2.264263  4.487
Mn  Mn5  1  0.50000040  0.99999336  0.99999867  1  1.579831  4.54941  0.607226  1.111245  4.683931  2.26438  4.487
H  H6  1  0.02905437  0.12574625  0.34476974  1  0.116124  0.000464  0.105411  0.110223  0.000108  1.00448  0.0
H  H7  1  0.87426162  0.97094896  0.15522561  1  0.116027  0.000465  0.105417  0.1103  0.000108  1.00458  0.0
H  H8  1  0.97095661  0.87425240  0.65523550  1  0.116259  0.000464  0.105394  0.110214  0.000108  1.004589  0.0
H  H9  1  0.12574554  0.02904951  0.84476953  1  0.116118  0.000464  0.105436  0.110264  0.000108  1.004507  0.0
H  H10  1  0.11068747  0.16474103  0.25495148  1  0.059538  4.4e-05  0.104459  0.121497  -1e-05  1.00895  0.0
H  H11  1  0.83526499  0.88931199  0.24504407  1  0.059532  4.4e-05  0.104399  0.121352  -1e-05  1.009095  0.0
H  H12  1  0.88931990  0.83525941  0.74505292  1  0.059508  4.4e-05  0.104467  0.121476  -1e-05  1.008987  0.0
H  H13  1  0.16473771  0.11067847  0.75494922  1  0.059557  4.4e-05  0.104452  0.121452  -1e-05  1.009008  0.0
H  H14  1  0.05470407  0.52389383  0.27083611  1  0.071148  5.4e-05  0.108781  0.124608  4e-06  0.981527  0.0
H  H15  1  0.47611061  0.94528720  0.22916084  1  0.070925  5.4e-05  0.108758  0.124577  4e-06  0.981594  0.0
H  H16  1  0.94529797  0.47610280  0.72916892  1  0.07103  5.4e-05  0.108752  0.124552  4e-06  0.981498  0.0
H  H17  1  0.52389747  0.05471062  0.77083511  1  0.071091  5.4e-05  0.108739  0.124557  4e-06  0.981549  0.0
H  H18  1  0.97529794  0.48412408  0.36175248  1  0.116814  0.000201  0.109136  0.115887  -0.000417  1.011352  0.0
H  H19  1  0.51587802  0.02469439  0.13824424  1  0.116569  0.000201  0.109122  0.115748  -0.000417  1.011362  0.0
H  H20  1  0.02469601  0.51586894  0.63824991  1  0.11658  0.000201  0.109152  0.115857  -0.000417  1.011442  0.0
H  H21  1  0.48412649  0.97530526  0.86175248  1  0.116591  0.000201  0.109135  0.115844  -0.000417  1.011411  0.0
H  H22  1  0.98250508  0.20474561  0.14778373  1  0.114371  0.000215  0.107475  0.119681  -0.000133  1.037472  0.0
H  H23  1  0.79527021  0.01750209  0.35220980  1  0.113739  0.000215  0.107419  0.119596  -0.000133  1.037714  0.0
H  H24  1  0.01749512  0.79525494  0.85222013  1  0.1143  0.000215  0.107448  0.119665  -0.000133  1.037481  0.0
H  H25  1  0.20474244  0.98249772  0.64779069  1  0.113977  0.000215  0.107487  0.119678  -0.000133  1.037615  0.0
H  H26  1  0.04335775  0.05640708  0.08702015  1  0.089694  0.000424  0.105347  0.106781  -0.000213  1.037335  0.0
H  H27  1  0.94359827  0.95664451  0.41297617  1  0.089612  0.000424  0.105365  0.106843  -0.000213  1.037219  0.0
H  H28  1  0.95664772  0.94360161  0.91298197  1  0.089574  0.000424  0.105329  0.106736  -0.000213  1.03722  0.0
H  H29  1  0.05640016  0.04334690  0.58702627  1  0.089782  0.000424  0.105384  0.106796  -0.000213  1.037163  0.0
H  H30  1  0.41264755  0.20897550  0.13091050  1  0.085492  0.000307  0.099626  0.095019  -0.000102  1.048151  0.0
H  H31  1  0.79100987  0.58735489  0.36909384  1  0.085214  0.000307  0.099681  0.095129  -0.000102  1.048175  0.0
H  H32  1  0.58735416  0.79104446  0.86908736  1  0.085831  0.000307  0.099648  0.095072  -0.000102  1.048147  0.0
H  H33  1  0.20898044  0.41263988  0.63090651  1  0.085339  0.000307  0.09969  0.095125  -0.000102  1.048116  0.0
H  H34  1  0.35201637  0.35660217  0.19696651  1  0.095188  0.000137  0.100648  0.114228  7.6e-05  1.045273  0.0
H  H35  1  0.64339867  0.64798774  0.30303055  1  0.095762  0.000137  0.100682  0.114249  7.6e-05  1.045286  0.0
H  H36  1  0.64798375  0.64340707  0.80303672  1  0.095308  0.000137  0.100653  0.114272  7.6e-05  1.04534  0.0
H  H37  1  0.35660312  0.35201390  0.69696535  1  0.095601  0.000137  0.10065  0.114175  7.6e-05  1.04541  0.0
H  H38  1  0.25936730  0.39032469  0.39200402  1  0.082294  0.000284  0.101624  0.099407  -1.8e-05  1.023899  0.0
H  H39  1  0.60968844  0.74063007  0.10799538  1  0.082311  0.000284  0.101633  0.099475  -1.8e-05  1.023799  0.0
H  H40  1  0.74063647  0.60967579  0.60799951  1  0.082401  0.000283  0.101613  0.099429  -1.8e-05  1.023952  0.0
H  H41  1  0.39031356  0.25936564  0.89200762  1  0.082204  0.000284  0.10165  0.099497  -1.8e-05  1.02381  0.0
H  H42  1  0.35955467  0.36293615  0.30716619  1  0.082849  9.3e-05  0.103719  0.11705  2.1e-05  0.99907  0.0
H  H43  1  0.63707778  0.64044951  0.19283352  1  0.082679  9.3e-05  0.10368  0.117018  2.1e-05  0.999005  0.0
H  H44  1  0.64045447  0.63706467  0.69283745  1  0.082843  9.3e-05  0.103663  0.117026  2.1e-05  0.999105  0.0
H  H45  1  0.36291975  0.35955221  0.80717151  1  0.082665  9.3e-05  0.103706  0.117006  2.1e-05  0.999037  0.0
H  H46  1  0.43178070  0.74301971  0.29106773  1  0.123014  0.000131  0.104156  0.118702  5.8e-05  1.035873  0.0
H  H47  1  0.25699350  0.56821666  0.20893362  1  0.12311  0.000131  0.104124  0.118706  5.8e-05  1.035829  0.0
H  H48  1  0.56819789  0.25698285  0.70893094  1  0.123193  0.000131  0.104178  0.118758  5.8e-05  1.035904  0.0
H  H49  1  0.74299950  0.43177347  0.79106549  1  0.123193  0.000131  0.104144  0.118707  5.8e-05  1.035859  0.0
H  H50  1  0.33566162  0.76967080  0.37717105  1  0.069676  0.000149  0.108845  0.112604  -0.000276  0.98838  0.0
H  H51  1  0.23034078  0.66432558  0.12283070  1  0.069964  0.000149  0.108849  0.11257  -0.000276  0.988345  0.0
H  H52  1  0.66432071  0.23032573  0.62283279  1  0.069743  0.000149  0.108789  0.112487  -0.000276  0.988462  0.0
H  H53  1  0.76966115  0.33566656  0.87716822  1  0.06991  0.000149  0.108856  0.112589  -0.000276  0.988235  0.0
H  H54  1  0.90068585  0.97027706  0.53262573  1  0.119981  0.001162  0.122606  0.094233  0.000407  1.017044  0.001
H  H55  1  0.02972033  0.09931675  0.96737633  1  0.119529  0.001162  0.122597  0.094211  0.000407  1.017081  0.001
H  H56  1  0.09930453  0.02971428  0.46737656  1  0.119802  0.001163  0.122602  0.094215  0.000408  1.017124  0.001
H  H57  1  0.97028423  0.90068908  0.03262411  1  0.119884  0.001162  0.122623  0.094213  0.000408  1.017108  0.001
H  H58  1  0.83757397  0.74782473  0.53319481  1  0.091564  0.000543  0.116426  0.130727  -0.000163  1.003165  0.0
H  H59  1  0.25217316  0.16242683  0.96680693  1  0.091673  0.000543  0.116402  0.130718  -0.000163  1.003149  0.0
H  H60  1  0.16241358  0.25216498  0.46680098  1  0.091384  0.000543  0.116412  0.13069  -0.000163  1.003238  0.0
H  H61  1  0.74783048  0.83758055  0.03319353  1  0.091698  0.000543  0.116442  0.13074  -0.000163  1.003136  0.0
H  H62  1  0.48770904  0.77554847  0.46913049  1  0.139391  0.000569  0.112926  0.126682  -0.000167  1.028265  0.0
H  H63  1  0.22445406  0.51230021  0.03086603  1  0.139332  0.00057  0.112943  0.12664  -0.000167  1.028258  0.0
H  H64  1  0.51228204  0.22444902  0.53086552  1  0.139569  0.00057  0.11293  0.126703  -0.000167  1.028371  0.0
H  H65  1  0.77555297  0.48771216  0.96912778  1  0.139474  0.00057  0.112949  0.126722  -0.000167  1.028203  0.0
H  H66  1  0.57063405  0.99630758  0.46587179  1  0.105308  0.001244  0.118814  0.088735  0.000511  1.021156  0.0
H  H67  1  0.00369473  0.42937504  0.03412818  1  0.105378  0.001244  0.11878  0.088644  0.000511  1.021245  0.0
H  H68  1  0.42935893  0.00369218  0.53412951  1  0.105544  0.001244  0.118785  0.088754  0.000511  1.020988  0.0
H  H69  1  0.99631329  0.57063675  0.96586924  1  0.105339  0.001244  0.118764  0.088658  0.000511  1.021118  0.0
H  H70  1  0.69068278  0.56301333  0.50353256  1  0.135687  0.000329  0.122182  0.098716  -0.000358  1.02252  0.0
H  H71  1  0.43698155  0.30931721  0.99646903  1  0.135583  0.00033  0.122157  0.098717  -0.000358  1.022442  0.0
H  H72  1  0.30930380  0.43697697  0.49646001  1  0.135489  0.00033  0.122152  0.098636  -0.000358  1.022452  0.0
H  H73  1  0.56302477  0.69069689  0.00353281  1  0.135515  0.000329  0.122212  0.098751  -0.000358  1.022453  0.0
H  H74  1  0.63049465  0.34035416  0.43080026  1  0.120305  0.000492  0.125882  0.052793  -2e-05  1.003524  0.0
H  H75  1  0.65965826  0.36951576  0.06920540  1  0.120523  0.000492  0.125854  0.052762  -2e-05  1.00338  0.0
H  H76  1  0.36950811  0.65965038  0.56919932  1  0.120355  0.000492  0.125904  0.052814  -2e-05  1.003428  0.0
H  H77  1  0.34034820  0.63049322  0.93080075  1  0.120448  0.000492  0.125933  0.052874  -2e-05  1.003554  0.0
H  H78  1  0.61247627  0.44790977  0.36201564  1  0.06426  0.000148  0.114605  0.132429  2.7e-05  0.990455  0.0
H  H79  1  0.55210302  0.38751755  0.13798153  1  0.064719  0.000149  0.114644  0.132511  2.7e-05  0.990358  0.0
H  H80  1  0.38752193  0.55209104  0.63797937  1  0.064557  0.000148  0.114642  0.132443  2.7e-05  0.990428  0.0
H  H81  1  0.44791145  0.61248970  0.86202234  1  0.064536  0.000149  0.114615  0.132429  2.7e-05  0.990503  0.0
H  H82  1  0.56441632  0.37267880  0.29788157  1  0.03386  0.000249  0.10111  0.110454  0.000137  1.02509  0.0
H  H83  1  0.62731801  0.43558370  0.20211937  1  0.03377  0.000249  0.101079  0.110401  0.000138  1.025075  0.0
H  H84  1  0.43559003  0.62731430  0.70211546  1  0.033818  0.000249  0.101055  0.110368  0.000138  1.024991  0.0
H  H85  1  0.37269294  0.56441931  0.79788596  1  0.03404  0.000249  0.101004  0.110289  0.000137  1.025238  0.0
H  H86  1  0.72003705  0.42934765  0.31461750  1  0.056484  0.001244  0.101795  0.113847  0.000755  0.995576  0.001
H  H87  1  0.57066368  0.27995946  0.18538106  1  0.056162  0.001244  0.101781  0.113856  0.000755  0.995665  0.001
H  H88  1  0.27996480  0.57064879  0.68537910  1  0.056542  0.001244  0.101699  0.113776  0.000755  0.995707  0.001
H  H89  1  0.42934635  0.72004508  0.81462387  1  0.056516  0.001245  0.101676  0.113717  0.000755  0.99569  0.001
H  H90  1  0.75901369  0.18880624  0.31078875  1  0.065538  0.000849  0.102083  0.11638  0.000427  1.002325  0.0
H  H91  1  0.81120024  0.24098729  0.18921529  1  0.065514  0.000849  0.102097  0.116313  0.000428  1.002367  0.0
H  H92  1  0.24098377  0.81118839  0.68921094  1  0.065517  0.000848  0.102072  0.116362  0.000427  1.002333  0.0
H  H93  1  0.18880532  0.75900571  0.81078612  1  0.065696  0.000849  0.102145  0.116442  0.000428  1.002289  0.0
H  H94  1  0.61757640  0.18506740  0.27678231  1  0.059192  0.000333  0.101463  0.110714  0.000203  1.01058  0.0
H  H95  1  0.81494102  0.38242281  0.22322279  1  0.059527  0.000333  0.101471  0.110723  0.000203  1.01067  0.0
H  H96  1  0.38241660  0.81492799  0.72321851  1  0.059149  0.000333  0.101513  0.110776  0.000202  1.010705  0.0
H  H97  1  0.18507359  0.61756706  0.77678195  1  0.059237  0.000333  0.101504  0.110727  0.000203  1.010769  0.0
H  H98  1  0.62719790  0.09328386  0.33196630  1  0.100699  0.000567  0.111735  0.131524  9.8e-05  1.005858  0.0
H  H99  1  0.90672631  0.37280443  0.16803911  1  0.100531  0.000566  0.1117  0.131492  9.8e-05  1.005839  0.0
H  H100  1  0.37280138  0.90671472  0.66803591  1  0.1006  0.000566  0.111761  0.131571  9.8e-05  1.005796  0.0
H  H101  1  0.09328285  0.62718677  0.83196274  1  0.100371  0.000567  0.111738  0.131544  9.8e-05  1.005945  0.0
C  C102  1  0.94395163  0.27527479  0.41071245  1  1.5241  0.024235  0.208652  0.562143  0.024432  4.201213  0.02
C  C103  1  0.72472136  0.05604609  0.08928192  1  1.523746  0.024237  0.208586  0.561951  0.024434  4.201416  0.02
C  C104  1  0.05604495  0.72471877  0.58928760  1  1.523391  0.02424  0.208755  0.562362  0.024432  4.201244  0.02
C  C105  1  0.27527861  0.94395335  0.91071190  1  1.523953  0.02424  0.208749  0.562356  0.024435  4.201024  0.02
C  C106  1  0.99590479  0.30196329  0.35834704  1  -0.008313  -0.001191  -0.031003  -0.075752  -0.00248  4.02521  -0.002
C  C107  1  0.69803434  0.00407913  0.14164584  1  -0.009241  -0.00119  -0.031016  -0.07572  -0.00248  4.02531  -0.002
C  C108  1  0.00408643  0.69802820  0.64165286  1  -0.008552  -0.00119  -0.031053  -0.075702  -0.00248  4.02508  -0.002
C  C109  1  0.30197017  0.99591614  0.85834959  1  -0.009023  -0.001191  -0.031  -0.075827  -0.002481  4.025271  -0.002
C  C110  1  0.03468777  0.21267292  0.32820727  1  -0.143546  0.006325  -0.082597  -0.069125  0.004709  3.995623  0.004
C  C111  1  0.78733214  0.96530394  0.17178594  1  -0.142737  0.006324  -0.082525  -0.06923  0.004708  3.995855  0.004
C  C112  1  0.96531057  0.78732541  0.67179291  1  -0.143626  0.006326  -0.082584  -0.069189  0.004709  3.995528  0.004
C  C113  1  0.21267232  0.03469479  0.82820875  1  -0.14332  0.006327  -0.082647  -0.069204  0.00471  3.995506  0.004
C  C114  1  0.07993328  0.23397988  0.27810627  1  0.043951  -0.00098  -0.112666  -0.226794  -0.001014  4.018634  -0.001
C  C115  1  0.76602711  0.92006411  0.22188745  1  0.043976  -0.00098  -0.112562  -0.226557  -0.001014  4.018798  -0.001
C  C116  1  0.92006518  0.76601330  0.72189741  1  0.044375  -0.00098  -0.112658  -0.226747  -0.001014  4.018686  -0.001
C  C117  1  0.23398271  0.07993407  0.77810654  1  0.044164  -0.00098  -0.112645  -0.226715  -0.001014  4.018684  -0.001
C  C118  1  0.08568333  0.34631704  0.25772549  1  0.39082  0.004582  0.09038  0.269389  0.003733  4.048861  0.003
C  C119  1  0.65368696  0.91431220  0.24226914  1  0.39063  0.004582  0.090212  0.269315  0.003733  4.049047  0.003
C  C120  1  0.91431417  0.65367764  0.74227620  1  0.390545  0.004581  0.090311  0.269293  0.003732  4.049203  0.003
C  C121  1  0.34632021  0.08568891  0.75772686  1  0.390696  0.004583  0.09036  0.269403  0.003734  4.049029  0.003
C  C122  1  0.04714142  0.43662384  0.28729472  1  -0.007236  -0.001102  -0.102874  -0.209795  -0.001134  4.00485  -0.001
C  C123  1  0.56338336  0.95284920  0.21270131  1  -0.007221  -0.001102  -0.102846  -0.209959  -0.001133  4.005326  -0.001
C  C124  1  0.95285428  0.56337655  0.71270825  1  -0.006841  -0.001101  -0.102891  -0.209756  -0.001133  4.004945  -0.001
C  C125  1  0.43662472  0.04715212  0.78729551  1  -0.007193  -0.001102  -0.102852  -0.209778  -0.001134  4.004941  -0.001
C  C126  1  0.00330847  0.41453050  0.33748734  1  -0.017372  0.004894  -0.077576  -0.064858  0.003435  3.978478  0.003
C  C127  1  0.58547277  0.99667824  0.16250698  1  -0.016874  0.004895  -0.07753  -0.064558  0.003435  3.978508  0.003
C  C128  1  0.99668458  0.58546056  0.66251420  1  -0.017384  0.004894  -0.077542  -0.064816  0.003435  3.978368  0.003
C  C129  1  0.41453440  0.00332113  0.83748898  1  -0.01704  0.004896  -0.077561  -0.064783  0.003436  3.97858  0.003
C  C130  1  0.16444770  0.28799816  0.17623303  1  0.349562  0.002458  0.079244  0.250498  0.002028  4.036461  0.002
C  C131  1  0.71200278  0.83555584  0.32376504  1  0.34954  0.002458  0.079176  0.250289  0.002029  4.036887  0.002
C  C132  1  0.83554979  0.71200615  0.82377125  1  0.349465  0.002457  0.079259  0.250406  0.002028  4.03653  0.002
C  C133  1  0.28800531  0.16444550  0.67623218  1  0.349603  0.002456  0.07924  0.250589  0.002027  4.036395  0.002
C  C134  1  0.07684608  0.20451303  0.14564497  1  -0.018414  -0.000209  -0.097389  -0.193952  -0.000386  3.985251  0.0
C  C135  1  0.79549069  0.92315842  0.35435318  1  -0.017904  -0.000209  -0.097314  -0.19386  -0.000385  3.985416  0.0
C  C136  1  0.92315949  0.79548873  0.85435902  1  -0.01846  -0.000209  -0.097398  -0.193976  -0.000386  3.985366  0.0
C  C137  1  0.20451390  0.07684044  0.64564673  1  -0.018368  -0.000208  -0.097395  -0.194076  -0.000385  3.985348  0.0
C  C138  1  0.11153462  0.12121459  0.11108231  1  -0.05722  0.003276  -0.080805  -0.067829  0.002175  3.972695  0.002
C  C139  1  0.87878194  0.88846622  0.38891901  1  -0.056822  0.003276  -0.080789  -0.067834  0.002175  3.972686  0.002
C  C140  1  0.88846376  0.87878552  0.88891990  1  -0.057206  0.003275  -0.080756  -0.067669  0.002175  3.972624  0.002
C  C141  1  0.12121737  0.11153064  0.61108436  1  -0.057373  0.003274  -0.080848  -0.067807  0.002174  3.972773  0.002
C  C142  1  0.23267399  0.12298487  0.10577253  1  0.030432  0.003413  -0.025037  -0.054328  0.002224  3.99139  0.002
C  C143  1  0.87699933  0.76732861  0.39423317  1  0.03052  0.003414  -0.025212  -0.054512  0.002226  3.991497  0.002
C  C144  1  0.76732881  0.87702233  0.89422951  1  0.030441  0.003414  -0.025157  -0.054585  0.002226  3.991729  0.002
C  C145  1  0.12299195  0.23266294  0.60576954  1  0.030883  0.003414  -0.025131  -0.054435  0.002226  3.991415  0.002
C  C146  1  0.31911394  0.20829597  0.13643934  1  -0.051871  0.003411  -0.089494  -0.083584  0.002461  4.00331  0.002
C  C147  1  0.79168762  0.68088641  0.36356630  1  -0.051741  0.003412  -0.089549  -0.083714  0.002462  4.003391  0.002
C  C148  1  0.68089235  0.79171549  0.86356085  1  -0.051906  0.003411  -0.089423  -0.083548  0.002461  4.00341  0.002
C  C149  1  0.20830538  0.31910897  0.63643411  1  -0.051791  0.003409  -0.089571  -0.08372  0.00246  4.003205  0.002
C  C150  1  0.28577947  0.29028119  0.17246027  1  -0.022784  -0.00028  -0.106149  -0.203239  -0.000284  3.996042  0.0
C  C151  1  0.70971413  0.71422626  0.32754232  1  -0.023253  -0.00028  -0.106103  -0.203141  -0.000284  3.996187  0.0
C  C152  1  0.71422152  0.70972385  0.82754049  1  -0.022881  -0.00028  -0.106209  -0.203262  -0.000284  3.996296  0.0
C  C153  1  0.29028861  0.28577563  0.67245601  1  -0.022935  -0.00028  -0.106035  -0.20306  -0.000284  3.995962  0.0
C  C154  1  0.26913283  0.03707662  0.06603835  1  1.578213  0.017133  0.222121  0.594506  0.01653  4.196482  0.016
C  C155  1  0.96291311  0.73086289  0.43396429  1  1.578304  0.017135  0.222312  0.594827  0.016534  4.19623  0.016
C  C156  1  0.73086724  0.96293082  0.93396204  1  1.578162  0.017133  0.222141  0.594649  0.01653  4.196396  0.016
C  C157  1  0.03708080  0.26913009  0.56603650  1  1.578308  0.017127  0.222322  0.594743  0.016525  4.196133  0.016
C  C158  1  0.23570309  0.60171423  0.44147251  1  1.583182  0.026699  0.226905  0.598436  0.025733  4.18134  0.023
C  C159  1  0.39829104  0.76428654  0.05852783  1  1.583465  0.026703  0.226888  0.598367  0.02574  4.181513  0.023
C  C160  1  0.76428987  0.39828637  0.55852800  1  1.583827  0.026696  0.226895  0.598372  0.025739  4.181549  0.023
C  C161  1  0.60171093  0.23571003  0.94147439  1  1.58284  0.026711  0.227001  0.598531  0.025742  4.181486  0.023
C  C162  1  0.29323526  0.58205656  0.39037011  1  0.001723  0.002245  -0.022637  -0.057869  0.00092  3.987964  0.001
C  C163  1  0.41795386  0.70675666  0.10963023  1  0.001388  0.002244  -0.022702  -0.057958  0.000919  3.988162  0.001
C  C164  1  0.70675509  0.41793826  0.60963225  1  0.001901  0.002244  -0.022682  -0.057951  0.00092  3.988118  0.001
C  C165  1  0.58204726  0.29323974  0.89037357  1  0.001266  0.002243  -0.022718  -0.057881  0.000919  3.988113  0.001
C  C166  1  0.29959828  0.46752992  0.37044948  1  -0.01465  0.005784  -0.082538  -0.066484  0.004324  3.988583  0.004
C  C167  1  0.53247934  0.70039795  0.12955110  1  -0.014688  0.005786  -0.08247  -0.066374  0.004326  3.988732  0.004
C  C168  1  0.70039920  0.53246912  0.62955270  1  -0.014674  0.005784  -0.082491  -0.066473  0.004325  3.988565  0.004
C  C169  1  0.46752081  0.29960519  0.87045161  1  -0.014582  0.005788  -0.082503  -0.066585  0.004328  3.988802  0.004
C  C170  1  0.35490474  0.45188549  0.32302321  1  0.005391  -0.001093  -0.105835  -0.207568  -0.001144  4.013114  -0.001
C  C171  1  0.54812660  0.64509616  0.17697739  1  0.005564  -0.001093  -0.105806  -0.207662  -0.001144  4.013048  -0.001
C  C172  1  0.64509271  0.54811703  0.67697864  1  0.005354  -0.001093  -0.105787  -0.207553  -0.001144  4.013008  -0.001
C  C173  1  0.45187267  0.35491030  0.82302698  1  0.005814  -0.001093  -0.105869  -0.207585  -0.001144  4.01331  -0.001
C  C174  1  0.40210844  0.55166158  0.29494596  1  0.311385  0.004844  0.079723  0.250243  0.003958  4.043332  0.003
C  C175  1  0.44835595  0.59789450  0.20505728  1  0.31096  0.004846  0.07971  0.250314  0.003959  4.04327  0.003
C  C176  1  0.59788096  0.44834174  0.70505614  1  0.311314  0.004845  0.079729  0.250249  0.003958  4.043435  0.003
C  C177  1  0.55163801  0.40210816  0.79494811  1  0.310845  0.004847  0.079774  0.250308  0.00396  4.043048  0.003
C  C178  1  0.39375478  0.66633951  0.31334982  1  -0.092221  -0.000816  -0.106388  -0.208433  -0.000887  4.015153  -0.001
C  C179  1  0.33367196  0.60624095  0.18665219  1  -0.091965  -0.000816  -0.106381  -0.208473  -0.000887  4.014921  -0.001
C  C180  1  0.60622568  0.33365916  0.68665121  1  -0.092169  -0.000816  -0.106396  -0.208542  -0.000887  4.015168  -0.001
C  C181  1  0.66632466  0.39375528  0.81335032  1  -0.091959  -0.000817  -0.106371  -0.20836  -0.000888  4.014876  -0.001
C  C182  1  0.34079131  0.68085236  0.36132160  1  0.039167  0.004737  -0.081793  -0.06401  0.003479  3.976539  0.003
C  C183  1  0.31916091  0.65920114  0.13867851  1  0.039303  0.004738  -0.081829  -0.063996  0.00348  3.976384  0.003
C  C184  1  0.65919714  0.31914895  0.63867764  1  0.038857  0.004738  -0.081813  -0.063884  0.00348  3.97656  0.003
C  C185  1  0.68083746  0.34079458  0.86132202  1  0.039457  0.004737  -0.081864  -0.064124  0.003479  3.976509  0.003
C  C186  1  0.81053122  0.92340029  0.51857399  1  0.443485  0.0134  0.054799  0.100861  0.010564  3.93289  0.009
C  C187  1  0.07659872  0.18947184  0.98142819  1  0.444041  0.013403  0.054812  0.100857  0.010566  3.932983  0.009
C  C188  1  0.18945557  0.07659198  0.48142784  1  0.443787  0.013409  0.054768  0.100712  0.010572  3.932876  0.009
C  C189  1  0.92340575  0.81053917  0.01857035  1  0.443851  0.013396  0.054726  0.100741  0.010562  3.933021  0.009
C  C190  1  0.77451474  0.80000474  0.51926769  1  -0.016187  -0.000657  -0.075481  -0.166476  -0.001494  3.918981  -0.001
C  C191  1  0.19999220  0.22548694  0.98073346  1  -0.016134  -0.000659  -0.075436  -0.166426  -0.001497  3.918859  -0.001
C  C192  1  0.22547378  0.19998524  0.48073093  1  -0.015763  -0.000661  -0.075411  -0.166311  -0.001498  3.918804  -0.001
C  C193  1  0.80001316  0.77452076  0.01926383  1  -0.016307  -0.000657  -0.075492  -0.166421  -0.001494  3.918855  -0.001
C  C194  1  0.65692416  0.74381919  0.50133429  1  0.020539  0.01176  0.010717  0.109334  0.00906  4.003617  0.007
C  C195  1  0.25618182  0.34308261  0.99866355  1  0.02046  0.011766  0.010692  0.109289  0.009064  4.003618  0.007
C  C196  1  0.34306511  0.25617875  0.49866089  1  0.020404  0.01177  0.010734  0.109422  0.009067  4.003594  0.007
C  C197  1  0.74382344  0.65692938  0.00133102  1  0.020518  0.01176  0.010801  0.109475  0.009059  4.003402  0.007
C  C198  1  0.58008047  0.81549336  0.48299282  1  -0.008567  -0.001537  -0.071331  -0.149141  -0.002306  3.891295  -0.001
C  C199  1  0.18450549  0.41992459  0.01700465  1  -0.008594  -0.001538  -0.0713  -0.148963  -0.002307  3.891125  -0.001
C  C200  1  0.41991336  0.18450305  0.51700563  1  -0.008679  -0.00154  -0.071333  -0.149298  -0.002309  3.891457  -0.001
C  C201  1  0.81549529  0.58008549  0.98298859  1  -0.008438  -0.001537  -0.071366  -0.149232  -0.002306  3.891093  -0.001
C  C202  1  0.62486796  0.93765254  0.48201722  1  0.463099  0.012674  0.050095  0.090521  0.009906  3.942545  0.009
C  C203  1  0.06234813  0.37514201  0.01798253  1  0.463295  0.012676  0.050074  0.090497  0.00991  3.94256  0.009
C  C204  1  0.37512327  0.06234333  0.51798438  1  0.463023  0.01268  0.050219  0.090642  0.009912  3.942399  0.009
C  C205  1  0.93766249  0.62487381  0.98201262  1  0.46353  0.012673  0.050167  0.090622  0.009908  3.942318  0.009
C  C206  1  0.62013025  0.61413845  0.50134534  1  0.58724  0.003992  0.078234  0.050168  0.00338  3.89254  0.002
C  C207  1  0.38585509  0.37987567  0.99865016  1  0.587512  0.003988  0.078237  0.050115  0.003377  3.892769  0.002
C  C208  1  0.37986168  0.38584868  0.49864567  1  0.587449  0.003986  0.078213  0.050272  0.003376  3.892316  0.002
C  C209  1  0.61414841  0.62013769  0.00134561  1  0.587266  0.00399  0.078233  0.050135  0.003379  3.892145  0.002
C  C210  1  0.64538986  0.26280793  0.40611943  1  1.343417  0.021221  0.184285  0.314696  0.019904  4.062763  0.017
C  C211  1  0.73720535  0.35461639  0.09388560  1  1.343024  0.021227  0.184354  0.314925  0.019909  4.062397  0.017
C  C212  1  0.35461380  0.73719683  0.59388097  1  1.343011  0.021214  0.184254  0.314633  0.019896  4.062797  0.017
C  C213  1  0.26280652  0.64539122  0.90612184  1  1.343172  0.021237  0.184276  0.314741  0.019918  4.062669  0.017
C  C214  1  0.63445516  0.38730714  0.33065428  1  0.311126  0.000673  -0.130138  -0.278493  0.000794  3.921663  0.0
C  C215  1  0.61270179  0.36553887  0.16934667  1  0.311209  0.000673  -0.130127  -0.2785  0.000794  3.921816  0.0
C  C216  1  0.36554214  0.61269084  0.66933986  1  0.311083  0.000673  -0.130012  -0.278311  0.000793  3.921716  0.0
C  C217  1  0.38731103  0.63446111  0.83066104  1  0.310652  0.000674  -0.129945  -0.278116  0.000794  3.921902  0.0
C  C218  1  0.66287449  0.18004806  0.31607769  1  0.242558  9e-05  -0.133378  -0.269674  3e-06  3.897665  0.0
C  C219  1  0.81995885  0.33712685  0.18392773  1  0.24272  9e-05  -0.133408  -0.269584  3e-06  3.897823  0.0
C  C220  1  0.33712483  0.81994880  0.68392568  1  0.242117  9e-05  -0.133468  -0.269753  3e-06  3.897653  0.0
C  C221  1  0.18004770  0.66286031  0.81607599  1  0.242262  9e-05  -0.133527  -0.269787  3e-06  3.898253  0.0
N  N222  1  0.73783263  0.99189914  0.49968889  1  -1.266391  0.055762  -0.318054  -0.245943  0.034884  3.490357  0.011
N  N223  1  0.00809986  0.26217150  0.00031180  1  -1.266972  0.055795  -0.318024  -0.245881  0.034885  3.490309  0.011
N  N224  1  0.26215773  0.00809745  0.50031430  1  -1.266953  0.055762  -0.318127  -0.24592  0.034883  3.490291  0.011
N  N225  1  0.99190280  0.73783558  0.99968462  1  -1.267571  0.055786  -0.318021  -0.245873  0.034887  3.4903  0.011
N  N226  1  0.50798701  0.56180334  0.49985444  1  -0.775873  0.005897  -0.209334  -0.169997  0.004307  3.311473  0.004
N  N227  1  0.43819420  0.49201426  0.00013337  1  -0.775787  0.005902  -0.2094  -0.170058  0.004311  3.311464  0.004
N  N228  1  0.49200297  0.43818759  0.50013060  1  -0.741811  0.005889  -0.209379  -0.170203  0.004314  3.311312  0.004
N  N229  1  0.56181098  0.50799853  0.99985801  1  -0.741768  0.005882  -0.209414  -0.170146  0.004308  3.311069  0.004
N  N230  1  0.64238368  0.27494140  0.35288874  1  -1.192418  0.014055  -0.283418  0.026202  0.010136  3.710898  0.01
N  N231  1  0.72507237  0.35762231  0.14711432  1  -1.193115  0.01406  -0.283339  0.026085  0.010139  3.711196  0.01
N  N232  1  0.35762000  0.72505636  0.64711033  1  -1.19221  0.01405  -0.2834  0.026146  0.010133  3.711053  0.01
N  N233  1  0.27493765  0.64237783  0.85288852  1  -1.191888  0.014061  -0.283359  0.026035  0.010141  3.711283  0.01
O  O234  1  0.92538136  0.16741968  0.42475527  1  -1.184059  0.070566  -0.309886  -0.545807  0.049273  2.262511  0.037
O  O235  1  0.83257988  0.07462806  0.07524083  1  -1.183973  0.070559  -0.309912  -0.545735  0.049279  2.262574  0.037
O  O236  1  0.07461978  0.83256710  0.57524673  1  -1.183909  0.070575  -0.309896  -0.545835  0.049275  2.262727  0.037
O  O237  1  0.16742368  0.92537309  0.92475390  1  -1.18397  0.070568  -0.309987  -0.545923  0.049278  2.262377  0.037
O  O238  1  0.91256828  0.35729328  0.43975861  1  -1.221176  0.081555  -0.302482  -0.58918  0.061378  2.351028  0.036
O  O239  1  0.64270381  0.08742856  0.06023838  1  -1.220572  0.081529  -0.302459  -0.589137  0.061379  2.351159  0.036
O  O240  1  0.08742836  0.64269246  0.56024169  1  -1.220458  0.081524  -0.302517  -0.589381  0.061377  2.351019  0.036
O  O241  1  0.35730068  0.91256669  0.93975625  1  -1.22082  0.081549  -0.302451  -0.589202  0.061375  2.350962  0.036
O  O242  1  0.13115817  0.37620322  0.20911158  1  -1.107043  0.001937  -0.152691  -0.222844  0.001338  2.577693  0.001
O  O243  1  0.62380447  0.86884385  0.29088482  1  -1.106841  0.001937  -0.152639  -0.222683  0.001338  2.577704  0.001
O  O244  1  0.86884560  0.62379726  0.79089195  1  -1.107015  0.001937  -0.152663  -0.222762  0.001338  2.57732  0.001
O  O245  1  0.37620626  0.13115806  0.70911086  1  -1.107055  0.001937  -0.152759  -0.22296  0.001338  2.577651  0.001
O  O246  1  0.37761963  0.05758949  0.05429395  1  -1.195217  0.057979  -0.303591  -0.571126  0.042768  2.30735  0.027
O  O247  1  0.94240244  0.62237654  0.44570416  1  -1.195642  0.057989  -0.303656  -0.571226  0.042776  2.307494  0.027
O  O248  1  0.62237959  0.94240991  0.94570626  1  -1.195222  0.057993  -0.303629  -0.571203  0.042775  2.307441  0.027
O  O249  1  0.05759413  0.37761790  0.55429590  1  -1.195491  0.057971  -0.303677  -0.571176  0.042766  2.307296  0.027
O  O250  1  0.18576538  0.95037573  0.04675774  1  -1.207502  0.07498  -0.317645  -0.568804  0.052176  2.368109  0.036
O  O251  1  0.04961690  0.81423038  0.45324322  1  -1.207358  0.074996  -0.317661  -0.568875  0.052185  2.367986  0.036
O  O252  1  0.81423103  0.04963782  0.95324110  1  -1.207554  0.074971  -0.317539  -0.568734  0.052173  2.368154  0.036
O  O253  1  0.95038143  0.18576267  0.54675484  1  -1.207516  0.074983  -0.317752  -0.568947  0.052181  2.368109  0.036
O  O254  1  0.16339803  0.51394049  0.45913317  1  -1.212035  0.06188  -0.306002  -0.575695  0.044968  2.317953  0.028
O  O255  1  0.48606138  0.83658975  0.04086383  1  -1.2124  0.061896  -0.306035  -0.575738  0.04497  2.318111  0.028
O  O256  1  0.83659041  0.48605993  0.54086525  1  -1.212743  0.061901  -0.306027  -0.57572  0.044972  2.318072  0.028
O  O257  1  0.51393079  0.16339498  0.95913636  1  -1.211941  0.061901  -0.306165  -0.575909  0.044978  2.317784  0.028
O  O258  1  0.26545074  0.70752581  0.46381237  1  -1.209129  0.077838  -0.318826  -0.575008  0.053781  2.396801  0.034
O  O259  1  0.29247573  0.73453733  0.03618921  1  -1.20901  0.07784  -0.31881  -0.574994  0.053781  2.396915  0.034
O  O260  1  0.73454402  0.29247521  0.53618859  1  -1.209114  0.077855  -0.318824  -0.574959  0.053783  2.397003  0.034
O  O261  1  0.70751200  0.26545781  0.96381550  1  -1.209047  0.077853  -0.318772  -0.574901  0.053784  2.397379  0.034
O  O262  1  0.46534001  0.53467413  0.25000182  1  -1.119225  0.002114  -0.16531  -0.247282  0.001388  2.583874  0.001
O  O263  1  0.53465832  0.46533120  0.75000009  1  -1.119401  0.002115  -0.16523  -0.247162  0.001388  2.583757  0.001
O  O264  1  0.66289053  0.17033715  0.42685010  1  -1.194008  0.041906  -0.295556  -0.472688  0.026837  2.37661  0.011
O  O265  1  0.82967315  0.33711672  0.07315188  1  -1.193791  0.041936  -0.295597  -0.472753  0.026844  2.376393  0.011
O  O266  1  0.33711761  0.82966862  0.57315042  1  -1.193695  0.041906  -0.295553  -0.472621  0.026833  2.376506  0.011
O  O267  1  0.17033589  0.66289890  0.92685205  1  -1.19401  0.041914  -0.295554  -0.472668  0.026835  2.376435  0.011
