# generated using pymatgen
data_Zn2H16C29N2O13
_symmetry_space_group_name_H-M   'P 1'
_cell_length_a   9.98696277
_cell_length_b   11.12956295
_cell_length_c   15.29825258
_cell_angle_alpha   89.87456539
_cell_angle_beta   93.85905907
_cell_angle_gamma   93.99572447
_symmetry_Int_Tables_number   1
_chemical_formula_structural   Zn2H16C29N2O13
_chemical_formula_sum   'Zn2 H16 C29 N2 O13'
_cell_volume   1692.42419639
_cell_formula_units_Z   1
loop_
 _symmetry_equiv_pos_site_id
 _symmetry_equiv_pos_as_xyz
  1  'x, y, z'
loop_
 _atom_site_type_symbol
 _atom_site_label
 _atom_site_symmetry_multiplicity
 _atom_site_fract_x
 _atom_site_fract_y
 _atom_site_fract_z
 _atom_site_occupancy
 _atom_site_pbe_bader_charge
 _atom_site_pbe_bader_spin_density
 _atom_site_pbe_cm5_charge
 _atom_site_pbe_ddec_charge
 _atom_site_pbe_ddec_spin_density
 _atom_site_pbe_ddec_sum_bond_order
 _atom_site_pbe_magmom
Zn  Zn0  1  0.63536683  0.49671748  0.50979309  1  1.285245  0  0.666164  0.855129  0  2.428661  0
Zn  Zn1  1  0.35805838  0.47716095  0.49833608  1  1.272692  0  0.663801  0.838081  0  2.402751  0
H  H2  1  0.60299060  0.08687617  0.47749465  1  0.090931  0  0.105631  0.121575  0  0.9939  0
H  H3  1  0.82893187  0.41915933  0.93659430  1  0.133659  0  0.112544  0.120652  0  1.004468  0
H  H4  1  0.29974475  0.08878596  0.50160443  1  0.096437  0  0.10655  0.104298  0  0.984213  0
H  H5  1  0.69613220  0.42518817  0.72017852  1  0.620824  0  0.295084  0.342331  0  1.00044  0
H  H6  1  0.01637316  0.35773334  0.63051909  1  0.631675  0  0.37578  0.399653  0  0.813982  0
H  H7  1  0.18473317  0.52854617  0.34251908  1  0.185264  0  0.143114  0.082969  0  0.978752  0
H  H8  1  0.11931598  0.52360808  0.83666818  1  0.029786  0  0.089975  0.017599  0  0.982159  0
H  H9  1  0.88884739  0.46327773  0.17622956  1  0.052487  0  0.094822  0.02918  0  0.99764  0
H  H10  1  0.29507654  0.86731632  0.47737280  1  0.091435  0  0.107042  0.10529  0  0.984537  0
H  H11  1  0.59207294  0.89332559  0.54733628  1  0.089769  0  0.10757  0.124229  0  0.990375  0
H  H12  1  0.85794926  0.35430078  0.45573731  1  0.198003  0  0.151687  0.14696  0  0.939929  0
H  H13  1  0.89266278  0.56706595  0.57108466  1  0.440841  0  0.323896  0.298818  0  0.896434  0
H  H14  1  0.29101428  0.51843895  0.77483877  1  0.092021  0  0.100058  0.100092  0  1.039493  0
H  H15  1  0.18157330  0.57040832  0.07463006  1  0.131425  0  0.110314  0.116768  0  1.0011  0
H  H16  1  0.30418254  0.54973639  0.21763759  1  0.082136  0  0.104145  0.106367  0  1.012691  0
H  H17  1  0.71915796  0.47289527  0.23755364  1  0.098697  0  0.103152  0.108711  0  1.034952  0
C  C18  1  0.48656244  0.71779376  0.51887604  1  1.492388  0  0.207834  0.637281  0  4.177403  0
C  C19  1  0.39460727  0.53084462  0.18563657  1  -0.032772  0  -0.078655  -0.135564  0  3.93875  0
C  C20  1  0.51232491  0.50974632  0.23586312  1  -0.008641  0  -0.017806  -0.022323  0  4.008418  0
C  C21  1  0.51182687  0.50713091  0.33372183  1  1.523501  0  0.21692  0.601436  0  4.156861  0
C  C22  1  0.62948711  0.48693715  0.19531026  1  0.017963  0  -0.081547  -0.145491  0  3.924326  0
C  C23  1  0.39475671  0.04688784  0.49633349  1  -0.124755  0  -0.070551  -0.019381  0  3.985632  0
C  C24  1  0.50554663  0.12133017  0.48758452  1  -0.034625  0  -0.092032  -0.227741  0  3.88324  0
C  C25  1  0.39082883  0.91646679  0.49732622  1  -0.013662  0  -0.072197  -0.026857  0  3.991638  0
C  C26  1  0.49506763  0.85089736  0.52285745  1  0.027743  0  -0.088757  -0.220573  0  3.879424  0
C  C27  1  0.90978039  0.42652813  0.49630050  1  0.727963  0  0.111882  0.074308  0  3.920908  0
C  C28  1  0.05747157  0.42324538  0.51904072  1  1.295534  0  0.2886  0.487421  0  3.981614  0
C  C29  1  0.61906011  0.45859329  0.91703289  1  0.050714  0  -0.016317  -0.043083  0  4.002347  0
C  C30  1  0.50304793  0.25400614  0.49103578  1  1.563997  0  0.207085  0.637327  0  4.181575  0
C  C31  1  0.48681239  0.46892860  0.67707777  1  1.52526  0  0.215966  0.610155  0  4.135706  0
C  C32  1  0.61387017  0.44991867  0.82416213  1  0.561068  0  0.105829  0.288685  0  4.008185  0
C  C33  1  0.49332288  0.47217958  0.77430851  1  -0.020268  0  -0.040321  -0.185918  0  4.011479  0
C  C34  1  0.37990979  0.50092387  0.81672103  1  0.028948  0  -0.080862  -0.11135  0  3.982416  0
C  C35  1  0.37970588  0.50914930  0.90795288  1  -0.103099  0  -0.012163  0.017133  0  4.024474  0
C  C36  1  0.50202388  0.48868927  0.95881748  1  -0.008835  0  0.011998  0.02907  0  3.928863  0
C  C37  1  0.10230985  0.49843520  0.38357157  1  1.28997  0  0.2158  0.420897  0  3.92363  0
C  C38  1  0.13288981  0.55938460  0.90514850  1  0.950876  0  0.096396  0.281351  0  3.974341  0
C  C39  1  0.87856926  0.43404583  0.10630273  1  0.912445  0  0.091837  0.272632  0  3.971747  0
C  C40  1  0.26370481  0.54071940  0.95271719  1  -0.022759  0  -0.021472  -0.029818  0  3.997516  0
C  C41  1  0.27134648  0.54951717  0.04238617  1  -0.053499  0  -0.063205  -0.113687  0  3.911195  0
C  C42  1  0.39108075  0.52759055  0.09405858  1  0.039438  0  -0.004341  0.077499  0  4.044694  0
C  C43  1  0.50869993  0.49880956  0.05186173  1  0.016848  0  0.011005  0.009312  0  3.892342  0
C  C44  1  0.63055493  0.47955466  0.10351510  1  -0.053298  0  0.00223  0.051321  0  3.98839  0
C  C45  1  0.74731881  0.45031033  0.05856886  1  0.001767  0  -0.022441  -0.044176  0  3.983425  0
C  C46  1  0.73914927  0.44001339  0.96858228  1  -0.028256  0  -0.057199  -0.076271  0  3.897762  0
N  N47  1  0.83962899  0.50177638  0.53317501  1  -1.196827  0  -0.453965  -0.401304  0  3.290476  0
N  N48  1  0.15004224  0.46036843  0.46771604  1  -1.230302  0  -0.326965  -0.383113  0  3.350695  0
O  O49  1  0.59721340  0.66842594  0.53729242  1  -1.155644  0  -0.328705  -0.561827  0  2.273293  0
O  O50  1  0.09479512  0.38231128  0.59784314  1  -1.068935  0  -0.259677  -0.360074  0  2.255511  0
O  O51  1  0.98262364  0.49555264  0.35938912  1  -1.043154  0  -0.213477  -0.334151  0  2.1402  0
O  O52  1  0.04068680  0.60859795  0.93626989  1  -1.074864  0  -0.269644  -0.363597  0  2.111909  0
O  O53  1  0.97482383  0.39274604  0.07360698  1  -1.082258  0  -0.276095  -0.373859  0  2.119196  0
O  O54  1  0.37336912  0.66188681  0.49733762  1  -1.149184  0  -0.326278  -0.559944  0  2.294303  0
O  O55  1  0.62431131  0.52468359  0.37769585  1  -1.161542  0  -0.317375  -0.536234  0  2.292347  0
O  O56  1  0.39795077  0.48566513  0.36597631  1  -1.171535  0  -0.319155  -0.570859  0  2.343599  0
O  O57  1  0.61620990  0.31405733  0.48513700  1  -1.165292  0  -0.327791  -0.570205  0  2.285856  0
O  O58  1  0.39092362  0.29917024  0.50053707  1  -1.165944  0  -0.324426  -0.559261  0  2.317028  0
O  O59  1  0.59700033  0.44884078  0.64098217  1  -1.171413  0  -0.316539  -0.566541  0  2.355388  0
O  O60  1  0.37708936  0.48642596  0.63413949  1  -1.166528  0  -0.311661  -0.528113  0  2.316362  0
O  O61  1  0.72424991  0.42134704  0.78547050  1  -1.14186  0  -0.353092  -0.443213  0  2.275996  0
