# generated using pymatgen
data_AgH6C7N5
_symmetry_space_group_name_H-M   'P 1'
_cell_length_a   8.48370716
_cell_length_b   8.57786613
_cell_length_c   11.12118691
_cell_angle_alpha   97.43484579
_cell_angle_beta   90.87719961
_cell_angle_gamma   94.66463825
_symmetry_Int_Tables_number   1
_chemical_formula_structural   AgH6C7N5
_chemical_formula_sum   'Ag4 H24 C28 N20'
_cell_volume   799.57663199
_cell_formula_units_Z   4
loop_
 _symmetry_equiv_pos_site_id
 _symmetry_equiv_pos_as_xyz
  1  'x, y, z'
loop_
 _atom_site_type_symbol
 _atom_site_label
 _atom_site_symmetry_multiplicity
 _atom_site_fract_x
 _atom_site_fract_y
 _atom_site_fract_z
 _atom_site_occupancy
 _atom_site_hle17_bader_spin_density
 _atom_site_hle17_ddec_charge
 _atom_site_hle17_ddec_spin_density
 _atom_site_hle17_ddec_sum_bond_order
 _atom_site_hle17_magmom
 _atom_site_hse06_10hf_bader_spin_density
 _atom_site_hse06_10hf_ddec_charge
 _atom_site_hse06_10hf_ddec_spin_density
 _atom_site_hse06_10hf_ddec_sum_bond_order
 _atom_site_hse06_10hf_magmom
 _atom_site_hse06_bader_spin_density
 _atom_site_hse06_ddec_charge
 _atom_site_hse06_ddec_spin_density
 _atom_site_hse06_ddec_sum_bond_order
 _atom_site_hse06_magmom
 _atom_site_pbe_bader_spin_density
 _atom_site_pbe_cm5_charge
 _atom_site_pbe_ddec_charge
 _atom_site_pbe_ddec_spin_density
 _atom_site_pbe_ddec_sum_bond_order
 _atom_site_pbe_magmom
Ag  Ag0  1  0.79680931  0.53934837  0.62216074  1  0  0.467864  0  1.531609  0  0  0.318871  0  1.991396  0  0  0.343318  0  1.949085  0  0  0.481939  0.302758  0  2.020169  0
Ag  Ag1  1  0.20319137  0.46065311  0.37784124  1  0  0.467849  0  1.53162  0  0  0.318865  0  1.991381  0  0  0.343313  0  1.949069  0  0  0.481937  0.302751  0  2.020154  0
Ag  Ag2  1  0.48777164  0.68296077  0.90073579  1  0  0.458877  0  1.511051  0  0  0.296049  0  1.983258  0  0  0.322497  0  1.937972  0  0  0.477351  0.27843  0  2.014204  0
Ag  Ag3  1  0.51222893  0.31703954  0.09926516  1  0  0.458865  0  1.51102  0  0  0.296025  0  1.983209  0  0  0.322472  0  1.937927  0  0  0.477345  0.278405  0  2.014143  0
H  H4  1  0.52926945  0.91257410  0.68960637  1  0  0.104368  0  0.958288  0  0  0.111125  0  1.030141  0  0  0.115532  0  1.02665  0  0  0.099782  0.107893  0  1.032835  0
H  H5  1  0.47072887  0.08742742  0.31039289  1  0  0.104351  0  0.958291  0  0  0.111107  0  1.030148  0  0  0.115528  0  1.026643  0  0  0.099771  0.107876  0  1.032837  0
H  H6  1  0.78900440  0.78148033  0.36750336  1  0  0.103041  0  0.948198  0  0  0.114071  0  1.007788  0  0  0.11712  0  1.006969  0  0  0.100948  0.111885  0  1.008502  0
H  H7  1  0.21099628  0.21852117  0.63249682  1  0  0.103016  0  0.948204  0  0  0.114049  0  1.007792  0  0  0.117099  0  1.006973  0  0  0.100941  0.111864  0  1.008509  0
H  H8  1  0.90619531  0.05875646  0.37708809  1  0  0.088371  0  0.944114  0  0  0.101934  0  0.998579  0  0  0.104018  0  0.998481  0  0  0.09932  0.100433  0  0.998695  0
H  H9  1  0.09380526  0.94124386  0.62291196  1  0  0.08845  0  0.944013  0  0  0.101981  0  0.998512  0  0  0.104066  0  0.998413  0  0  0.09934  0.100481  0  0.998628  0
H  H10  1  0.84099039  0.26098357  0.54412026  1  0  0.077511  0  1.019692  0  0  0.080799  0  1.104965  0  0  0.085155  0  1.100299  0  0  0.085093  0.077526  0  1.108535  0
H  H11  1  0.15900901  0.73901676  0.45587888  1  0  0.077532  0  1.019689  0  0  0.080819  0  1.104961  0  0  0.085175  0  1.100295  0  0  0.0851  0.077549  0  1.108528  0
H  H12  1  0.86143126  0.82266054  0.78565162  1  0  0.100165  0  0.96554  0  0  0.110495  0  1.032727  0  0  0.114131  0  1.030126  0  0  0.097249  0.107793  0  1.034868  0
H  H13  1  0.13856942  0.17734097  0.21434766  1  0  0.100167  0  0.96556  0  0  0.110478  0  1.032766  0  0  0.114113  0  1.030168  0  0  0.097242  0.107778  0  1.034904  0
H  H14  1  0.79075861  0.86510303  0.17053658  1  0  0.100398  0  0.960257  0  0  0.110019  0  1.024432  0  0  0.113056  0  1.023245  0  0  0.100487  0.107845  0  1.025358  0
H  H15  1  0.20924046  0.13489376  0.82946308  1  0  0.100368  0  0.960314  0  0  0.110008  0  1.024461  0  0  0.113048  0  1.023275  0  0  0.100465  0.107839  0  1.025387  0
H  H16  1  0.03164850  0.72440791  0.19735222  1  0  0.087242  0  0.951579  0  0  0.097406  0  1.013315  0  0  0.099899  0  1.012388  0  0  0.096568  0.095502  0  1.01418  0
H  H17  1  0.96834693  0.27558772  0.80264728  1  0  0.087244  0  0.951568  0  0  0.09739  0  1.013333  0  0  0.099887  0  1.0124  0  0  0.096564  0.095495  0  1.014174  0
H  H18  1  0.18351274  0.62524146  0.01749689  1  0  0.092809  0  0.982782  0  0  0.098624  0  1.054498  0  0  0.101346  0  1.05364  0  0  0.096858  0.096568  0  1.055358  0
H  H19  1  0.81648643  0.37475651  0.98250289  1  0  0.092812  0  0.982762  0  0  0.098621  0  1.054487  0  0  0.101344  0  1.053627  0  0  0.096865  0.096564  0  1.055342  0
H  H20  1  0.58943956  0.60664317  0.44617019  1  0  0.293793  0  0.936373  0  0  0.274718  0  1.007612  0  0  0.280626  0  1.003912  0  0  0.292152  0.270507  0  1.010259  0
H  H21  1  0.41056101  0.39335713  0.55383166  1  0  0.293814  0  0.936518  0  0  0.274732  0  1.007754  0  0  0.280639  0  1.004055  0  0  0.292168  0.270516  0  1.010409  0
H  H22  1  0.49508943  0.65478737  0.57678474  1  0  0.288056  0  0.956635  0  0  0.266281  0  1.03469  0  0  0.272938  0  1.029506  0  0  0.285372  0.261539  0  1.038382  0
H  H23  1  0.50491242  0.34521411  0.42321724  1  0  0.288046  0  0.956623  0  0  0.266272  0  1.034686  0  0  0.272929  0  1.029504  0  0  0.285384  0.26153  0  1.038371  0
H  H24  1  0.66058698  0.99405500  0.89936755  1  0  0.296617  0  0.943238  0  0  0.277793  0  1.015233  0  0  0.283782  0  1.011571  0  0  0.286838  0.273567  0  1.017759  0
H  H25  1  0.33941381  0.00594767  0.10063365  1  0  0.296655  0  0.943188  0  0  0.277807  0  1.01522  0  0  0.283798  0  1.011553  0  0  0.286838  0.273581  0  1.017746  0
H  H26  1  0.62003789  0.96070778  0.04078767  1  0  0.29623  0  0.907159  0  0  0.283642  0  0.969356  0  0  0.289803  0  0.964318  0  0  0.295292  0.279162  0  0.973116  0
H  H27  1  0.37996279  0.03929370  0.95921431  1  0  0.296209  0  0.907228  0  0  0.283619  0  0.969433  0  0  0.28978  0  0.964392  0  0  0.295284  0.279137  0  0.973193  0
C  C28  1  0.63132968  0.21699786  0.72459247  1  0  0.267539  0  3.795691  0  0  0.246986  0  4.056098  0  0  0.255854  0  4.073809  0  0  0.214247  0.241024  0  4.044082  0
C  C29  1  0.36867100  0.78300363  0.27540771  1  0  0.267497  0  3.79567  0  0  0.246954  0  4.056062  0  0  0.255817  0  4.073781  0  0  0.214251  0.240997  0  4.044038  0
C  C30  1  0.67888578  0.10042579  0.62717467  1  0  0.021135  0  3.841245  0  0  0.040587  0  4.071088  0  0  0.041408  0  4.094521  0  0  -0.012315  0.040102  0  4.055123  0
C  C31  1  0.32111372  0.89957572  0.37282460  1  0  0.02118  0  3.84119  0  0  0.040627  0  4.071023  0  0  0.041448  0  4.09446  0  0  -0.012316  0.040138  0  4.055059  0
C  C32  1  0.61419364  0.94404438  0.62229911  1  0  -0.211528  0  3.695015  0  0  -0.232734  0  3.934049  0  0  -0.239694  0  3.955332  0  0  -0.102738  -0.228004  0  3.919794  0
C  C33  1  0.38580469  0.05595714  0.37770014  1  0  -0.211435  0  3.694999  0  0  -0.232645  0  3.934044  0  0  -0.239616  0  3.955322  0  0  -0.102701  -0.227916  0  3.919785  0
C  C34  1  0.65471968  0.82894086  0.52984523  1  0  0.291809  0  3.836165  0  0  0.292563  0  4.07491  0  0  0.301266  0  4.096958  0  0  0.084078  0.286525  0  4.059918  0
C  C35  1  0.34527972  0.17105948  0.47015391  1  0  0.29173  0  3.836099  0  0  0.292476  0  4.074865  0  0  0.301178  0  4.096917  0  0  0.084048  0.286441  0  4.05987  0
C  C36  1  0.75789362  0.87162647  0.43965133  1  0  -0.179972  0  3.716286  0  0  -0.20145  0  3.970685  0  0  -0.207145  0  3.990647  0  0  -0.103824  -0.197629  0  3.95725  0
C  C37  1  0.24210578  0.12837385  0.56034871  1  0  -0.179881  0  3.716264  0  0  -0.201362  0  3.970657  0  0  -0.207058  0  3.99062  0  0  -0.103792  -0.197548  0  3.957235  0
C  C38  1  0.82277696  0.02678468  0.44526468  1  0  -0.040491  0  3.804405  0  0  -0.051062  0  4.054594  0  0  -0.050148  0  4.076331  0  0  -0.093227  -0.051473  0  4.039639  0
C  C39  1  0.17722147  0.97321802  0.55473470  1  0  -0.040589  0  3.804382  0  0  -0.051134  0  4.054568  0  0  -0.050219  0  4.076305  0  0  -0.093259  -0.051547  0  4.03962  0
C  C40  1  0.78593272  0.14113215  0.53918746  1  0  -0.131025  0  3.753957  0  0  -0.158428  0  4.009048  0  0  -0.163488  0  4.030668  0  0  -0.110673  -0.154962  0  3.994492  0
C  C41  1  0.21406678  0.85886937  0.46081091  1  0  -0.131126  0  3.753966  0  0  -0.158526  0  4.009052  0  0  -0.163587  0  4.03067  0  0  -0.110713  -0.15506  0  3.994496  0
C  C42  1  0.11984732  0.66034505  0.78377316  1  0  0.27549  0  3.777887  0  0  0.251808  0  4.033871  0  0  0.262108  0  4.05243  0  0  0.218252  0.244905  0  4.021246  0
C  C43  1  0.88015207  0.33965527  0.21622778  1  0  0.27543  0  3.778063  0  0  0.251786  0  4.033998  0  0  0.262086  0  4.052559  0  0  0.218229  0.244874  0  4.021381  0
C  C44  1  0.03513562  0.72204141  0.89082347  1  0  0.019444  0  3.829811  0  0  0.037788  0  4.062905  0  0  0.037889  0  4.085277  0  0  -0.011324  0.03768  0  4.047808  0
C  C45  1  0.96486506  0.27796007  0.10917851  1  0  0.019438  0  3.829862  0  0  0.037744  0  4.062983  0  0  0.037843  0  4.085357  0  0  -0.011331  0.037641  0  4.047884  0
C  C46  1  0.89953338  0.80134690  0.87594370  1  0  -0.213159  0  3.707051  0  0  -0.235904  0  3.94971  0  0  -0.241372  0  3.96878  0  0  -0.101457  -0.232222  0  3.937097  0
C  C47  1  0.10046483  0.19865343  0.12405633  1  0  -0.213182  0  3.7071  0  0  -0.235904  0  3.949783  0  0  -0.241368  0  3.968851  0  0  -0.101449  -0.232223  0  3.937175  0
C  C48  1  0.81000480  0.85046799  0.97636446  1  0  0.293098  0  3.817299  0  0  0.294941  0  4.052004  0  0  0.302632  0  4.07523  0  0  0.083127  0.289558  0  4.036217  0
C  C49  1  0.18999460  0.14953234  0.02363558  1  0  0.293143  0  3.817205  0  0  0.294966  0  4.05193  0  0  0.302653  0  4.075164  0  0  0.083138  0.28958  0  4.036151  0
C  C50  1  0.86028054  0.82504076  0.09252328  1  0  -0.172895  0  3.720694  0  0  -0.193991  0  3.970607  0  0  -0.199013  0  3.99124  0  0  -0.100146  -0.190571  0  3.956634  0
C  C51  1  0.13971735  0.17495604  0.90747547  1  0  -0.172872  0  3.720696  0  0  -0.193979  0  3.970599  0  0  -0.199006  0  3.991241  0  0  -0.100135  -0.19056  0  3.95663  0
C  C52  1  0.99541561  0.74670138  0.10703659  1  0  -0.042042  0  3.780299  0  0  -0.054164  0  4.031496  0  0  -0.054088  0  4.05266  0  0  -0.095586  -0.054025  0  4.017054  0
C  C53  1  0.00458345  0.25329541  0.89296307  1  0  -0.042052  0  3.780273  0  0  -0.054158  0  4.031452  0  0  -0.054088  0  4.052613  0  0  -0.095571  -0.054017  0  4.017014  0
C  C54  1  0.08286000  0.69359513  0.00694554  1  0  -0.116917  0  3.736881  0  0  -0.142495  0  3.990368  0  0  -0.145885  0  4.011804  0  0  -0.103934  -0.140178  0  3.975881  0
C  C55  1  0.91713929  0.30640401  0.99305437  1  0  -0.1169  0  3.736802  0  0  -0.142461  0  3.990283  0  0  -0.14585  0  4.011719  0  0  -0.103939  -0.140142  0  3.975788  0
N  N56  1  0.65154555  0.37574040  0.72930391  1  0  -0.301922  0  3.176761  0  0  -0.242239  0  3.47937  0  0  -0.256426  0  3.490533  0  0  -0.247991  -0.232703  0  3.471773  0
N  N57  1  0.34845631  0.62426109  0.27069628  1  0  -0.301871  0  3.176763  0  0  -0.242206  0  3.479397  0  0  -0.256391  0  3.490559  0  0  -0.248008  -0.232672  0  3.4718  0
N  N58  1  0.58968984  0.43442251  0.83474713  1  0  -0.097319  0  3.13895  0  0  -0.059227  0  3.445838  0  0  -0.062072  0  3.45548  0  0  -0.121774  -0.05727  0  3.43943  0
N  N59  1  0.41031191  0.56557778  0.16525473  1  0  -0.097351  0  3.139014  0  0  -0.059259  0  3.445903  0  0  -0.062105  0  3.455547  0  0  -0.121751  -0.057302  0  3.439495  0
N  N60  1  0.53410905  0.31556233  0.89092257  1  0  -0.090357  0  3.213694  0  0  -0.045839  0  3.524699  0  0  -0.049827  0  3.535038  0  0  -0.128884  -0.043016  0  3.51767  0
N  N61  1  0.46589259  0.68443679  0.10907827  1  0  -0.090358  0  3.213718  0  0  -0.045837  0  3.524723  0  0  -0.049825  0  3.53506  0  0  -0.128886  -0.043015  0  3.517694  0
N  N62  1  0.55835225  0.17806101  0.82477540  1  0  -0.331112  0  2.993609  0  0  -0.295817  0  3.261946  0  0  -0.306924  0  3.276247  0  0  -0.224235  -0.288221  0  3.252302  0
N  N63  1  0.44164939  0.82193811  0.17522543  1  0  -0.331102  0  2.993607  0  0  -0.295805  0  3.261937  0  0  -0.306911  0  3.276242  0  0  -0.224232  -0.288209  0  3.252289  0
N  N64  1  0.59791078  0.67071534  0.53055915  1  0  -0.648814  0  3.221487  0  0  -0.590106  0  3.467022  0  0  -0.610095  0  3.464851  0  0  -0.619707  -0.576016  0  3.468196  0
N  N65  1  0.40208990  0.32928615  0.46944192  1  0  -0.648825  0  3.221551  0  0  -0.590095  0  3.46707  0  0  -0.610085  0  3.464898  0  0  -0.619732  -0.576001  0  3.468242  0
N  N66  1  0.04884973  0.60192955  0.67568159  1  0  -0.299174  0  3.212235  0  0  -0.235887  0  3.517835  0  0  -0.251872  0  3.529973  0  0  -0.246363  -0.225141  0  3.509426  0
N  N67  1  0.95115202  0.39807076  0.32431847  1  0  -0.299114  0  3.212328  0  0  -0.235831  0  3.517903  0  0  -0.251814  0  3.530042  0  0  -0.246347  -0.225079  0  3.509491  0
N  N68  1  0.16444789  0.55197530  0.60288233  1  0  -0.090818  0  3.114836  0  0  -0.057497  0  3.412205  0  0  -0.059857  0  3.423274  0  0  -0.10868  -0.055728  0  3.404712  0
N  N69  1  0.83555386  0.44802501  0.39711773  1  0  -0.090816  0  3.115122  0  0  -0.0575  0  3.412496  0  0  -0.059861  0  3.423568  0  0  -0.108648  -0.055728  0  3.404998  0
N  N70  1  0.30075097  0.57908215  0.66281596  1  0  -0.112528  0  3.061199  0  0  -0.088163  0  3.336966  0  0  -0.089195  0  3.350321  0  0  -0.10239  -0.087346  0  3.328038  0
N  N71  1  0.69925195  0.42091813  0.33718592  1  0  -0.112589  0  3.061492  0  0  -0.088234  0  3.337265  0  0  -0.089266  0  3.350624  0  0  -0.102445  -0.087418  0  3.328331  0
N  N72  1  0.27690167  0.64684461  0.77641728  1  0  -0.296473  0  3.20883  0  0  -0.233427  0  3.518358  0  0  -0.249249  0  3.529233  0  0  -0.248232  -0.22277  0  3.510883  0
N  N73  1  0.72310019  0.35315686  0.22358471  1  0  -0.296402  0  3.208846  0  0  -0.233349  0  3.518329  0  0  -0.249172  0  3.529208  0  0  -0.248189  -0.222684  0  3.510838  0
N  N74  1  0.66392736  0.91394373  0.96023474  1  0  -0.647288  0  3.205455  0  0  -0.588054  0  3.446473  0  0  -0.608012  0  3.444079  0  0  -0.611473  -0.573922  0  3.447757  0
N  N75  1  0.33607203  0.08605659  0.03976619  1  0  -0.647358  0  3.205485  0  0  -0.588055  0  3.446432  0  0  -0.608009  0  3.44404  0  0  -0.611464  -0.573921  0  3.447713  0
