# generated using pymatgen
data_CuH11C17N3O5
_symmetry_space_group_name_H-M   'P 1'
_cell_length_a   15.01744707
_cell_length_b   16.21076434
_cell_length_c   20.73360406
_cell_angle_alpha   89.99977876
_cell_angle_beta   90.00030482
_cell_angle_gamma   89.99967619
_symmetry_Int_Tables_number   1
_chemical_formula_structural   CuH11C17N3O5
_chemical_formula_sum   'Cu8 H88 C136 N24 O40'
_cell_volume   5047.47762919
_cell_formula_units_Z   8
loop_
 _symmetry_equiv_pos_site_id
 _symmetry_equiv_pos_as_xyz
  1  'x, y, z'
loop_
 _atom_site_type_symbol
 _atom_site_label
 _atom_site_symmetry_multiplicity
 _atom_site_fract_x
 _atom_site_fract_y
 _atom_site_fract_z
 _atom_site_occupancy
 _atom_site_pbe_bader_charge
 _atom_site_pbe_bader_spin_density
 _atom_site_pbe_cm5_charge
 _atom_site_pbe_ddec_charge
 _atom_site_pbe_ddec_spin_density
 _atom_site_pbe_ddec_sum_bond_order
 _atom_site_pbe_magmom
Cu  Cu0  1  0.53383816  0.10926164  0.56720423  1  1.096685  0.566556  0.748476  0.787998  0.728671  2.238075  0.565
Cu  Cu1  1  0.53383931  0.39073482  0.93279630  1  1.096676  0.566558  0.748443  0.787988  0.728671  2.237957  0.565
Cu  Cu2  1  0.96616307  0.89073693  0.06720591  1  1.096577  0.566561  0.748455  0.788037  0.728679  2.237963  0.565
Cu  Cu3  1  0.96615862  0.60926873  0.43279641  1  1.096584  0.566557  0.748405  0.787866  0.728678  2.238196  0.565
Cu  Cu4  1  0.46615666  0.89073610  0.43279840  1  1.096668  0.56656  0.748451  0.78799  0.728679  2.23801  0.565
Cu  Cu5  1  0.46615884  0.60926415  0.06720344  1  1.096773  0.566562  0.748434  0.787921  0.728682  2.238146  0.565
Cu  Cu6  1  0.03383907  0.10926390  0.93279479  1  1.096695  0.566558  0.748467  0.788081  0.728676  2.237913  0.565
Cu  Cu7  1  0.03383820  0.39073641  0.56720332  1  1.09673  0.566556  0.748432  0.787936  0.728669  2.237967  0.565
H  H8  1  0.71814339  0.13185377  0.47860539  1  0.120268  0.000154  0.108761  0.122374  8.9e-05  1.036228  0.0
H  H9  1  0.71813899  0.36814111  0.02139749  1  0.120312  0.000154  0.108742  0.122318  8.9e-05  1.036357  0.0
H  H10  1  0.78185420  0.86814338  0.97860526  1  0.120299  0.000154  0.108762  0.122337  8.9e-05  1.036266  0.0
H  H11  1  0.78186257  0.63185645  0.52140001  1  0.120432  0.000154  0.108711  0.122262  8.9e-05  1.036414  0.0
H  H12  1  0.28186408  0.86813841  0.52139628  1  0.120358  0.000154  0.108767  0.122357  8.9e-05  1.036312  0.0
H  H13  1  0.28185982  0.63185848  0.97860128  1  0.120371  0.000154  0.10872  0.122267  8.9e-05  1.036422  0.0
H  H14  1  0.21814661  0.13185127  0.02139399  1  0.120289  0.000154  0.108738  0.122362  8.9e-05  1.036252  0.0
H  H15  1  0.21814157  0.36814930  0.47860551  1  0.120519  0.000154  0.108756  0.122383  8.9e-05  1.036197  0.0
H  H16  1  0.89145781  0.14719045  0.31230899  1  0.065373  9.3e-05  0.100519  0.096723  5.7e-05  1.02322  0.0
H  H17  1  0.89146671  0.35281277  0.18768732  1  0.065433  9.3e-05  0.100489  0.096654  5.7e-05  1.023143  0.0
H  H18  1  0.60853990  0.85280382  0.81231066  1  0.06533  9.3e-05  0.100463  0.096642  5.7e-05  1.023259  0.0
H  H19  1  0.60853407  0.64718890  0.68768720  1  0.065451  9.3e-05  0.100486  0.096639  5.7e-05  1.023198  0.0
H  H20  1  0.10853768  0.85281530  0.68768785  1  0.065533  9.3e-05  0.100508  0.096713  5.7e-05  1.023205  0.0
H  H21  1  0.10853610  0.64719175  0.81230952  1  0.065402  9.3e-05  0.100494  0.096651  5.7e-05  1.023211  0.0
H  H22  1  0.39146158  0.14719392  0.18768860  1  0.065336  9.3e-05  0.100481  0.09664  5.7e-05  1.023216  0.0
H  H23  1  0.39146341  0.35280699  0.31231158  1  0.065461  9.3e-05  0.100482  0.09667  5.7e-05  1.023211  0.0
H  H24  1  0.75196907  0.25341238  0.49583286  1  0.148275  0.001097  0.107496  0.120758  0.000775  1.050115  0.001
H  H25  1  0.75196795  0.24658664  0.00416967  1  0.148263  0.001097  0.107494  0.120765  0.000775  1.050118  0.001
H  H26  1  0.74802732  0.74658531  0.99582718  1  0.148385  0.001097  0.107479  0.120708  0.000775  1.050163  0.001
H  H27  1  0.74803215  0.75340977  0.50416591  1  0.148266  0.001097  0.107489  0.120734  0.000775  1.050159  0.001
H  H28  1  0.24803108  0.74658659  0.50416785  1  0.148265  0.001097  0.107514  0.12082  0.000775  1.050082  0.001
H  H29  1  0.24803153  0.75341294  0.99582717  1  0.148321  0.001097  0.107488  0.120755  0.000775  1.050121  0.001
H  H30  1  0.25196750  0.25340934  0.00416966  1  0.148252  0.001097  0.107485  0.120757  0.000775  1.050169  0.001
H  H31  1  0.25196933  0.24659167  0.49583383  1  0.148279  0.001097  0.107509  0.120752  0.000775  1.050158  0.001
H  H32  1  0.88707836  0.82826847  0.18840186  1  0.115753  0.002102  0.121256  0.095128  0.000936  1.015633  0.002
H  H33  1  0.88708129  0.67173513  0.31160113  1  0.115638  0.002101  0.12124  0.095161  0.000936  1.015766  0.002
H  H34  1  0.61291776  0.17173074  0.68839933  1  0.115807  0.002102  0.121266  0.095197  0.000936  1.015622  0.002
H  H35  1  0.61293106  0.32826284  0.81160440  1  0.115648  0.002102  0.121259  0.095086  0.000936  1.015654  0.002
H  H36  1  0.11291845  0.17173606  0.81160174  1  0.115673  0.002102  0.121239  0.095132  0.000936  1.015754  0.002
H  H37  1  0.11292218  0.32826754  0.68839668  1  0.115728  0.002101  0.121259  0.09518  0.000936  1.01572  0.002
H  H38  1  0.38707173  0.82826885  0.31160330  1  0.115821  0.002102  0.121252  0.095096  0.000936  1.015639  0.002
H  H39  1  0.38707908  0.67173428  0.18839872  1  0.115712  0.002102  0.121253  0.095176  0.000936  1.015716  0.002
H  H40  1  0.06606786  0.30358651  0.44405368  1  0.11432  0.001919  0.119015  0.090186  0.000848  1.007349  0.001
H  H41  1  0.06606809  0.19640931  0.05594814  1  0.114267  0.001918  0.118987  0.090183  0.000847  1.007337  0.001
H  H42  1  0.43393062  0.69641034  0.94404984  1  0.114232  0.001918  0.118985  0.090171  0.000847  1.007329  0.001
H  H43  1  0.43393220  0.80359378  0.55595169  1  0.114234  0.001918  0.118974  0.090153  0.000847  1.007313  0.001
H  H44  1  0.93393628  0.69640999  0.55594751  1  0.11436  0.001918  0.119013  0.090178  0.000847  1.007362  0.001
H  H45  1  0.93392939  0.80358967  0.94405594  1  0.114249  0.001918  0.11898  0.090139  0.000847  1.007373  0.001
H  H46  1  0.56606753  0.30358863  0.05594701  1  0.114303  0.001918  0.118992  0.090162  0.000847  1.007362  0.001
H  H47  1  0.56606662  0.19640457  0.44405046  1  0.114261  0.001918  0.118978  0.090158  0.000847  1.007351  0.001
H  H48  1  0.98421999  0.20160204  0.37783556  1  0.065903  0.001076  0.110272  0.117539  0.000559  0.997053  0.001
H  H49  1  0.98422075  0.29839638  0.12216400  1  0.065904  0.001076  0.11029  0.117575  0.000559  0.99704  0.001
H  H50  1  0.51577687  0.79839808  0.87783366  1  0.065792  0.001076  0.11028  0.117576  0.000559  0.997007  0.001
H  H51  1  0.51578288  0.70160561  0.62216625  1  0.065902  0.001076  0.110289  0.11756  0.000559  0.997061  0.001
H  H52  1  0.01577883  0.79839693  0.62216466  1  0.065911  0.001076  0.110282  0.117551  0.000559  0.997019  0.001
H  H53  1  0.01577540  0.70160629  0.87783333  1  0.065703  0.001077  0.110252  0.117489  0.00056  0.997099  0.001
H  H54  1  0.48422128  0.20160398  0.12216656  1  0.065847  0.001077  0.110284  0.117566  0.000559  0.99699  0.001
H  H55  1  0.48421993  0.29839397  0.37783590  1  0.065786  0.001076  0.110301  0.117575  0.000559  0.997052  0.001
H  H56  1  0.84448008  0.12858902  0.19642797  1  0.06544  0.001124  0.105051  0.110112  0.000582  1.008352  0.001
H  H57  1  0.84448506  0.37141568  0.30357009  1  0.065547  0.001124  0.105053  0.110118  0.000582  1.008377  0.001
H  H58  1  0.65551611  0.87140890  0.69642590  1  0.065368  0.001124  0.105081  0.11017  0.000582  1.008424  0.001
H  H59  1  0.65551258  0.62858789  0.80357503  1  0.06547  0.001124  0.105067  0.110125  0.000582  1.008342  0.001
H  H60  1  0.15551807  0.87141797  0.80356936  1  0.065586  0.001124  0.105089  0.110146  0.000582  1.008463  0.001
H  H61  1  0.15551442  0.62859131  0.69642627  1  0.065369  0.001124  0.105047  0.110092  0.000582  1.008403  0.001
H  H62  1  0.34448937  0.12859192  0.30357673  1  0.06539  0.001124  0.105051  0.11011  0.000582  1.008312  0.001
H  H63  1  0.34448424  0.37140985  0.19642664  1  0.065412  0.001124  0.105064  0.110155  0.000582  1.008367  0.001
H  H64  1  0.84436088  0.34891519  0.55783996  1  0.152205  0.001669  0.124685  0.102405  0.00066  0.999554  0.001
H  H65  1  0.84436156  0.15108520  0.94216176  1  0.152215  0.001669  0.124699  0.102365  0.00066  0.99959  0.001
H  H66  1  0.65563896  0.65108095  0.05783634  1  0.152183  0.001669  0.124703  0.102387  0.00066  0.99961  0.001
H  H67  1  0.65563710  0.84891090  0.44215803  1  0.152468  0.001668  0.124729  0.102455  0.00066  0.999485  0.001
H  H68  1  0.15563860  0.65108933  0.44215689  1  0.152943  0.001668  0.124698  0.102408  0.00066  0.999506  0.001
H  H69  1  0.15563992  0.84891007  0.05784183  1  0.152963  0.001668  0.124682  0.102382  0.00066  0.999574  0.001
H  H70  1  0.34435853  0.34891246  0.94215906  1  0.152605  0.001668  0.124695  0.102394  0.00066  0.99956  0.001
H  H71  1  0.34436038  0.15108622  0.55783833  1  0.152128  0.001669  0.124684  0.10236  0.00066  0.999562  0.001
H  H72  1  0.82172722  0.88979356  0.28823619  1  0.106026  0.001102  0.11322  0.126545  0.000593  1.003279  0.001
H  H73  1  0.82174111  0.61020977  0.21176413  1  0.105968  0.001102  0.113202  0.126433  0.000593  1.003292  0.001
H  H74  1  0.67825899  0.11020083  0.78823602  1  0.106147  0.001102  0.113221  0.126445  0.000593  1.003287  0.001
H  H75  1  0.67827183  0.38979055  0.71176843  1  0.106056  0.001102  0.113217  0.126505  0.000593  1.003244  0.001
H  H76  1  0.17826627  0.11021713  0.71176548  1  0.10591  0.001102  0.113201  0.126464  0.000593  1.003291  0.001
H  H77  1  0.17826436  0.38979414  0.78823367  1  0.106072  0.001102  0.113196  0.126411  0.000593  1.003338  0.001
H  H78  1  0.32173051  0.88979999  0.21176757  1  0.106206  0.001102  0.113236  0.126511  0.000593  1.003321  0.001
H  H79  1  0.32173897  0.61020533  0.28823613  1  0.106096  0.001102  0.113185  0.126421  0.000593  1.003296  0.001
H  H80  1  0.90773571  0.05621373  0.09992882  1  0.131739  0.002149  0.119057  0.096461  0.001003  1.009334  0.001
H  H81  1  0.90772963  0.44378879  0.40007431  1  0.131831  0.002149  0.119019  0.096498  0.001004  1.009295  0.001
H  H82  1  0.59226510  0.94378529  0.59992436  1  0.131625  0.002149  0.119018  0.096452  0.001004  1.009346  0.001
H  H83  1  0.59226739  0.55620258  0.90007392  1  0.131493  0.00215  0.119028  0.096441  0.001004  1.009391  0.001
H  H84  1  0.09226910  0.94379264  0.90007092  1  0.131744  0.002149  0.119033  0.09647  0.001003  1.009304  0.001
H  H85  1  0.09226319  0.55621326  0.59992591  1  0.131661  0.002149  0.11902  0.096421  0.001003  1.009351  0.001
H  H86  1  0.40773571  0.05621306  0.40007827  1  0.131591  0.002149  0.119034  0.096432  0.001003  1.009407  0.001
H  H87  1  0.40773010  0.44378899  0.09992437  1  0.131747  0.002149  0.119012  0.096477  0.001004  1.009312  0.001
H  H88  1  0.68415047  0.96384093  0.32152332  1  0.092314  0.000415  0.111452  0.121213  0.000324  0.992652  0.0
H  H89  1  0.68416324  0.53616496  0.17847696  1  0.092749  0.000415  0.111495  0.121276  0.000324  0.992785  0.0
H  H90  1  0.81583465  0.03616317  0.82152343  1  0.091811  0.000415  0.111487  0.121299  0.000324  0.992694  0.0
H  H91  1  0.81584147  0.46383614  0.67848060  1  0.092271  0.000415  0.111479  0.121277  0.000324  0.992673  0.0
H  H92  1  0.31583902  0.03616668  0.67847305  1  0.092723  0.000415  0.11146  0.121225  0.000324  0.992881  0.0
H  H93  1  0.31583624  0.46383462  0.82152471  1  0.092774  0.000415  0.111461  0.121251  0.000324  0.992871  0.0
H  H94  1  0.18416350  0.96383889  0.17847969  1  0.092218  0.000415  0.111494  0.121281  0.000324  0.992672  0.0
H  H95  1  0.18416533  0.53616222  0.32152155  1  0.091559  0.000415  0.111476  0.12125  0.000324  0.992735  0.0
C  C96  1  0.85975025  0.21637637  0.43100165  1  -0.03613  -0.003313  0.015326  0.118595  -0.003721  3.9743  -0.002
C  C97  1  0.85975138  0.28362147  0.06899743  1  -0.036089  -0.003313  0.015369  0.118743  -0.003721  3.974182  -0.002
C  C98  1  0.64024500  0.78362225  0.93100220  1  -0.035498  -0.003313  0.015365  0.118672  -0.003721  3.974319  -0.002
C  C99  1  0.64024920  0.71637647  0.56899674  1  -0.035773  -0.003313  0.015359  0.118668  -0.003721  3.974272  -0.002
C  C100  1  0.14024723  0.78362507  0.56899712  1  -0.035735  -0.003313  0.015365  0.118689  -0.003721  3.974285  -0.002
C  C101  1  0.14024744  0.71637750  0.93099989  1  -0.036069  -0.003314  0.015356  0.118608  -0.003721  3.974419  -0.002
C  C102  1  0.35975315  0.21637549  0.06899754  1  -0.035603  -0.003314  0.015346  0.118625  -0.003722  3.974291  -0.002
C  C103  1  0.35975094  0.28362188  0.43100396  1  -0.035827  -0.003313  0.015332  0.118624  -0.003721  3.974394  -0.002
C  C104  1  0.82644094  0.01460357  0.25043608  1  -0.019323  -0.003287  0.016955  0.118993  -0.003683  3.985883  -0.002
C  C105  1  0.82644883  0.48539938  0.24956143  1  -0.019438  -0.003287  0.016973  0.119024  -0.003683  3.985873  -0.002
C  C106  1  0.67355098  0.98539163  0.75043519  1  -0.019203  -0.003287  0.016999  0.118909  -0.003682  3.986161  -0.002
C  C107  1  0.67355508  0.51460260  0.74956437  1  -0.019288  -0.003287  0.016944  0.118931  -0.003682  3.985918  -0.002
C  C108  1  0.17355654  0.98540157  0.74956269  1  -0.019402  -0.003287  0.016953  0.118908  -0.003682  3.985754  -0.002
C  C109  1  0.17355598  0.51460576  0.75043590  1  -0.019293  -0.003287  0.017001  0.119078  -0.003682  3.986049  -0.002
C  C110  1  0.32644584  0.01460919  0.24956744  1  -0.019081  -0.003287  0.017037  0.119155  -0.003683  3.985971  -0.002
C  C111  1  0.32645373  0.48539329  0.25043537  1  -0.019296  -0.003287  0.016962  0.11884  -0.003683  3.986357  -0.002
C  C112  1  0.61539979  0.00798028  0.43806635  1  1.589947  -0.001412  0.20737  0.579575  -0.001305  4.209391  -0.003
C  C113  1  0.61540426  0.49202439  0.06193565  1  1.590124  -0.001413  0.207362  0.579621  -0.001306  4.209371  -0.003
C  C114  1  0.88459351  0.99202201  0.93806432  1  1.590018  -0.001413  0.207437  0.579827  -0.001306  4.209072  -0.003
C  C115  1  0.88459694  0.50797790  0.56193749  1  1.589994  -0.001413  0.207356  0.579711  -0.001306  4.209351  -0.003
C  C116  1  0.38459969  0.99202239  0.56193965  1  1.590096  -0.001413  0.207397  0.5798  -0.001307  4.209346  -0.003
C  C117  1  0.38459522  0.50797890  0.93806313  1  1.589665  -0.001409  0.207352  0.57974  -0.001306  4.20905  -0.003
C  C118  1  0.11540597  0.00797758  0.06193686  1  1.589744  -0.001409  0.207345  0.579719  -0.001306  4.209042  -0.003
C  C119  1  0.11540654  0.49202600  0.43806321  1  1.589731  -0.001414  0.207339  0.579603  -0.001306  4.209356  -0.003
C  C120  1  0.73787632  0.11251546  0.43034322  1  -0.031749  -8.2e-05  -0.07501  -0.130626  -0.000563  3.895223  0.0
C  C121  1  0.73787682  0.38748302  0.06965925  1  -0.031266  -8.2e-05  -0.074948  -0.130423  -0.000563  3.89531  0.0
C  C122  1  0.76212025  0.88748132  0.93034152  1  -0.031224  -8.2e-05  -0.075003  -0.130436  -0.000563  3.895361  0.0
C  C123  1  0.76212443  0.61251800  0.56966175  1  -0.031713  -8.1e-05  -0.074967  -0.130518  -0.000563  3.895403  0.0
C  C124  1  0.26212516  0.88748475  0.56965700  1  -0.031931  -8.3e-05  -0.075006  -0.130599  -0.000563  3.895203  0.0
C  C125  1  0.26212266  0.61251657  0.93034000  1  -0.031519  -8.1e-05  -0.074937  -0.130374  -0.000563  3.895371  0.0
C  C126  1  0.23788322  0.11251457  0.06965677  1  -0.031267  -8.3e-05  -0.074951  -0.130543  -0.000563  3.895247  0.0
C  C127  1  0.23787971  0.38748652  0.43034329  1  -0.031987  -8.3e-05  -0.074984  -0.130618  -0.000563  3.895118  0.0
C  C128  1  0.83509621  0.11990126  0.33776422  1  -0.005139  -0.001584  -0.082023  -0.165721  -0.001773  3.932306  -0.001
C  C129  1  0.83510409  0.38010349  0.16223380  1  -0.005229  -0.001584  -0.081995  -0.165589  -0.001773  3.93218  -0.001
C  C130  1  0.66489902  0.88009597  0.83776457  1  -0.005143  -0.001584  -0.081921  -0.165569  -0.001773  3.932289  -0.001
C  C131  1  0.66489984  0.61989954  0.66223639  1  -0.005238  -0.001584  -0.081955  -0.165576  -0.001773  3.932087  -0.001
C  C132  1  0.16489994  0.88010264  0.66223359  1  -0.005194  -0.001584  -0.081994  -0.165676  -0.001773  3.932302  -0.001
C  C133  1  0.16489739  0.61990103  0.83776449  1  -0.00529  -0.001584  -0.081958  -0.165474  -0.001773  3.932226  -0.001
C  C134  1  0.33510113  0.11990239  0.16223613  1  -0.005161  -0.001584  -0.081957  -0.165544  -0.001773  3.932292  -0.001
C  C135  1  0.33509965  0.38009573  0.33776431  1  -0.005184  -0.001584  -0.081966  -0.165627  -0.001773  3.932285  -0.001
C  C136  1  0.69207369  0.04690369  0.40213588  1  -0.088211  0.012444  -0.014439  -0.015587  0.008581  3.973517  0.01
C  C137  1  0.69207799  0.45309750  0.09786448  1  -0.089349  0.012445  -0.014445  -0.015804  0.008581  3.973625  0.01
C  C138  1  0.80791868  0.95309570  0.90213512  1  -0.089469  0.012445  -0.014462  -0.015887  0.008581  3.973664  0.01
C  C139  1  0.80792613  0.54690462  0.59786736  1  -0.088942  0.012442  -0.01438  -0.015603  0.00858  3.973605  0.01
C  C140  1  0.30792512  0.95309652  0.59786578  1  -0.088838  0.012444  -0.014432  -0.015781  0.00858  3.973667  0.01
C  C141  1  0.30792149  0.54690332  0.90213332  1  -0.088648  0.01244  -0.014468  -0.015889  0.00858  3.973691  0.01
C  C142  1  0.19208080  0.04690389  0.09786606  1  -0.089062  0.012441  -0.014426  -0.01574  0.008581  3.973549  0.01
C  C143  1  0.19208201  0.45310237  0.40213527  1  -0.088967  0.012445  -0.014492  -0.015728  0.008581  3.97357  0.01
C  C144  1  0.82118116  0.26144023  0.48160631  1  -0.000691  0.005729  -0.07862  -0.160985  0.003869  3.903909  0.005
C  C145  1  0.82118019  0.23855658  0.01839503  1  -0.000677  0.005729  -0.078643  -0.161083  0.003869  3.904064  0.005
C  C146  1  0.67881646  0.73855506  0.98160281  1  -0.001235  0.005729  -0.07865  -0.161051  0.003869  3.904143  0.005
C  C147  1  0.67881935  0.76143853  0.51839291  1  -0.000728  0.00573  -0.078615  -0.160979  0.003869  3.903937  0.005
C  C148  1  0.17881965  0.73855751  0.51839584  1  -0.000731  0.00573  -0.078645  -0.161106  0.00387  3.903966  0.005
C  C149  1  0.17881862  0.76144239  0.98160278  1  -0.00077  0.00573  -0.078639  -0.160966  0.003869  3.904011  0.005
C  C150  1  0.32118036  0.26144021  0.01839403  1  -0.001241  0.00573  -0.078581  -0.160964  0.003869  3.903909  0.005
C  C151  1  0.32118013  0.23855983  0.48160683  1  -0.000758  0.005729  -0.078622  -0.161001  0.003869  3.904017  0.005
C  C152  1  0.87413456  0.89424132  0.19177645  1  0.475224  -0.000462  0.051923  0.100908  -0.000858  3.930211  0.0
C  C153  1  0.87414520  0.60576420  0.30822408  1  0.474974  -0.000461  0.051925  0.10078  -0.000858  3.930253  0.0
C  C154  1  0.62585959  0.10575725  0.69177320  1  0.47489  -0.000461  0.051686  0.100489  -0.000857  3.930004  0.0
C  C155  1  0.62586580  0.39423565  0.80822623  1  0.475189  -0.000462  0.051867  0.100896  -0.000858  3.930246  0.0
C  C156  1  0.12585626  0.10576382  0.80822281  1  0.475211  -0.000461  0.05202  0.101008  -0.000858  3.930188  0.0
C  C157  1  0.12586294  0.39423786  0.69177422  1  0.475126  -0.000461  0.05187  0.100768  -0.000857  3.930324  0.0
C  C158  1  0.37413190  0.89424296  0.30822846  1  0.475135  -0.000461  0.051781  0.100659  -0.000856  3.930178  0.0
C  C159  1  0.37413834  0.60576147  0.19177351  1  0.475044  -0.000461  0.051831  0.100666  -0.000857  3.930234  0.0
C  C160  1  0.99607421  0.29049153  0.45325601  1  0.443638  -0.00061  0.043123  0.094346  -0.000923  3.959812  0.0
C  C161  1  0.99607762  0.20950807  0.04674263  1  0.443535  -0.00061  0.043169  0.094416  -0.000924  3.959772  0.0
C  C162  1  0.50392187  0.70950822  0.95325626  1  0.443575  -0.000611  0.043146  0.094385  -0.000924  3.959764  0.0
C  C163  1  0.50392213  0.79048936  0.54674360  1  0.443616  -0.000611  0.04322  0.094564  -0.000925  3.959704  0.0
C  C164  1  0.00392594  0.70951053  0.54674180  1  0.443571  -0.000611  0.043129  0.094428  -0.000925  3.959557  0.0
C  C165  1  0.00392186  0.79049152  0.95325807  1  0.44353  -0.00061  0.043188  0.09448  -0.000924  3.959692  0.0
C  C166  1  0.49607495  0.29049137  0.04674444  1  0.443584  -0.000611  0.04313  0.094388  -0.000924  3.959782  0.0
C  C167  1  0.49607602  0.20950776  0.45325662  1  0.44359  -0.00061  0.043155  0.094387  -0.000924  3.959747  0.0
C  C168  1  0.94913351  0.23409958  0.41614668  1  -0.010027  0.005612  -0.084865  -0.179853  0.003809  3.947049  0.004
C  C169  1  0.94913485  0.26589779  0.08385274  1  -0.009945  0.005611  -0.084844  -0.179891  0.003808  3.946976  0.004
C  C170  1  0.55086030  0.76590405  0.91614839  1  -0.010049  0.005611  -0.084865  -0.179849  0.003809  3.94707  0.004
C  C171  1  0.55086583  0.73409822  0.58385165  1  -0.010309  0.005611  -0.084884  -0.179905  0.003809  3.947063  0.004
C  C172  1  0.05086597  0.76590062  0.58385305  1  -0.01037  0.005611  -0.084842  -0.179853  0.003808  3.947013  0.004
C  C173  1  0.05086396  0.73410365  0.91614506  1  -0.009769  0.005611  -0.08483  -0.179799  0.003809  3.947149  0.004
C  C174  1  0.44913452  0.23409924  0.08385279  1  -0.009995  0.005611  -0.084862  -0.179885  0.003809  3.947044  0.004
C  C175  1  0.44913365  0.26590075  0.41614808  1  -0.010167  0.005611  -0.084857  -0.179844  0.003809  3.947037  0.004
C  C176  1  0.85231318  0.06170443  0.19679367  1  -0.02832  0.005176  -0.085405  -0.18437  0.003465  3.955282  0.004
C  C177  1  0.85231441  0.43829900  0.30320345  1  -0.028343  0.005177  -0.085414  -0.18444  0.003466  3.955261  0.004
C  C178  1  0.64768102  0.93829164  0.69679379  1  -0.028183  0.005177  -0.085382  -0.184372  0.003466  3.955462  0.004
C  C179  1  0.64768589  0.56170396  0.80320663  1  -0.028195  0.005177  -0.085365  -0.184303  0.003465  3.955097  0.004
C  C180  1  0.14768697  0.93829947  0.80320269  1  -0.028335  0.005177  -0.08545  -0.184434  0.003466  3.955172  0.004
C  C181  1  0.14768706  0.56170737  0.69679532  1  -0.02804  0.005177  -0.08538  -0.184333  0.003465  3.955201  0.004
C  C182  1  0.35231846  0.06170733  0.30321029  1  -0.028222  0.005177  -0.085406  -0.184425  0.003465  3.955311  0.004
C  C183  1  0.35232092  0.43829316  0.19679311  1  -0.027987  0.005177  -0.085359  -0.184368  0.003465  3.955484  0.004
C  C184  1  0.80951410  0.15031492  0.39834501  1  -0.050548  0.00173  -0.009265  0.059968  0.001094  4.019067  0.001
C  C185  1  0.80951906  0.34968503  0.10165437  1  -0.050595  0.001731  -0.009277  0.059911  0.001094  4.019004  0.001
C  C186  1  0.69048291  0.84967954  0.89834507  1  -0.050488  0.001731  -0.009279  0.059933  0.001094  4.018934  0.001
C  C187  1  0.69048176  0.65031460  0.60165648  1  -0.050638  0.001731  -0.009318  0.059945  0.001094  4.018911  0.001
C  C188  1  0.19048339  0.84968528  0.60165425  1  -0.050539  0.001731  -0.009277  0.06001  0.001094  4.018914  0.001
C  C189  1  0.19048375  0.65031702  0.89834296  1  -0.050553  0.001731  -0.009285  0.059906  0.001094  4.019067  0.001
C  C190  1  0.30951790  0.15031696  0.10165563  1  -0.050354  0.001731  -0.00932  0.059976  0.001094  4.0191  0.001
C  C191  1  0.30951505  0.34968191  0.39834471  1  -0.050419  0.001731  -0.00928  0.059988  0.001094  4.018946  0.001
C  C192  1  0.87261463  0.31593836  0.51701262  1  0.436182  -0.001177  0.0534  0.111511  -0.001707  3.918668  -0.001
C  C193  1  0.87261475  0.18406126  0.98298921  1  0.436144  -0.001177  0.053439  0.111653  -0.001707  3.918805  -0.001
C  C194  1  0.62738490  0.68405798  0.01700976  1  0.435733  -0.001177  0.053489  0.111761  -0.001707  3.918743  -0.001
C  C195  1  0.62738421  0.81593772  0.48298740  1  0.435988  -0.001177  0.053306  0.111494  -0.001707  3.918701  -0.001
C  C196  1  0.12738552  0.68406554  0.48298615  1  0.435388  -0.001175  0.053399  0.11158  -0.001706  3.918656  -0.001
C  C197  1  0.12738673  0.81593648  0.01701197  1  0.435397  -0.001176  0.053405  0.111524  -0.001707  3.918773  -0.001
C  C198  1  0.37261192  0.31593790  0.98298805  1  0.435725  -0.001176  0.053367  0.111489  -0.001707  3.918706  -0.001
C  C199  1  0.37261460  0.18406063  0.51701137  1  0.436271  -0.001177  0.053422  0.111606  -0.001707  3.918668  -0.001
C  C200  1  0.83754788  0.92881892  0.24695583  1  0.017844  0.005703  -0.075044  -0.162303  0.003885  3.913862  0.005
C  C201  1  0.83755699  0.57118247  0.25304552  1  0.018298  0.005702  -0.075015  -0.162101  0.003885  3.913737  0.005
C  C202  1  0.66244268  0.07117567  0.74695428  1  0.018133  0.005704  -0.07498  -0.16199  0.003885  3.913757  0.005
C  C203  1  0.66244960  0.42881888  0.75304626  1  0.017951  0.005704  -0.075031  -0.16221  0.003885  3.913736  0.005
C  C204  1  0.16244694  0.07118560  0.75304391  1  0.017983  0.005704  -0.074991  -0.162116  0.003885  3.91353  0.005
C  C205  1  0.16244649  0.42882267  0.74695326  1  0.017935  0.005704  -0.074987  -0.1621  0.003885  3.913847  0.005
C  C206  1  0.33755080  0.92882391  0.25304835  1  0.017763  0.005703  -0.074995  -0.162192  0.003885  3.914018  0.005
C  C207  1  0.33755454  0.57117886  0.24695348  1  0.017949  0.005704  -0.074973  -0.161999  0.003885  3.913911  0.005
C  C208  1  0.88757475  0.02249164  0.14298357  1  0.502855  -0.001453  0.051094  0.109717  -0.00174  3.924976  -0.001
C  C209  1  0.88757148  0.47751099  0.35701755  1  0.503048  -0.001453  0.051007  0.109648  -0.00174  3.925142  -0.001
C  C210  1  0.61242304  0.97750593  0.64298054  1  0.502859  -0.001453  0.051109  0.109685  -0.00174  3.924849  -0.001
C  C211  1  0.61243188  0.52248676  0.85701878  1  0.502983  -0.001453  0.051038  0.10967  -0.00174  3.925127  -0.001
C  C212  1  0.11242939  0.97751288  0.85701665  1  0.502967  -0.001453  0.051032  0.109703  -0.00174  3.924928  -0.001
C  C213  1  0.11242866  0.52249292  0.64298171  1  0.502839  -0.001453  0.051122  0.109764  -0.00174  3.924744  -0.001
C  C214  1  0.38757711  0.02249180  0.35702210  1  0.502699  -0.001453  0.050974  0.109526  -0.00174  3.92507  -0.001
C  C215  1  0.38757826  0.47750974  0.14298192  1  0.502829  -0.001454  0.050958  0.109604  -0.00174  3.925126  -0.001
C  C216  1  0.79196382  0.05184358  0.31029965  1  0.006989  0.000862  -0.006458  0.063525  0.000481  4.022641  0.001
C  C217  1  0.79197282  0.44816079  0.18969773  1  0.006977  0.000862  -0.006554  0.063412  0.000481  4.022885  0.001
C  C218  1  0.70802721  0.94815440  0.81029900  1  0.006921  0.000862  -0.006561  0.063448  0.000481  4.023019  0.001
C  C219  1  0.70803064  0.55183964  0.68970069  1  0.007058  0.000862  -0.006491  0.063512  0.000481  4.022672  0.001
C  C220  1  0.20802567  0.94816218  0.68969816  1  0.006879  0.000862  -0.006555  0.063406  0.000481  4.022739  0.001
C  C221  1  0.20802666  0.55184250  0.81030056  1  0.00699  0.000862  -0.006529  0.063333  0.00048  4.02295  0.001
C  C222  1  0.29197360  0.05184395  0.18970074  1  0.006957  0.000862  -0.006468  0.063448  0.00048  4.022943  0.001
C  C223  1  0.29197283  0.44815624  0.31029857  1  0.006584  0.000862  -0.006491  0.063554  0.000481  4.022923  0.001
C  C224  1  0.71950233  0.01607425  0.34245654  1  0.030336  -0.001586  -0.071395  -0.12082  -0.001831  3.900513  -0.001
C  C225  1  0.71951221  0.48393358  0.15754201  1  0.030686  -0.001586  -0.071401  -0.120801  -0.001831  3.900804  -0.001
C  C226  1  0.78048361  0.98392975  0.84245606  1  0.031653  -0.001586  -0.071395  -0.120853  -0.001831  3.900722  -0.001
C  C227  1  0.78048902  0.51606577  0.65754342  1  0.030968  -0.001586  -0.07142  -0.120923  -0.001831  3.900646  -0.001
C  C228  1  0.28048849  0.98393398  0.65754224  1  0.030686  -0.001586  -0.07138  -0.120724  -0.001831  3.900763  -0.001
C  C229  1  0.28048528  0.51606724  0.84245677  1  0.030572  -0.001586  -0.071356  -0.120755  -0.001831  3.900908  -0.001
C  C230  1  0.21951520  0.01607046  0.15754368  1  0.031207  -0.001587  -0.071428  -0.120907  -0.001832  3.900749  -0.001
C  C231  1  0.21951712  0.48393135  0.34245728  1  0.03184  -0.001586  -0.071397  -0.120871  -0.001831  3.900804  -0.001
N  N232  1  0.95925909  0.32955443  0.50405458  1  -1.217826  0.079748  -0.353583  -0.242321  0.053422  3.640151  0.069
N  N233  1  0.95925939  0.17044289  0.99594421  1  -1.217806  0.079747  -0.353708  -0.242588  0.053421  3.640277  0.069
N  N234  1  0.54073901  0.67044321  0.00405432  1  -1.217434  0.079747  -0.353686  -0.242615  0.053422  3.640259  0.069
N  N235  1  0.54073833  0.82955233  0.49594444  1  -1.217806  0.079746  -0.353619  -0.242629  0.053421  3.640337  0.069
N  N236  1  0.04074238  0.67044701  0.49594179  1  -1.217766  0.079749  -0.353656  -0.242516  0.053422  3.640236  0.069
N  N237  1  0.04074142  0.82955608  0.00405697  1  -1.217831  0.079753  -0.353657  -0.242519  0.053426  3.640169  0.069
N  N238  1  0.45925847  0.32955267  0.99594301  1  -1.217725  0.07975  -0.353614  -0.242418  0.053423  3.640191  0.069
N  N239  1  0.45925915  0.17044356  0.50405482  1  -1.21779  0.079745  -0.353663  -0.242487  0.05342  3.640256  0.069
N  N240  1  0.89866637  0.94016827  0.14072066  1  -1.225652  0.08229  -0.345535  -0.212395  0.054992  3.594966  0.07
N  N241  1  0.89866966  0.55983342  0.35928092  1  -1.226092  0.082293  -0.345405  -0.212291  0.054994  3.595254  0.07
N  N242  1  0.60133141  0.05982931  0.64071746  1  -1.22598  0.0823  -0.345436  -0.212148  0.054998  3.594588  0.07
N  N243  1  0.60133837  0.44016556  0.85928091  1  -1.225822  0.082295  -0.345461  -0.212383  0.054995  3.595336  0.07
N  N244  1  0.10133444  0.05983502  0.85927908  1  -1.225795  0.082297  -0.345503  -0.212475  0.054997  3.595303  0.07
N  N245  1  0.10133647  0.44016864  0.64071882  1  -1.225869  0.082297  -0.34556  -0.212437  0.054998  3.59497  0.07
N  N246  1  0.39866408  0.94016842  0.35928517  1  -1.225881  0.082295  -0.34538  -0.211952  0.054995  3.594601  0.07
N  N247  1  0.39866710  0.55983279  0.14071786  1  -1.22583  0.082298  -0.345341  -0.212151  0.054997  3.59498  0.07
N  N248  1  0.61175580  0.26720396  0.59026574  1  0.816998  -0.001815  0.094942  0.706803  -0.002116  4.412695  -0.003
N  N249  1  0.61175708  0.23279147  0.90973702  1  0.816992  -0.001815  0.094946  0.706855  -0.002117  4.41244  -0.003
N  N250  1  0.88824494  0.73279757  0.09026566  1  0.817066  -0.001816  0.094987  0.706778  -0.002117  4.412759  -0.003
N  N251  1  0.88824534  0.76720787  0.40973925  1  0.817078  -0.001815  0.09496  0.706951  -0.002116  4.412554  -0.003
N  N252  1  0.38823769  0.73279501  0.40973545  1  0.816978  -0.001815  0.095059  0.707117  -0.002116  4.412275  -0.003
N  N253  1  0.38824241  0.76720071  0.09026272  1  0.817009  -0.001816  0.09493  0.706967  -0.002117  4.412276  -0.003
N  N254  1  0.11176320  0.26719893  0.90972973  1  0.817022  -0.001816  0.095114  0.707059  -0.002118  4.412112  -0.003
N  N255  1  0.11175614  0.23279418  0.59026338  1  0.817056  -0.001815  0.094792  0.706512  -0.002116  4.412683  -0.003
O  O256  1  0.62954852  0.19895243  0.55763575  1  -0.573166  0.104373  -0.218575  -0.483599  0.068179  2.107439  0.096
O  O257  1  0.62954962  0.30104291  0.94236804  1  -0.572938  0.104375  -0.218548  -0.483581  0.068182  2.107331  0.096
O  O258  1  0.87045330  0.80104865  0.05763299  1  -0.573228  0.104377  -0.218599  -0.483625  0.068181  2.107443  0.096
O  O259  1  0.87045103  0.69895504  0.44236751  1  -0.572963  0.104369  -0.218568  -0.483587  0.068177  2.107433  0.096
O  O260  1  0.37044763  0.80104777  0.44236591  1  -0.573094  0.104375  -0.218618  -0.483706  0.068181  2.107448  0.096
O  O261  1  0.37044919  0.69895051  0.05763074  1  -0.573245  0.104372  -0.218583  -0.483666  0.068179  2.107458  0.096
O  O262  1  0.12955017  0.19895032  0.94236723  1  -0.573242  0.104377  -0.218611  -0.483701  0.068182  2.107367  0.096
O  O263  1  0.12955044  0.30104455  0.55763174  1  -0.573102  0.10437  -0.218566  -0.483535  0.068177  2.107419  0.096
O  O264  1  0.60533567  0.02338474  0.49681008  1  -1.192389  0.001912  -0.327243  -0.584781  0.000383  2.314412  0.003
O  O265  1  0.60533580  0.47661320  0.00319237  1  -1.192497  0.001912  -0.327314  -0.584823  0.000382  2.314434  0.003
O  O266  1  0.89466206  0.97661356  0.99680813  1  -1.192363  0.001912  -0.32727  -0.584858  0.000382  2.314427  0.003
O  O267  1  0.89466829  0.52338075  0.50319372  1  -1.192296  0.001911  -0.327318  -0.584858  0.000381  2.314487  0.003
O  O268  1  0.39466847  0.97661608  0.50319496  1  -1.192328  0.001914  -0.327372  -0.58494  0.000383  2.314284  0.003
O  O269  1  0.39466168  0.52338331  0.99680785  1  -1.192463  0.001912  -0.32727  -0.584837  0.000382  2.314377  0.003
O  O270  1  0.10533675  0.02338295  0.00319305  1  -1.192518  0.001911  -0.327304  -0.584849  0.000382  2.314396  0.003
O  O271  1  0.10533918  0.47661637  0.49680602  1  -1.192425  0.001913  -0.327271  -0.584733  0.000383  2.31447  0.003
O  O272  1  0.54393747  0.26869689  0.62527544  1  -0.507123  -0.001445  -0.190768  -0.446603  -0.002078  1.892884  -0.001
O  O273  1  0.54394050  0.23130199  0.87472561  1  -0.506964  -0.001445  -0.190855  -0.446676  -0.002079  1.892805  -0.001
O  O274  1  0.95606219  0.73130447  0.12527611  1  -0.507125  -0.001445  -0.190804  -0.446616  -0.002078  1.892977  -0.001
O  O275  1  0.95606499  0.76869938  0.37473100  1  -0.506993  -0.001446  -0.190806  -0.446704  -0.002079  1.892807  -0.001
O  O276  1  0.45605602  0.73130270  0.37472623  1  -0.506815  -0.001445  -0.190851  -0.446775  -0.002079  1.892747  -0.001
O  O277  1  0.45605898  0.76869020  0.12527413  1  -0.506934  -0.001445  -0.190857  -0.446713  -0.002079  1.892641  -0.001
O  O278  1  0.04394528  0.26869018  0.87471929  1  -0.507092  -0.001445  -0.190934  -0.446771  -0.002078  1.892695  -0.001
O  O279  1  0.04393649  0.23130576  0.62527212  1  -0.507037  -0.001445  -0.190754  -0.446561  -0.002078  1.892841  -0.001
O  O280  1  0.56699039  0.95974376  0.40307476  1  -1.115744  0.110492  -0.32705  -0.556897  0.07054  2.373026  0.1
O  O281  1  0.56699321  0.54025966  0.09692698  1  -1.115814  0.110488  -0.326991  -0.556855  0.070537  2.373111  0.1
O  O282  1  0.93300532  0.04025747  0.90307387  1  -1.115678  0.110487  -0.327114  -0.556984  0.070537  2.372875  0.1
O  O283  1  0.93300624  0.45974184  0.59692868  1  -1.115873  0.110494  -0.327019  -0.556946  0.070542  2.373081  0.1
O  O284  1  0.43300709  0.04025830  0.59693028  1  -1.115802  0.110485  -0.327023  -0.556951  0.070536  2.373334  0.1
O  O285  1  0.43300627  0.45974239  0.90307324  1  -1.115778  0.110488  -0.327059  -0.556901  0.070538  2.372901  0.1
O  O286  1  0.06699749  0.95973965  0.09692732  1  -1.115562  0.11049  -0.327033  -0.556948  0.070538  2.372992  0.1
O  O287  1  0.06699724  0.54026515  0.40307251  1  -1.115365  0.110501  -0.326976  -0.556865  0.070546  2.373041  0.1
O  O288  1  0.66482920  0.32577665  0.58457451  1  -0.492329  0.022695  -0.178043  -0.404477  0.014498  1.876387  0.019
O  O289  1  0.66482954  0.17421728  0.91542894  1  -0.49255  0.022693  -0.177972  -0.404429  0.014496  1.876235  0.019
O  O290  1  0.83517349  0.67422307  0.08457489  1  -0.492319  0.022692  -0.178037  -0.404416  0.014496  1.876354  0.019
O  O291  1  0.83517225  0.82578080  0.41543175  1  -0.492538  0.022689  -0.178019  -0.404481  0.014494  1.876393  0.019
O  O292  1  0.33516429  0.67422294  0.41542716  1  -0.492528  0.022691  -0.178039  -0.404523  0.014496  1.876278  0.019
O  O293  1  0.33517127  0.82577614  0.08457225  1  -0.492364  0.02269  -0.177934  -0.404436  0.014495  1.876281  0.019
O  O294  1  0.16483731  0.32577097  0.91541762  1  -0.492313  0.022689  -0.178011  -0.40446  0.014494  1.876154  0.019
O  O295  1  0.16482790  0.17421940  0.58457474  1  -0.492469  0.02269  -0.177906  -0.404249  0.014494  1.876313  0.019
