# generated using pymatgen
data_CdH12C13N2O5
_symmetry_space_group_name_H-M   'P 1'
_cell_length_a   8.90996975
_cell_length_b   9.25589067
_cell_length_c   8.28368818
_cell_angle_alpha   68.82154592
_cell_angle_beta   78.81947045
_cell_angle_gamma   77.72553690
_symmetry_Int_Tables_number   1
_chemical_formula_structural   CdH12C13N2O5
_chemical_formula_sum   'Cd2 H24 C26 N4 O10'
_cell_volume   617.28945491
_cell_formula_units_Z   2
loop_
 _symmetry_equiv_pos_site_id
 _symmetry_equiv_pos_as_xyz
  1  'x, y, z'
loop_
 _atom_site_type_symbol
 _atom_site_label
 _atom_site_symmetry_multiplicity
 _atom_site_fract_x
 _atom_site_fract_y
 _atom_site_fract_z
 _atom_site_occupancy
 _atom_site_pbe_bader_spin_density
 _atom_site_pbe_cm5_charge
 _atom_site_pbe_ddec_charge
 _atom_site_pbe_ddec_spin_density
 _atom_site_pbe_ddec_sum_bond_order
 _atom_site_pbe_magmom
Cd  Cd0  1  0.10401873  0.58097268  0.27801156  1  0  0.792203  0.964308  0  2.079254  0
Cd  Cd1  1  0.89598292  0.41904168  0.72198160  1  0  0.792216  0.964355  0  2.079142  0
H  H2  1  0.12656041  0.19662049  0.51446487  1  0  0.301273  0.368316  0  0.987541  0
H  H3  1  0.87346339  0.80337239  0.48551902  1  0  0.301291  0.368295  0  0.987607  0
H  H4  1  0.85400638  0.81195665  0.99434516  1  0  0.320689  0.305792  0  0.95214  0
H  H5  1  0.14599568  0.18804191  0.00566138  1  0  0.320664  0.30572  0  0.952269  0
H  H6  1  0.37762666  0.96484647  0.36839722  1  0  0.101007  0.105471  0  1.020125  0
H  H7  1  0.62237364  0.03515554  0.63159651  1  0  0.101008  0.105455  0  1.020081  0
H  H8  1  0.59510757  0.79069519  0.25779883  1  0  0.102791  0.113489  0  1.049676  0
H  H9  1  0.40489595  0.20929980  0.74220850  1  0  0.102798  0.113476  0  1.049723  0
H  H10  1  0.55934708  0.37897437  0.01046728  1  0  0.107659  0.126683  0  1.049777  0
H  H11  1  0.44065158  0.62103536  0.98953046  1  0  0.107597  0.126514  0  1.049866  0
H  H12  1  0.11770283  0.92646994  0.54382299  1  0  0.098465  0.148636  0  1.009265  0
H  H13  1  0.88229550  0.07351387  0.45617453  1  0  0.098408  0.148528  0  1.009451  0
H  H14  1  0.04187231  0.80443908  0.75152512  1  0  0.101966  0.163469  0  0.990319  0
H  H15  1  0.95812163  0.19554912  0.24849264  1  0  0.101942  0.163461  0  0.99034  0
H  H16  1  0.21937295  0.87903780  0.72394950  1  0  0.092737  0.135452  0  1.041689  0
H  H17  1  0.78063105  0.12095232  0.27606168  1  0  0.092673  0.135431  0  1.041778  0
H  H18  1  0.67992792  0.37912953  0.24823609  1  0  0.104748  0.124591  0  0.999449  0
H  H19  1  0.32007384  0.62087072  0.75176392  1  0  0.104734  0.12457  0  0.999431  0
H  H20  1  0.58667673  0.57181335  0.19818397  1  0  0.099455  0.116862  0  1.019342  0
H  H21  1  0.41332505  0.42818594  0.80181393  1  0  0.099447  0.116846  0  1.019344  0
H  H22  1  0.47261843  0.35555276  0.46775515  1  0  0.087479  0.084251  0  1.00664  0
H  H23  1  0.52738352  0.64444516  0.53224556  1  0  0.087473  0.084197  0  1.006665  0
H  H24  1  0.62276933  0.35888344  0.57723452  1  0  0.085836  0.079359  0  1.010295  0
H  H25  1  0.37723271  0.64111427  0.42276865  1  0  0.085846  0.079377  0  1.010364  0
C  C26  1  0.31335802  0.27805087  0.25301977  1  0  0.20903  0.581634  0  4.205392  0
C  C27  1  0.68663673  0.72196483  0.74697820  1  0  0.209023  0.581748  0  4.20517  0
C  C28  1  0.45325149  0.18020415  0.19371085  1  0  -0.033307  -0.061988  0  4.02327  0
C  C29  1  0.54675060  0.81980268  0.80627731  1  0  -0.033357  -0.062245  0  4.023754  0
C  C30  1  0.46634287  0.01514720  0.26454613  1  0  -0.09302  -0.094497  0  3.996902  0
C  C31  1  0.53365566  0.98484904  0.73545106  1  0  -0.093034  -0.09432  0  3.996873  0
C  C32  1  0.58696521  0.91731319  0.20358391  1  0  -0.101127  -0.180656  0  3.990108  0
C  C33  1  0.41302770  0.08268677  0.79642916  1  0  -0.101201  -0.180864  0  3.99015  0
C  C34  1  0.69403857  0.98911072  0.06618986  1  0  0.109374  0.172855  0  4.008795  0
C  C35  1  0.30595848  0.01089283  0.93381627  1  0  0.109376  0.172984  0  4.009123  0
C  C36  1  0.68631856  0.15542020  0.99845315  1  0  0.090955  0.152061  0  4.096494  0
C  C37  1  0.31368300  0.84458238  0.00154617  1  0  0.090926  0.152032  0  4.096918  0
C  C38  1  0.56667036  0.25207810  0.06372133  1  0  -0.096447  -0.200469  0  3.960705  0
C  C39  1  0.43331911  0.74793217  0.93627958  1  0  -0.096505  -0.200409  0  3.960826  0
C  C40  1  0.88661199  0.05403833  0.84914881  1  0  0.186751  0.189487  0  4.109778  0
C  C41  1  0.11337236  0.94595783  0.15087836  1  0  0.186747  0.189755  0  4.11011  0
C  C42  1  0.01578606  0.04784083  0.72322044  1  0  0.090778  0.270376  0  3.953813  0
C  C43  1  0.98425001  0.95215775  0.27676366  1  0  0.090512  0.26994  0  3.954467  0
C  C44  1  0.10168142  0.90614820  0.68551195  1  0  -0.244514  -0.463648  0  3.950117  0
C  C45  1  0.89830547  0.09383898  0.31449808  1  0  -0.244598  -0.463722  0  3.950301  0
C  C46  1  0.80637618  0.52473930  0.28785752  1  0  0.207917  0.641062  0  4.108058  0
C  C47  1  0.19362461  0.47525965  0.71214556  1  0  0.207949  0.641086  0  4.108021  0
C  C48  1  0.65073682  0.47883174  0.29761022  1  0  -0.163422  -0.294722  0  3.895032  0
C  C49  1  0.34926500  0.52116745  0.70238890  1  0  -0.163395  -0.294665  0  3.894932  0
C  C50  1  0.54950462  0.43101705  0.47467689  1  0  -0.16971  -0.121896  0  3.910448  0
C  C51  1  0.45049851  0.56897983  0.52532145  1  0  -0.16976  -0.121954  0  3.910466  0
N  N52  1  0.80769967  0.19195068  0.86860636  1  0  -0.371532  -0.411024  0  3.448932  0
N  N53  1  0.19230194  0.80804903  0.13138659  1  0  -0.37157  -0.411138  0  3.448874  0
N  N54  1  0.82001270  0.93006197  0.97205614  1  0  -0.368449  -0.283364  0  3.576875  0
N  N55  1  0.17998735  0.06994344  0.02793780  1  0  -0.368583  -0.283676  0  3.576977  0
O  O56  1  0.31461462  0.42590832  0.20746370  1  0  -0.322616  -0.544113  0  2.289099  0
O  O57  1  0.68538911  0.57409537  0.79253356  1  0  -0.322708  -0.54427  0  2.288791  0
O  O58  1  0.19894051  0.21021608  0.34157558  1  0  -0.326564  -0.574377  0  2.297824  0
O  O59  1  0.80105244  0.78980499  0.65841385  1  0  -0.326571  -0.574444  0  2.297789  0
O  O60  1  0.06609962  0.18603556  0.63892209  1  0  -0.33549  -0.46223  0  2.466246  0
O  O61  1  0.93388834  0.81394897  0.36107762  1  0  -0.33562  -0.462362  0  2.466142  0
O  O62  1  0.87512220  0.47892992  0.42478441  1  0  -0.337654  -0.58084  0  2.362996  0
O  O63  1  0.12488011  0.52106344  0.57521644  1  0  -0.33771  -0.580888  0  2.363012  0
O  O64  1  0.87439479  0.59981431  0.14029765  1  0  -0.326647  -0.569585  0  2.162768  0
O  O65  1  0.12560462  0.40018620  0.85970162  1  0  -0.326631  -0.569559  0  2.162814  0
