# generated using pymatgen
data_CuH7C5(N2O)2
_symmetry_space_group_name_H-M   'P 1'
_cell_length_a   6.82104789
_cell_length_b   9.85574192
_cell_length_c   11.81758635
_cell_angle_alpha   89.99987722
_cell_angle_beta   98.45898730
_cell_angle_gamma   90.00038471
_symmetry_Int_Tables_number   1
_chemical_formula_structural   CuH7C5(N2O)2
_chemical_formula_sum   'Cu4 H28 C20 N16 O8'
_cell_volume   785.81227606
_cell_formula_units_Z   4
loop_
 _symmetry_equiv_pos_site_id
 _symmetry_equiv_pos_as_xyz
  1  'x, y, z'
loop_
 _atom_site_type_symbol
 _atom_site_label
 _atom_site_symmetry_multiplicity
 _atom_site_fract_x
 _atom_site_fract_y
 _atom_site_fract_z
 _atom_site_occupancy
 _atom_site_hle17_ddec_charge
 _atom_site_hle17_ddec_spin_density
 _atom_site_hle17_ddec_sum_bond_order
 _atom_site_hle17_magmom
 _atom_site_hse06_10hf_ddec_charge
 _atom_site_hse06_10hf_ddec_spin_density
 _atom_site_hse06_10hf_ddec_sum_bond_order
 _atom_site_hse06_10hf_magmom
 _atom_site_hse06_ddec_charge
 _atom_site_hse06_ddec_spin_density
 _atom_site_hse06_ddec_sum_bond_order
 _atom_site_hse06_magmom
 _atom_site_pbe_cm5_charge
 _atom_site_pbe_ddec_charge
 _atom_site_pbe_ddec_spin_density
 _atom_site_pbe_ddec_sum_bond_order
 _atom_site_pbe_magmom
Cu  Cu0  1  0.18476542  0.99110036  0.38726527  1  0.962287  0.721002  1.911684  0.53  0.942417  0.813096  2.33017  0.649  1.017109  0.885865  2.268497  0.729  0.810632  0.892151  0.74695  2.37838  0.585
Cu  Cu1  1  0.31523638  0.49109909  0.11273405  1  0.962258  0.720998  1.911692  0.53  0.942354  0.813084  2.330163  0.649  1.017098  0.885873  2.268532  0.729  0.810625  0.892109  0.746938  2.378399  0.585
Cu  Cu2  1  0.81523801  0.00890560  0.61273350  1  0.962149  -0.720994  1.91173  -0.53  0.942262  -0.813073  2.330148  -0.649  1.017013  -0.885856  2.268493  -0.729  0.810626  0.892069  -0.746935  2.378343  -0.585
Cu  Cu3  1  0.68476244  0.50889773  0.88727106  1  0.96231  -0.720993  1.911546  -0.53  0.942432  -0.813092  2.329983  -0.649  1.017171  -0.885876  2.268331  -0.729  0.810634  0.892198  -0.746951  2.378205  -0.585
H  H4  1  0.25514010  0.79591404  0.20072016  1  0.369493  -1e-06  0.922938  0.0  0.351683  0.000197  0.986233  0.0  0.36195  0.000118  0.97587  0.0  0.293271  0.344506  0.000246  0.993481  0.0
H  H5  1  0.24485094  0.29591298  0.29928106  1  0.369319  -2e-06  0.923175  0.0  0.351608  0.000197  0.986318  0.0  0.361912  0.000118  0.975894  0.0  0.293236  0.344424  0.000246  0.993584  0.0
H  H6  1  0.74485427  0.20408583  0.79928454  1  0.369234  1e-06  0.923343  0.0  0.351666  -0.000197  0.986265  0.0  0.361889  -0.000118  0.975958  0.0  0.293287  0.344484  -0.000245  0.993522  0.0
H  H7  1  0.75515080  0.70408690  0.70072601  1  0.369295  1e-06  0.923234  0.0  0.351634  -0.000197  0.986309  0.0  0.361919  -0.000118  0.975906  0.0  0.293282  0.344455  -0.000246  0.993563  0.0
H  H8  1  0.64757527  0.33461190  0.52049053  1  0.146199  1.3e-05  0.925689  0.0  0.164798  0.000273  0.983998  0.0  0.165802  0.00023  0.984581  0.0  0.10532  0.164208  0.000289  0.982969  0.0
H  H9  1  0.85241649  0.83460561  0.97950669  1  0.146185  1.6e-05  0.925757  0.0  0.164752  0.000273  0.984102  0.0  0.165756  0.00023  0.984684  0.0  0.105278  0.164157  0.000289  0.983073  0.0
H  H10  1  0.35242223  0.66539406  0.47950769  1  0.146197  -1.6e-05  0.925728  0.0  0.164766  -0.000273  0.984072  0.0  0.165769  -0.00023  0.984656  0.0  0.105277  0.164173  -0.000289  0.98304  0.0
H  H11  1  0.14758101  0.16539122  0.02049153  1  0.146213  -1.6e-05  0.925805  0.0  0.164788  -0.000273  0.984136  0.0  0.16579  -0.00023  0.98472  0.0  0.105305  0.164194  -0.000289  0.983105  0.0
H  H12  1  0.57295542  0.34911514  0.36977393  1  0.138085  -0.00037  0.95375  0.0  0.153673  3.6e-05  1.016281  0.0  0.154643  2.5e-05  1.016797  0.0  0.09943  0.153007  4.8e-05  1.01569  0.0
H  H13  1  0.92705280  0.84911923  0.13022036  1  0.138034  -0.000366  0.953855  0.0  0.153651  3.7e-05  1.016343  0.0  0.154623  2.5e-05  1.016863  0.0  0.099427  0.152981  4.8e-05  1.015751  0.0
H  H14  1  0.42705402  0.65088169  0.63022202  1  0.138022  0.000367  0.953847  0.0  0.153633  -3.7e-05  1.016352  0.0  0.154603  -2.5e-05  1.016865  0.0  0.099418  0.152965  -4.8e-05  1.015763  0.0
H  H15  1  0.07295811  0.15088470  0.86977657  1  0.138055  0.000368  0.953786  0.0  0.153665  -3.7e-05  1.016294  0.0  0.154634  -2.5e-05  1.016814  0.0  0.099425  0.152993  -4.7e-05  1.0157  0.0
H  H16  1  0.79000168  0.25404815  0.42645262  1  0.140234  0.001281  0.972851  0.002  0.154911  0.000698  1.037783  0.001  0.154051  0.00046  1.041116  0.001  0.099688  0.155355  0.000918  1.035609  0.001
H  H17  1  0.71000090  0.75404832  0.07355401  1  0.14025  0.001283  0.972805  0.002  0.154909  0.000698  1.037749  0.001  0.154051  0.00046  1.041077  0.001  0.099703  0.155353  0.000918  1.035578  0.001
H  H18  1  0.21000899  0.74595375  0.57355359  1  0.140252  -0.001285  0.972792  -0.002  0.154928  -0.000698  1.037724  -0.001  0.154066  -0.000459  1.041059  -0.001  0.099711  0.155371  -0.000918  1.035547  -0.001
H  H19  1  0.29000383  0.24595663  0.92645250  1  0.140217  -0.001283  0.97287  -0.002  0.154906  -0.000698  1.037789  -0.001  0.154047  -0.000459  1.041115  -0.001  0.099693  0.155346  -0.000918  1.035611  -0.001
H  H20  1  0.41280691  0.05991810  0.18423237  1  0.069913  -7e-05  0.964576  0.0  0.086797  -9.3e-05  1.031795  0.0  0.087084  -0.000103  1.032422  0.0  0.088868  0.086548  -8e-05  1.031469  0.0
H  H21  1  0.08719106  0.55991909  0.31576063  1  0.069895  -6.4e-05  0.964566  0.0  0.086779  -9.3e-05  1.031794  0.0  0.087068  -0.000103  1.032415  0.0  0.088857  0.086518  -8.1e-05  1.031471  0.0
H  H22  1  0.58719065  0.94007873  0.81576331  1  0.069851  7.3e-05  0.964576  0.0  0.086748  9.3e-05  1.031786  0.0  0.087036  0.000103  1.032412  0.0  0.088846  0.086499  8e-05  1.031453  0.0
H  H23  1  0.91279455  0.44008281  0.68423818  1  0.06992  7.5e-05  0.964578  0.0  0.086788  9.3e-05  1.031812  0.0  0.087082  0.000103  1.03243  0.0  0.088848  0.086522  8e-05  1.031499  0.0
H  H24  1  0.37338131  0.93105195  0.07702589  1  0.06769  6.5e-05  0.961404  0.0  0.084913  0.0  1.028214  0.0  0.085639  -1e-06  1.028094  0.0  0.088768  0.084435  1.6e-05  1.028199  0.0
H  H25  1  0.12661104  0.43105305  0.42297266  1  0.067716  6.6e-05  0.961446  0.0  0.084976  0.0  1.028223  0.0  0.085705  -2e-06  1.028107  0.0  0.08879  0.084495  1.6e-05  1.028221  0.0
H  H26  1  0.62661613  0.06894183  0.92297486  1  0.067699  -6e-05  0.961382  0.0  0.084919  -0.0  1.028202  0.0  0.085644  1e-06  1.028086  0.0  0.088788  0.084435  -1.6e-05  1.028192  0.0
H  H27  1  0.87337137  0.56894682  0.57703515  1  0.067697  -6.1e-05  0.961439  0.0  0.08496  -0.0  1.028204  0.0  0.085684  1e-06  1.028088  0.0  0.088819  0.08448  -1.6e-05  1.028198  0.0
H  H28  1  0.58276993  0.92175417  0.18796401  1  0.057141  3e-06  0.963592  0.0  0.075558  -3.2e-05  1.029445  0.0  0.075246  -3.5e-05  1.030635  0.0  0.082372  0.075714  -1.2e-05  1.028768  0.0
H  H29  1  0.91721663  0.42175389  0.31203236  1  0.057131  4e-06  0.963676  0.0  0.075597  -3.2e-05  1.029489  0.0  0.075285  -3.5e-05  1.030678  0.0  0.082382  0.075747  -1.2e-05  1.028805  0.0
H  H30  1  0.41722006  0.07824266  0.81203774  1  0.05709  2e-06  0.963572  0.0  0.075521  3.2e-05  1.029424  0.0  0.07521  3.5e-05  1.030613  0.0  0.082333  0.075676  1.3e-05  1.028738  0.0
H  H31  1  0.08277060  0.57823888  0.68796068  1  0.057151  0.0  0.96351  0.0  0.075586  3.2e-05  1.02935  0.0  0.075275  3.5e-05  1.030538  0.0  0.082371  0.075742  1.3e-05  1.028665  0.0
C  C32  1  0.51338002  0.15723184  0.43939047  1  0.583898  0.005068  3.758393  0.001  0.555825  0.002646  4.057818  0.001  0.586466  0.002851  4.063768  0.002  0.226693  0.535361  0.002606  4.052781  0.0
C  C33  1  0.98662327  0.65723030  0.06061133  1  0.584002  0.005045  3.758462  0.001  0.555829  0.002644  4.058003  0.001  0.586473  0.002852  4.063953  0.002  0.226648  0.535381  0.002604  4.05292  0.0
C  C34  1  0.48663078  0.84277209  0.56061068  1  0.583897  -0.005055  3.758457  -0.001  0.555903  -0.002644  4.057782  -0.001  0.586537  -0.002847  4.063741  -0.002  0.226683  0.535451  -0.002604  4.052717  0.0
C  C35  1  0.01337709  0.34276957  0.93939139  1  0.583923  -0.00507  3.758291  -0.001  0.555889  -0.002645  4.057678  -0.001  0.58652  -0.002845  4.063632  -0.002  0.226607  0.535422  -0.002604  4.052624  0.0
C  C36  1  0.63894734  0.28131006  0.43832796  1  -0.428172  0.01045  3.656095  0.011  -0.508198  0.005774  3.895712  0.006  -0.514783  0.003741  3.903773  0.004  -0.241126  -0.503034  0.007351  3.88933  0.008
C  C37  1  0.86105566  0.78130894  0.06167190  1  -0.428166  0.01044  3.656222  0.011  -0.508134  0.005773  3.895827  0.006  -0.514726  0.00374  3.903902  0.004  -0.241099  -0.502975  0.00735  3.889437  0.008
C  C38  1  0.36105904  0.71868981  0.56167194  1  -0.428153  -0.01044  3.656166  -0.011  -0.508178  -0.005774  3.895738  -0.006  -0.514769  -0.003742  3.903819  -0.004  -0.241106  -0.503019  -0.007351  3.889347  -0.008
C  C39  1  0.13895063  0.21869194  0.93833137  1  -0.428164  -0.010444  3.6562  -0.011  -0.508197  -0.005774  3.895759  -0.006  -0.514788  -0.003743  3.903844  -0.004  -0.241117  -0.50304  -0.007353  3.889371  -0.008
C  C40  1  0.87353462  0.13350570  0.20641548  1  0.525154  -0.005853  3.970661  -0.002  0.500017  0.000291  4.241907  0.004  0.530821  -0.000993  4.24809  0.003  0.329245  0.478586  0.001296  4.237889  0.006
C  C41  1  0.62646858  0.63349984  0.29358128  1  0.525099  -0.005802  3.97101  -0.002  0.499941  0.000291  4.24225  0.004  0.530759  -0.000988  4.248432  0.003  0.32912  0.478513  0.001297  4.238229  0.006
C  C42  1  0.12646138  0.86650431  0.79358345  1  0.525103  0.005836  3.971053  0.002  0.49989  -0.000289  4.242296  -0.004  0.530738  0.000992  4.248482  -0.003  0.329146  0.478464  -0.001296  4.238275  -0.006
C  C43  1  0.37354239  0.36649293  0.70641311  1  0.525118  0.005848  3.970622  0.002  0.499977  -0.00029  4.241864  -0.004  0.530785  0.000992  4.248049  -0.003  0.329278  0.47854  -0.001296  4.237835  -0.006
C  C44  1  0.62883250  0.26959749  0.10813060  1  0.533769  -0.001958  3.964406  0.001  0.502851  0.002598  4.245812  0.006  0.535476  0.001227  4.250429  0.004  0.330106  0.480422  0.003714  4.242673  0.007
C  C45  1  0.87116452  0.76959557  0.39186618  1  0.533797  -0.001942  3.964508  0.001  0.502864  0.002599  4.245902  0.006  0.535497  0.001229  4.25052  0.004  0.330081  0.480437  0.003715  4.242777  0.007
C  C46  1  0.37114870  0.73040441  0.89186610  1  0.533873  0.001933  3.964304  -0.001  0.502886  -0.002597  4.245716  -0.006  0.535552  -0.001231  4.250338  -0.004  0.33007  0.480469  -0.003715  4.242587  -0.007
C  C47  1  0.12884200  0.23040531  0.60812780  1  0.533789  0.001998  3.964367  -0.001  0.502874  -0.002599  4.245757  -0.006  0.535499  -0.001226  4.250373  -0.004  0.330106  0.480445  -0.003716  4.242625  -0.007
C  C48  1  0.42551906  0.95085463  0.16807986  1  -0.017605  -0.000289  3.686474  0.0  -0.103552  -0.000208  3.95192  0.0  -0.096946  -0.000197  3.955906  0.0  -0.162438  -0.107936  -0.000218  3.948853  0.0
C  C49  1  0.07447053  0.45085368  0.33191756  1  -0.017564  -0.000302  3.686353  0.0  -0.103608  -0.000208  3.951841  0.0  -0.097006  -0.000196  3.955835  0.0  -0.162457  -0.107977  -0.000218  3.948766  0.0
C  C50  1  0.57447991  0.04914423  0.83191934  1  -0.01751  0.000265  3.686334  0.0  -0.10348  0.000209  3.951848  0.0  -0.096874  0.000197  3.955828  0.0  -0.162433  -0.107862  0.000218  3.94876  0.0
C  C51  1  0.92551952  0.54914315  0.66808166  1  -0.017595  0.000267  3.686213  0.0  -0.103594  0.000208  3.951729  0.0  -0.096993  0.000197  3.95571  0.0  -0.162453  -0.107963  0.000218  3.94867  0.0
N  N52  1  0.57241788  0.05082083  0.50249404  1  -0.358305  -0.088224  3.212906  -0.114  -0.352662  -0.058669  3.562687  -0.081  -0.389884  -0.04808  3.588935  -0.07  -0.298505  -0.32729  -0.063209  3.544494  -0.084
N  N53  1  0.92757857  0.55081992  0.99750753  1  -0.358366  -0.088223  3.212889  -0.114  -0.3527  -0.058667  3.562713  -0.081  -0.389913  -0.048081  3.588956  -0.07  -0.298493  -0.327327  -0.063211  3.544496  -0.084
N  N54  1  0.42758261  0.94918107  0.49750361  1  -0.358358  0.088217  3.212927  0.114  -0.352759  0.058664  3.562723  0.081  -0.389956  0.04808  3.588939  0.07  -0.298518  -0.327371  0.063209  3.5445  0.084
N  N55  1  0.07241885  0.44917995  0.00249407  1  -0.358316  0.088233  3.212844  0.114  -0.352695  0.058665  3.562632  0.081  -0.389908  0.048076  3.588872  0.07  -0.298478  -0.327309  0.063211  3.544417  0.084
N  N56  1  0.97165468  0.07815029  0.28274015  1  -0.584398  0.047467  2.966629  0.058  -0.561246  0.038369  3.274347  0.048  -0.588116  0.033756  3.271709  0.044  -0.405729  -0.543587  0.040302  3.277384  0.049
N  N57  1  0.52834803  0.57814212  0.21725583  1  -0.584363  0.047417  2.966858  0.058  -0.561212  0.038371  3.274595  0.048  -0.588095  0.033749  3.27197  0.044  -0.40568  -0.54356  0.040302  3.277645  0.049
N  N58  1  0.02834573  0.92186582  0.71726088  1  -0.584296  -0.047455  2.966976  -0.058  -0.561119  -0.038371  3.274681  -0.048  -0.588004  -0.033756  3.272053  -0.044  -0.405648  -0.543474  -0.040304  3.27772  -0.049
N  N59  1  0.47166442  0.42184862  0.78273871  1  -0.584386  -0.047459  2.96654  -0.058  -0.561226  -0.03837  3.274233  -0.048  -0.588107  -0.033754  3.27161  -0.044  -0.405772  -0.54357  -0.040303  3.277275  -0.049
N  N60  1  0.77386901  0.18527338  0.11562030  1  -0.449  0.002269  3.309296  0.004  -0.388801  0.000666  3.552672  0.002  -0.413555  -0.000226  3.554155  0.001  -0.296096  -0.371784  0.001575  3.551448  0.003
N  N61  1  0.72613179  0.68526876  0.38437275  1  -0.449009  0.00227  3.309552  0.004  -0.388766  0.000666  3.552893  0.002  -0.413541  -0.000221  3.554387  0.001  -0.296027  -0.371763  0.001575  3.551693  0.003
N  N62  1  0.22612559  0.81473157  0.88437511  1  -0.44904  -0.002265  3.309659  -0.004  -0.38871  -0.000666  3.552965  -0.002  -0.413546  0.000225  3.554493  -0.001  -0.296048  -0.371717  -0.001575  3.551755  -0.003
N  N63  1  0.27387774  0.31472705  0.61561981  1  -0.448943  -0.002268  3.309414  -0.004  -0.388732  -0.000666  3.552774  -0.002  -0.413485  0.000225  3.554253  -0.001  -0.296076  -0.371718  -0.001575  3.551556  -0.003
N  N64  1  0.49205401  0.34309547  0.08749804  1  -0.61921  0.04294  3.013679  0.051  -0.603504  0.036639  3.354453  0.045  -0.630205  0.032043  3.345473  0.041  -0.412897  -0.585679  0.038468  3.361422  0.046
N  N65  1  0.00794040  0.84309786  0.41250426  1  -0.619215  0.042922  3.013621  0.051  -0.603518  0.036634  3.3544  0.045  -0.630209  0.032036  3.345402  0.041  -0.412866  -0.58569  0.038463  3.361372  0.046
N  N66  1  0.50792554  0.65689629  0.91250528  1  -0.619344  -0.042913  3.013236  -0.051  -0.60362  -0.036639  3.353991  -0.045  -0.630342  -0.032037  3.345045  -0.041  -0.41289  -0.585801  -0.038465  3.360958  -0.046
N  N67  1  0.99205861  0.15690708  0.58749325  1  -0.619278  -0.04298  3.013554  -0.051  -0.603571  -0.036637  3.354296  -0.045  -0.630286  -0.032044  3.345343  -0.041  -0.412924  -0.585761  -0.038464  3.361287  -0.046
O  O68  1  0.34030280  0.15787073  0.37536433  1  -0.572541  0.098831  2.086786  0.135  -0.541002  0.064964  2.354939  0.097  -0.586693  0.050678  2.352615  0.079  -0.306039  -0.511125  0.072489  2.357109  0.105
O  O69  1  0.15970171  0.65787459  0.12464094  1  -0.572624  0.098823  2.086692  0.135  -0.541016  0.064965  2.35488  0.097  -0.586724  0.050677  2.352583  0.079  -0.306001  -0.511147  0.072493  2.357035  0.105
O  O70  1  0.65970796  0.84212508  0.62463850  1  -0.572462  -0.098825  2.08676  -0.135  -0.54101  -0.064968  2.354924  -0.097  -0.586708  -0.050684  2.352622  -0.079  -0.306031  -0.51115  -0.072494  2.357096  -0.105
O  O71  1  0.84030142  0.34212427  0.87536965  1  -0.572496  -0.09882  2.086608  -0.135  -0.541054  -0.064965  2.354774  -0.097  -0.586717  -0.05068  2.35246  -0.079  -0.305987  -0.51117  -0.072491  2.356923  -0.105
O  O72  1  0.30837513  0.88027205  0.23976125  1  -0.564537  0.000158  2.198088  0.001  -0.514392  -0.000263  2.448979  0.001  -0.534038  -0.000662  2.436708  0.0  -0.431544  -0.499772  0.000244  2.457179  0.001
O  O73  1  0.19161544  0.38026474  0.26023047  1  -0.564439  0.000159  2.198122  0.001  -0.514349  -0.000263  2.448943  0.001  -0.534042  -0.000662  2.43663  0.0  -0.431504  -0.499734  0.000244  2.457161  0.001
O  O74  1  0.69161641  0.11973087  0.76023811  1  -0.564332  -0.000154  2.198381  -0.001  -0.514352  0.000263  2.449061  -0.001  -0.533974  0.000662  2.436886  0.0  -0.43154  -0.499747  -0.000244  2.457271  -0.001
O  O75  1  0.80839678  0.61973614  0.73977335  1  -0.564417  -0.000155  2.198139  -0.001  -0.514363  0.000262  2.448905  -0.001  -0.534038  0.000662  2.436643  0.0  -0.431575  -0.499749  -0.000244  2.457107  -0.001
