# generated using pymatgen
data_ZnH19C19N2O5
_symmetry_space_group_name_H-M   'P 1'
_cell_length_a   9.23681692
_cell_length_b   10.34045761
_cell_length_c   11.51800656
_cell_angle_alpha   90.78308054
_cell_angle_beta   113.65659059
_cell_angle_gamma   101.02630096
_symmetry_Int_Tables_number   1
_chemical_formula_structural   ZnH19C19N2O5
_chemical_formula_sum   'Zn2 H38 C38 N4 O10'
_cell_volume   984.05608456
_cell_formula_units_Z   2
loop_
 _symmetry_equiv_pos_site_id
 _symmetry_equiv_pos_as_xyz
  1  'x, y, z'
loop_
 _atom_site_type_symbol
 _atom_site_label
 _atom_site_symmetry_multiplicity
 _atom_site_fract_x
 _atom_site_fract_y
 _atom_site_fract_z
 _atom_site_occupancy
 _atom_site_hle17_bader_spin_density
 _atom_site_hle17_ddec_charge
 _atom_site_hle17_ddec_spin_density
 _atom_site_hle17_ddec_sum_bond_order
 _atom_site_hle17_magmom
 _atom_site_hse06_10hf_bader_spin_density
 _atom_site_hse06_10hf_ddec_charge
 _atom_site_hse06_10hf_ddec_spin_density
 _atom_site_hse06_10hf_ddec_sum_bond_order
 _atom_site_hse06_10hf_magmom
 _atom_site_hse06_bader_spin_density
 _atom_site_hse06_ddec_charge
 _atom_site_hse06_ddec_spin_density
 _atom_site_hse06_ddec_sum_bond_order
 _atom_site_hse06_magmom
 _atom_site_pbe_bader_spin_density
 _atom_site_pbe_cm5_charge
 _atom_site_pbe_ddec_charge
 _atom_site_pbe_ddec_spin_density
 _atom_site_pbe_ddec_sum_bond_order
 _atom_site_pbe_magmom
Zn  Zn0  1  0.30222351  0.46028071  0.39439802  1  0  1.061002  0  1.841394  0  0  0.878647  0  2.328326  0  0  0.926871  0  2.266712  0  0  0.703311  0.844362  0  2.37095  0
Zn  Zn1  1  0.69777367  0.53972067  0.60559907  1  0  1.061043  0  1.841309  0  0  0.878698  0  2.328216  0  0  0.926894  0  2.266653  0  0  0.703324  0.844417  0  2.370837  0
H  H2  1  0.51156232  0.21128852  0.21442005  1  0  0.302689  0  0.945991  0  0  0.279761  0  1.017868  0  0  0.288228  0  1.012003  0  0  0.299665  0.274303  0  1.021338  0
H  H3  1  0.48843293  0.78870990  0.78557814  1  0  0.302686  0  0.945933  0  0  0.279762  0  1.017801  0  0  0.288227  0  1.011936  0  0  0.299649  0.274301  0  1.021273  0
H  H4  1  0.98861864  0.52608534  0.37767828  1  0  0.080986  0  0.924778  0  0  0.09358  0  0.980249  0  0  0.095745  0  0.978514  0  0  0.121951  0.091869  0  0.98165  0
H  H5  1  0.01137673  0.47392598  0.62232363  1  0  0.080937  0  0.924539  0  0  0.093504  0  0.980053  0  0  0.095666  0  0.978318  0  0  0.12193  0.091792  0  0.981456  0
H  H6  1  0.70432783  0.40336218  0.30680262  1  0  0.123675  0  0.954918  0  0  0.134613  0  1.011091  0  0  0.137405  0  1.01127  0  0  0.113214  0.132488  0  1.011697  0
H  H7  1  0.29567086  0.59664018  0.69319669  1  0  0.123669  0  0.95491  0  0  0.134605  0  1.011096  0  0  0.137399  0  1.011271  0  0  0.11322  0.13249  0  1.01169  0
H  H8  1  0.84623917  0.06040714  0.20124495  1  0  0.134902  0  0.964168  0  0  0.14111  0  1.023  0  0  0.145908  0  1.020281  0  0  0.113858  0.137793  0  1.024831  0
H  H9  1  0.15376197  0.93959917  0.79876037  1  0  0.134896  0  0.964093  0  0  0.141086  0  1.02296  0  0  0.145885  0  1.020239  0  0  0.113838  0.137766  0  1.024797  0
H  H10  1  0.12776304  0.19795170  0.27930089  1  0  0.085228  0  0.94181  0  0  0.092049  0  1.009184  0  0  0.094736  0  1.006158  0  0  0.120105  0.090187  0  1.011154  0
H  H11  1  0.87224275  0.80205457  0.72070411  1  0  0.085178  0  0.941875  0  0  0.092008  0  1.009246  0  0  0.094693  0  1.00622  0  0  0.120065  0.090143  0  1.011219  0
H  H12  1  0.32517086  0.04004361  0.21133150  1  0  0.097375  0  0.941148  0  0  0.113018  0  1.003924  0  0  0.114381  0  1.004443  0  0  0.098128  0.11199  0  1.003623  0
H  H13  1  0.67482958  0.95995178  0.78867169  1  0  0.097379  0  0.941214  0  0  0.113014  0  1.00395  0  0  0.114374  0  1.004467  0  0  0.098141  0.111985  0  1.003643  0
H  H14  1  0.27981700  0.03062877  0.04790104  1  0  0.105551  0  0.916688  0  0  0.123453  0  0.974924  0  0  0.125585  0  0.973558  0  0  0.104802  0.122171  0  0.975328  0
H  H15  1  0.72019272  0.96937052  0.95210330  1  0  0.105602  0  0.916704  0  0  0.123448  0  0.974952  0  0  0.125573  0  0.973587  0  0  0.104812  0.122164  0  0.975356  0
H  H16  1  0.34923451  0.79802462  0.21096542  1  0  0.066385  0  0.93541  0  0  0.085091  0  0.995652  0  0  0.085193  0  0.996979  0  0  0.088044  0.084949  0  0.994497  0
H  H17  1  0.65076793  0.20196976  0.78903576  1  0  0.066344  0  0.935458  0  0  0.085092  0  0.995665  0  0  0.085196  0  0.99699  0  0  0.088031  0.08495  0  0.994513  0
H  H18  1  0.29104706  0.79112995  0.04569640  1  0  0.065372  0  0.946674  0  0  0.081882  0  1.010357  0  0  0.082515  0  1.011441  0  0  0.087567  0.08147  0  1.009474  0
H  H19  1  0.70895266  0.20886743  0.95430400  1  0  0.065367  0  0.94668  0  0  0.081882  0  1.010375  0  0  0.082514  0  1.011459  0  0  0.087559  0.08147  0  1.009492  0
H  H20  1  0.08739053  0.86607660  0.18130436  1  0  0.048493  0  0.93596  0  0  0.068684  0  0.993925  0  0  0.069215  0  0.994505  0  0  0.079749  0.068335  0  0.99338  0
H  H21  1  0.91261230  0.13392373  0.81869530  1  0  0.048502  0  0.935898  0  0  0.06867  0  0.993892  0  0  0.069199  0  0.994474  0  0  0.079741  0.068322  0  0.993347  0
H  H22  1  0.02430717  0.84287098  0.01470404  1  0  0.05393  0  0.932719  0  0  0.074596  0  0.991138  0  0  0.075161  0  0.99182  0  0  0.081765  0.074194  0  0.990444  0
H  H23  1  0.97569730  0.15712637  0.98529867  1  0  0.053882  0  0.932674  0  0  0.074535  0  0.99112  0  0  0.0751  0  0.991802  0  0  0.081747  0.074136  0  0.990422  0
H  H24  1  0.10886729  0.62948941  0.19871736  1  0  0.052187  0  0.952606  0  0  0.070159  0  1.019899  0  0  0.070746  0  1.020113  0  0  0.079571  0.069654  0  1.019844  0
H  H25  1  0.89113895  0.37050990  0.80128766  1  0  0.052231  0  0.952637  0  0  0.070227  0  1.019895  0  0  0.070819  0  1.020108  0  0  0.079618  0.069722  0  1.019841  0
H  H26  1  0.91041155  0.64669215  0.10189874  1  0  0.051303  0  0.952905  0  0  0.068992  0  1.016388  0  0  0.069081  0  1.018009  0  0  0.079297  0.069236  0  1.014468  0
H  H27  1  0.08959149  0.35330819  0.89810706  1  0  0.051313  0  0.95289  0  0  0.06902  0  1.016358  0  0  0.069123  0  1.017968  0  0  0.079305  0.069263  0  1.014442  0
H  H28  1  0.15594547  0.58599189  0.00287135  1  0  0.056647  0  0.952869  0  0  0.076089  0  1.015486  0  0  0.076142  0  1.017438  0  0  0.082321  0.075961  0  1.013839  0
H  H29  1  0.84405452  0.41400649  0.99712915  1  0  0.056671  0  0.95292  0  0  0.07612  0  1.015551  0  0  0.076174  0  1.017501  0  0  0.082331  0.07599  0  1.0139  0
H  H30  1  0.95869259  0.60539932  0.90702389  1  0  0.049135  0  0.966544  0  0  0.06795  0  1.031545  0  0  0.067543  0  1.033946  0  0  0.078581  0.068022  0  1.030131  0
H  H31  1  0.04130779  0.39460005  0.09298022  1  0  0.049116  0  0.966584  0  0  0.067937  0  1.031588  0  0  0.067527  0  1.033994  0  0  0.078571  0.068006  0  1.030172  0
H  H32  1  0.52511996  0.66709486  0.16837547  1  0  0.111793  0  0.947676  0  0  0.119271  0  1.010958  0  0  0.123232  0  1.008134  0  0  0.10797  0.116319  0  1.013081  0
H  H33  1  0.47488181  0.33290647  0.83161954  1  0  0.111801  0  0.947717  0  0  0.119278  0  1.010995  0  0  0.123237  0  1.008174  0  0  0.107953  0.116329  0  1.013118  0
H  H34  1  0.37832372  0.26315803  0.99786614  1  0  0.102139  0  0.954674  0  0  0.10996  0  1.019661  0  0  0.113507  0  1.017281  0  0  0.105506  0.107607  0  1.020761  0
H  H35  1  0.62167993  0.73684130  0.00213115  1  0  0.102077  0  0.95474  0  0  0.109917  0  1.019714  0  0  0.113463  0  1.017336  0  0  0.105489  0.107578  0  1.020795  0
H  H36  1  0.73597170  0.90640160  0.51820638  1  0  0.104536  0  0.945681  0  0  0.114472  0  1.003707  0  0  0.11782  0  1.001952  0  0  0.107601  0.111593  0  1.005837  0
H  H37  1  0.26402717  0.09359282  0.48179285  1  0  0.104518  0  0.945695  0  0  0.114456  0  1.003723  0  0  0.117803  0  1.001971  0  0  0.107594  0.111598  0  1.005824  0
H  H38  1  0.24175564  0.84722216  0.47062621  1  0  0.103115  0  0.936345  0  0  0.115103  0  0.991186  0  0  0.118466  0  0.989669  0  0  0.107899  0.112224  0  0.99318  0
H  H39  1  0.75824876  0.15277519  0.52937474  1  0  0.103089  0  0.936332  0  0  0.115104  0  0.991139  0  0  0.118469  0  0.98962  0  0  0.107893  0.112224  0  0.993136  0
C  C40  1  0.95237342  0.42245308  0.33903025  1  0  0.136354  0  3.750006  0  0  0.104465  0  4.002466  0  0  0.113273  0  4.021184  0  0  0.045778  0.098925  0  3.989577  0
C  C41  1  0.04761871  0.57755529  0.66096890  1  0  0.136326  0  3.750027  0  0  0.104478  0  4.002497  0  0  0.113289  0  4.021211  0  0  0.045754  0.098937  0  3.989613  0
C  C42  1  0.79404151  0.35419370  0.29813459  1  0  -0.210066  0  3.687027  0  0  -0.229202  0  3.939511  0  0  -0.240041  0  3.960521  0  0  -0.086299  -0.222394  0  3.925848  0
C  C43  1  0.20594878  0.64580872  0.70185782  1  0  -0.210001  0  3.687038  0  0  -0.229156  0  3.939512  0  0  -0.239996  0  3.960524  0  0  -0.086332  -0.222353  0  3.925842  0
C  C44  1  0.75024697  0.22022554  0.24754895  1  0  0.333423  0  3.764788  0  0  0.320874  0  4.011886  0  0  0.336834  0  4.028938  0  0  0.132517  0.310692  0  3.999961  0
C  C45  1  0.24975326  0.77977779  0.75245344  1  0  0.333325  0  3.764804  0  0  0.320822  0  4.011813  0  0  0.336783  0  4.028863  0  0  0.132493  0.310639  0  3.99989  0
C  C46  1  0.87370850  0.16257182  0.24057564  1  0  -0.221637  0  3.682206  0  0  -0.236205  0  3.927608  0  0  -0.247579  0  3.946892  0  0  -0.08883  -0.229087  0  3.91464  0
C  C47  1  0.12628950  0.83743650  0.75942442  1  0  -0.221497  0  3.682121  0  0  -0.236089  0  3.92753  0  0  -0.247464  0  3.946812  0  0  -0.088774  -0.228969  0  3.91456  0
C  C48  1  0.02953735  0.23834101  0.28460894  1  0  0.142132  0  3.728834  0  0  0.108855  0  3.983539  0  0  0.118468  0  4.001192  0  0  0.046222  0.102696  0  3.971613  0
C  C49  1  0.97046164  0.76166631  0.71539401  1  0  0.142072  0  3.728773  0  0  0.108802  0  3.983497  0  0  0.118419  0  4.001147  0  0  0.046219  0.102643  0  3.971573  0
C  C50  1  0.52296792  0.02283381  0.16413924  1  0  0.605583  0  3.735705  0  0  0.568076  0  4.022624  0  0  0.595995  0  4.02301  0  0  0.251748  0.549239  0  4.022069  0
C  C51  1  0.47704147  0.97716351  0.83587104  1  0  0.605688  0  3.735287  0  0  0.568051  0  4.022309  0  0  0.595982  0  4.022677  0  0  0.251734  0.549212  0  4.021756  0
C  C52  1  0.34450651  0.98780528  0.13658327  1  0  -0.2586  0  3.705157  0  0  -0.304617  0  3.961414  0  0  -0.309274  0  3.970879  0  0  -0.161353  -0.301415  0  3.954605  0
C  C53  1  0.65550297  0.01219302  0.86342185  1  0  -0.258737  0  3.705414  0  0  -0.304605  0  3.961578  0  0  -0.309247  0  3.971018  0  0  -0.161367  -0.301402  0  3.954775  0
C  C54  1  0.27687452  0.83988275  0.12461426  1  0  -0.089455  0  3.710743  0  0  -0.128866  0  3.972081  0  0  -0.129337  0  3.986867  0  0  -0.169862  -0.128376  0  3.96182  0
C  C55  1  0.72312559  0.16011165  0.87538708  1  0  -0.089368  0  3.710884  0  0  -0.128858  0  3.972241  0  0  -0.129331  0  3.987023  0  0  -0.169846  -0.128369  0  3.961981  0
C  C56  1  0.09963542  0.80877611  0.10540306  1  0  -0.100322  0  3.700653  0  0  -0.138024  0  3.960343  0  0  -0.139071  0  3.975404  0  0  -0.166593  -0.137178  0  3.950061  0
C  C57  1  0.90036723  0.19122323  0.89459913  1  0  -0.100245  0  3.700532  0  0  -0.137919  0  3.960252  0  0  -0.138966  0  3.975323  0  0  -0.166568  -0.137075  0  3.949972  0
C  C58  1  0.03424240  0.66149306  0.10679482  1  0  -0.10337  0  3.697639  0  0  -0.140425  0  3.955835  0  0  -0.141167  0  3.970687  0  0  -0.170998  -0.140047  0  3.945925  0
C  C59  1  0.96576028  0.33850629  0.89320824  1  0  -0.103446  0  3.697691  0  0  -0.140529  0  3.955887  0  0  -0.141286  0  3.970745  0  0  -0.17104  -0.14015  0  3.945978  0
C  C60  1  0.03279221  0.57317137  0.99871769  1  0  -0.105781  0  3.692546  0  0  -0.14377  0  3.950412  0  0  -0.144888  0  3.965967  0  0  -0.175519  -0.143117  0  3.940386  0
C  C61  1  0.96720789  0.42682701  0.00128632  1  0  -0.105858  0  3.692638  0  0  -0.143873  0  3.950512  0  0  -0.144995  0  3.966076  0  0  -0.175552  -0.143207  0  3.940476  0
C  C62  1  0.38956965  0.41836887  0.19506054  1  0  0.640676  0  3.906987  0  0  0.590709  0  4.198023  0  0  0.625073  0  4.190335  0  0  0.207274  0.567398  0  4.203445  0
C  C63  1  0.61042300  0.58162956  0.80492992  1  0  0.640682  0  3.906993  0  0  0.590718  0  4.197997  0  0  0.625077  0  4.19031  0  0  0.20734  0.567405  0  4.203419  0
C  C64  1  0.44600750  0.46070335  0.09392674  1  0  -0.070236  0  3.769258  0  0  -0.046803  0  4.000918  0  0  -0.053768  0  4.023595  0  0  -0.017429  -0.042163  0  3.985661  0
C  C65  1  0.55398400  0.53929509  0.90606424  1  0  -0.070144  0  3.769276  0  0  -0.046589  0  4.000777  0  0  -0.053552  0  4.023457  0  0  -0.017398  -0.041951  0  3.985524  0
C  C66  1  0.51434859  0.59430878  0.09459375  1  0  -0.0666  0  3.718023  0  0  -0.090103  0  3.967703  0  0  -0.090549  0  3.986522  0  0  -0.080918  -0.090227  0  3.954426  0
C  C67  1  0.48564856  0.40568862  0.90539980  1  0  -0.066593  0  3.718002  0  0  -0.09015  0  3.967668  0  0  -0.090597  0  3.986488  0  0  -0.080885  -0.090272  0  3.954389  0
C  C68  1  0.43206470  0.36677023  0.99894163  1  0  -0.076127  0  3.742266  0  0  -0.099891  0  3.994019  0  0  -0.100527  0  4.013695  0  0  -0.083906  -0.099043  0  3.979366  0
C  C69  1  0.56792945  0.63322918  0.00105104  1  0  -0.076074  0  3.742439  0  0  -0.099901  0  3.994175  0  0  -0.100541  0  4.013854  0  0  -0.083878  -0.099062  0  3.979515  0
C  C70  1  0.47768900  0.71712208  0.49121059  1  0  0.680475  0  3.859494  0  0  0.624988  0  4.151567  0  0  0.661826  0  4.141021  0  0  0.224938  0.600988  0  4.15587  0
C  C71  1  0.52230961  0.28287233  0.50878074  1  0  0.680433  0  3.859486  0  0  0.625086  0  4.151469  0  0  0.661924  0  4.140922  0  0  0.224984  0.601085  0  4.15578  0
C  C72  1  0.48803120  0.86292537  0.49467261  1  0  -0.052409  0  3.729744  0  0  -0.028772  0  3.960819  0  0  -0.036078  0  3.983311  0  0  -0.008935  -0.023699  0  3.944501  0
C  C73  1  0.51196568  0.13707104  0.50532084  1  0  -0.05229  0  3.729475  0  0  -0.028931  0  3.960882  0  0  -0.036239  0  3.983376  0  0  -0.00894  -0.023848  0  3.94455  0
C  C74  1  0.63376196  0.94874177  0.51090868  1  0  -0.064437  0  3.712125  0  0  -0.087384  0  3.958812  0  0  -0.088172  0  3.978857  0  0  -0.076836  -0.086593  0  3.945366  0
C  C75  1  0.36623413  0.05125564  0.48908801  1  0  -0.064386  0  3.712048  0  0  -0.087262  0  3.958811  0  0  -0.08805  0  3.978856  0  0  -0.076807  -0.086487  0  3.945347  0
C  C76  1  0.35413700  0.91498905  0.48346478  1  0  -0.058938  0  3.717954  0  0  -0.084254  0  3.967901  0  0  -0.084748  0  3.988222  0  0  -0.076499  -0.083655  0  3.954111  0
C  C77  1  0.64586138  0.08500834  0.51653087  1  0  -0.058838  0  3.717777  0  0  -0.084104  0  3.967798  0  0  -0.084596  0  3.988119  0  0  -0.076437  -0.083507  0  3.954008  0
N  N78  1  0.07057169  0.36609253  0.33417028  1  0  -0.369981  0  3.345163  0  0  -0.286394  0  3.63266  0  0  -0.308219  0  3.645859  0  0  -0.352008  -0.271763  0  3.623641  0
N  N79  1  0.92942304  0.63391681  0.66582880  1  0  -0.369833  0  3.345209  0  0  -0.286292  0  3.632705  0  0  -0.308115  0  3.645901  0  0  -0.351908  -0.271664  0  3.623689  0
N  N80  1  0.59174260  0.15502218  0.20936768  1  0  -0.468246  0  3.327438  0  0  -0.412067  0  3.566101  0  0  -0.437277  0  3.575014  0  0  -0.394554  -0.395199  0  3.559032  0
N  N81  1  0.40825612  0.84498017  0.79063250  1  0  -0.468368  0  3.327519  0  0  -0.412125  0  3.566138  0  0  -0.437339  0  3.575046  0  0  -0.394548  -0.395252  0  3.559067  0
O  O82  1  0.59910126  0.94296968  0.14909374  1  0  -0.529404  0  1.891262  0  0  -0.484424  0  2.093561  0  0  -0.504849  0  2.089088  0  0  -0.283466  -0.470753  0  2.096213  0
O  O83  1  0.40090616  0.05703164  0.85092990  1  0  -0.529425  0  1.890871  0  0  -0.484386  0  2.093204  0  0  -0.504826  0  2.088749  0  0  -0.283423  -0.470713  0  2.095857  0
O  O84  1  0.36643410  0.51189174  0.25663172  1  0  -0.635984  0  2.084162  0  0  -0.559182  0  2.359618  0  0  -0.589451  0  2.346176  0  0  -0.320619  -0.538915  0  2.368484  0
O  O85  1  0.63356734  0.48810365  0.74336656  1  0  -0.636108  0  2.084227  0  0  -0.559288  0  2.359641  0  0  -0.589543  0  2.346192  0  0  -0.320695  -0.539034  0  2.368536  0
O  O86  1  0.36896979  0.29856156  0.21731754  1  0  -0.629788  0  1.964618  0  0  -0.580557  0  2.197135  0  0  -0.604374  0  2.189041  0  0  -0.3207  -0.564869  0  2.201644  0
O  O87  1  0.63102933  0.70143880  0.78267578  1  0  -0.62969  0  1.964489  0  0  -0.580549  0  2.197094  0  0  -0.604368  0  2.189008  0  0  -0.320701  -0.564855  0  2.201597  0
O  O88  1  0.34399462  0.64139153  0.47869114  1  0  -0.635632  0  2.036749  0  0  -0.566712  0  2.311738  0  0  -0.59378  0  2.294368  0  0  -0.316037  -0.547092  0  2.322949  0
O  O89  1  0.65600298  0.35860687  0.52130777  1  0  -0.635642  0  2.036912  0  0  -0.566757  0  2.311878  0  0  -0.593818  0  2.294501  0  0  -0.316033  -0.54712  0  2.323051  0
O  O90  1  0.60319799  0.67675246  0.49977991  1  0  -0.648157  0  2.114942  0  0  -0.578841  0  2.393281  0  0  -0.605836  0  2.374531  0  0  -0.318086  -0.559141  0  2.40561  0
O  O91  1  0.39680316  0.32324688  0.50021227  1  0  -0.6482  0  2.114871  0  0  -0.578912  0  2.393143  0  0  -0.605905  0  2.374392  0  0  -0.318143  -0.559216  0  2.405487  0
