# generated using pymatgen
data_ZnH14C15N3O4
_symmetry_space_group_name_H-M   'P 1'
_cell_length_a   10.34479431
_cell_length_b   14.72807616
_cell_length_c   14.97534818
_cell_angle_alpha   115.38741236
_cell_angle_beta   90.00070524
_cell_angle_gamma   110.55640954
_symmetry_Int_Tables_number   1
_chemical_formula_structural   ZnH14C15N3O4
_chemical_formula_sum   'Zn4 H56 C60 N12 O16'
_cell_volume   1899.22641298
_cell_formula_units_Z   4
loop_
 _symmetry_equiv_pos_site_id
 _symmetry_equiv_pos_as_xyz
  1  'x, y, z'
loop_
 _atom_site_type_symbol
 _atom_site_label
 _atom_site_symmetry_multiplicity
 _atom_site_fract_x
 _atom_site_fract_y
 _atom_site_fract_z
 _atom_site_occupancy
 _atom_site_pbe_bader_charge
 _atom_site_pbe_bader_spin_density
 _atom_site_pbe_cm5_charge
 _atom_site_pbe_ddec_charge
 _atom_site_pbe_ddec_spin_density
 _atom_site_pbe_ddec_sum_bond_order
 _atom_site_pbe_magmom
Zn  Zn0  1  0.34709241  0.41925597  0.96773493  1  1.314396  0  0.681595  0.876668  0  2.354835  0
Zn  Zn1  1  0.92780467  0.58074975  0.53226507  1  1.318131  0  0.681495  0.876858  0  2.354656  0
Zn  Zn2  1  0.65289732  0.58073647  0.03226430  1  1.314388  0  0.681656  0.876868  0  2.35476  0
Zn  Zn3  1  0.07220598  0.41925169  0.46773398  1  1.318599  0  0.681498  0.876884  0  2.354507  0
H  H4  1  0.78162030  0.26490340  0.78756834  1  0.061747  0  0.108559  0.085038  0  1.017646  0
H  H5  1  0.71209401  0.29950819  0.89952825  1  0.092982  0  0.111965  0.101943  0  0.971249  0
H  H6  1  0.55076081  0.84784230  0.01013129  1  0.117254  0  0.112524  0.121145  0  1.011524  0
H  H7  1  0.13626024  0.36043325  0.10373687  1  0.120051  0  0.121938  0.121724  0  0.999165  0
H  H8  1  0.84732392  0.28506349  0.04690519  1  0.128858  0  0.114121  0.113323  0  1.062129  0
H  H9  1  0.12452340  0.41283407  0.80215785  1  0.115477  0  0.102937  0.158082  0  1.006646  0
H  H10  1  0.96295986  0.29970973  0.73620842  1  0.02449  0  0.099062  0.143655  0  1.016968  0
H  H11  1  0.12025058  0.27871263  0.74832489  1  0.084113  0  0.107238  0.162202  0  0.978872  0
H  H12  1  0.58488263  0.10417784  0.78473459  1  0.040764  0  0.094376  0.095468  0  0.988747  0
H  H13  1  0.67793621  0.11893427  0.89179194  1  0.022144  0  0.087681  0.081572  0  1.016364  0
H  H14  1  0.26718742  0.54536567  0.76859681  1  0.075364  0  0.109684  0.114602  0  1.017335  0
H  H15  1  0.25796693  0.84903835  0.80532614  1  0.115091  0  0.114788  0.124841  0  0.989166  0
H  H16  1  0.76231745  0.05833361  0.68366839  1  -0.003266  0  0.086958  0.080964  0  0.980832  0
H  H17  1  0.87748854  0.09646644  0.79192649  1  0.027206  0  0.091062  0.083377  0  0.987455  0
H  H18  1  0.51683396  0.73516307  0.71257375  1  0.063946  0  0.10871  0.084947  0  1.018028  0
H  H19  1  0.41266763  0.70051682  0.60061826  1  0.09844  0  0.112188  0.102294  0  0.969759  0
H  H20  1  0.70323812  0.15211424  0.48995710  1  0.132347  0  0.113262  0.122173  0  1.010653  0
H  H21  1  0.77563387  0.63953798  0.39625093  1  0.108456  0  0.122349  0.121829  0  0.999659  0
H  H22  1  0.56212604  0.71500111  0.45321367  1  0.119914  0  0.114441  0.114047  0  1.062583  0
H  H23  1  0.71192813  0.58738840  0.69796125  1  0.077325  0  0.102678  0.157107  0  1.007293  0
H  H24  1  0.66352787  0.70054406  0.76392303  1  0.033689  0  0.098748  0.143182  0  1.016731  0
H  H25  1  0.84179102  0.72150470  0.75174844  1  0.085361  0  0.106904  0.161464  0  0.978014  0
H  H26  1  0.48064703  0.89586986  0.71547743  1  0.037179  0  0.094046  0.095204  0  0.989965  0
H  H27  1  0.55882655  0.88112912  0.60835061  1  0.021672  0  0.087645  0.081597  0  1.016177  0
H  H28  1  0.72176207  0.45459192  0.73127346  1  0.067726  0  0.109573  0.114457  0  1.017894  0
H  H29  1  0.40899928  0.15095388  0.69458966  1  0.115325  0  0.114439  0.124602  0  0.990051  0
H  H30  1  0.70403820  0.94173390  0.81641136  1  0.00094  0  0.087295  0.081283  0  0.980905  0
H  H31  1  0.78093642  0.90352130  0.70809073  1  0.015891  0  0.091194  0.083403  0  0.988362  0
H  H32  1  0.21837885  0.73510209  0.21243577  1  0.061724  0  0.108531  0.085029  0  1.01765  0
H  H33  1  0.28790351  0.70049405  0.10047447  1  0.093078  0  0.111973  0.101981  0  0.971224  0
H  H34  1  0.44922176  0.15214358  0.98987250  1  0.117395  0  0.112579  0.121213  0  1.011467  0
H  H35  1  0.86374167  0.63957389  0.89626460  1  0.120054  0  0.121949  0.121733  0  0.999235  0
H  H36  1  0.15267615  0.71494772  0.95310201  1  0.128871  0  0.114085  0.113252  0  1.06217  0
H  H37  1  0.87547285  0.58717143  0.19784760  1  0.115515  0  0.102953  0.158093  0  1.006626  0
H  H38  1  0.03703792  0.70029496  0.26379468  1  0.024114  0  0.099097  0.14367  0  1.01698  0
H  H39  1  0.87974899  0.72129369  0.25167757  1  0.084387  0  0.10722  0.162216  0  0.978854  0
H  H40  1  0.41511780  0.89582441  0.21526614  1  0.04076  0  0.094352  0.095433  0  0.988784  0
H  H41  1  0.32206808  0.88106798  0.10820745  1  0.022147  0  0.08768  0.081582  0  1.016297  0
H  H42  1  0.73280217  0.45462845  0.23139512  1  0.075468  0  0.109654  0.11463  0  1.017418  0
H  H43  1  0.74204372  0.15096307  0.19467424  1  0.115168  0  0.114801  0.124836  0  0.989196  0
H  H44  1  0.23768873  0.94167435  0.31633210  1  -0.003433  0  0.086983  0.080975  0  0.980771  0
H  H45  1  0.12251846  0.90354315  0.20807535  1  0.027093  0  0.091104  0.083422  0  0.987504  0
H  H46  1  0.48317390  0.26484244  0.28742770  1  0.063995  0  0.108678  0.084933  0  1.018028  0
H  H47  1  0.58734410  0.29948869  0.39938252  1  0.098299  0  0.112181  0.102272  0  0.96985  0
H  H48  1  0.29677268  0.84788554  0.51004459  1  0.132476  0  0.11326  0.12212  0  1.010776  0
H  H49  1  0.22437332  0.36046426  0.60374980  1  0.108498  0  0.122359  0.121822  0  0.999666  0
H  H50  1  0.43788360  0.28500603  0.54678980  1  0.119836  0  0.114393  0.114002  0  1.062644  0
H  H51  1  0.28808231  0.41262035  0.30204491  1  0.077401  0  0.102655  0.157084  0  1.007303  0
H  H52  1  0.33648243  0.29946634  0.23608116  1  0.033821  0  0.098727  0.143256  0  1.016726  0
H  H53  1  0.15821831  0.27850569  0.24825642  1  0.08554  0  0.106978  0.161553  0  0.977968  0
H  H54  1  0.51936332  0.10413483  0.28452434  1  0.037093  0  0.094054  0.095185  0  0.98999  0
H  H55  1  0.44118172  0.11887721  0.39165052  1  0.021897  0  0.087648  0.081622  0  1.016204  0
H  H56  1  0.27824365  0.54540544  0.26872452  1  0.067681  0  0.109587  0.114494  0  1.017836  0
H  H57  1  0.59099372  0.84904512  0.30540568  1  0.115295  0  0.114427  0.124555  0  0.99018  0
H  H58  1  0.29597185  0.05827406  0.18359046  1  0.000906  0  0.0873  0.081275  0  0.980938  0
H  H59  1  0.21907557  0.09648666  0.29191109  1  0.015929  0  0.091158  0.083367  0  0.988428  0
C  C60  1  0.41061817  0.68989960  0.89562712  1  -0.097579  0  -0.01447  -0.023358  0  3.994022  0
C  C61  1  0.76947100  0.25107318  0.85394108  1  0.256973  0  -0.05265  -0.058767  0  3.876588  0
C  C62  1  0.46604445  0.80346241  0.94561227  1  0.015196  0  -0.073532  -0.158959  0  3.910863  0
C  C63  1  0.40975172  0.86067064  0.91313199  1  0.339873  0  0.081342  0.147955  0  4.078093  0
C  C64  1  0.45647169  0.62555627  0.93475698  1  1.598086  0  0.212096  0.588334  0  4.196379  0
C  C65  1  0.07490941  0.34144328  0.03485187  1  0.458884  0  -0.003094  -0.027231  0  4.030382  0
C  C66  1  0.93276489  0.30452110  0.00784910  1  0.24213  0  -0.00747  -0.114437  0  3.957387  0
C  C67  1  0.06067341  0.32865390  0.78681181  1  -0.058792  0  -0.227803  -0.46792  0  3.938087  0
C  C68  1  0.03619384  0.32518788  0.88337851  1  0.984946  0  0.224649  0.345824  0  3.920098  0
C  C69  1  0.69118900  0.12967581  0.82350879  1  0.004908  0  -0.165143  -0.172219  0  3.933231  0
C  C70  1  0.30632937  0.63386872  0.80980213  1  0.026561  0  -0.071322  -0.106274  0  3.92497  0
C  C71  1  0.25256432  0.69036126  0.77585458  1  0.006554  0  -0.014273  -0.024527  0  3.989616  0
C  C72  1  0.30164176  0.80399219  0.82929696  1  -0.081646  0  -0.06867  -0.154143  0  3.908885  0
C  C73  1  0.14706678  0.62762437  0.68011050  1  1.611046  0  0.21062  0.585673  0  4.200705  0
C  C74  1  0.76575140  0.05884907  0.75757234  1  -0.015537  0  -0.165538  -0.138713  0  3.936487  0
C  C75  1  0.72081898  0.31005325  0.60435121  1  -0.068478  0  -0.014532  -0.023673  0  3.994514  0
C  C76  1  0.51846387  0.74900665  0.64620798  1  0.276639  0  -0.052784  -0.058971  0  3.874089  0
C  C77  1  0.66283388  0.19650001  0.55443355  1  0.069124  0  -0.074655  -0.161164  0  3.911844  0
C  C78  1  0.54927197  0.13932634  0.58689246  1  0.284428  0  0.081861  0.150076  0  4.076712  0
C  C79  1  0.83101177  0.37439599  0.56523438  1  1.583807  0  0.212166  0.588409  0  4.199234  0
C  C80  1  0.73337390  0.65861255  0.46517815  1  0.427272  0  -0.0028  -0.025591  0  4.029363  0
C  C81  1  0.62820978  0.69559224  0.49224699  1  0.288991  0  -0.007941  -0.116087  0  3.958383  0
C  C82  1  0.73226385  0.67157897  0.71328149  1  -0.036443  0  -0.226845  -0.464823  0  3.936806  0
C  C83  1  0.71114563  0.67500058  0.61671178  1  0.999365  0  0.225323  0.344466  0  3.919917  0
C  C84  1  0.56143836  0.87040423  0.67664289  1  -0.00146  0  -0.165021  -0.172579  0  3.935586  0
C  C85  1  0.67243957  0.36609548  0.69011565  1  -0.0385  0  -0.070583  -0.105286  0  3.926617  0
C  C86  1  0.56218934  0.30963304  0.72408137  1  -0.000595  0  -0.014763  -0.024737  0  3.989444  0
C  C87  1  0.49773927  0.19602210  0.67065877  1  -0.014743  0  -0.068625  -0.155271  0  3.910541  0
C  C88  1  0.51937410  0.37228193  0.81983290  1  1.586572  0  0.211324  0.586319  0  4.195557  0
C  C89  1  0.70688231  0.94119625  0.74249599  1  0.006291  0  -0.165802  -0.138225  0  3.939867  0
C  C90  1  0.58935776  0.31009039  0.10437174  1  -0.098638  0  -0.014386  -0.023109  0  3.993939  0
C  C91  1  0.23052597  0.74892988  0.14606132  1  0.256994  0  -0.052632  -0.058824  0  3.876541  0
C  C92  1  0.53394099  0.19652919  0.05439128  1  0.015704  0  -0.073571  -0.159041  0  3.910912  0
C  C93  1  0.59024116  0.13932424  0.08687095  1  0.339875  0  0.081313  0.147879  0  4.077934  0
C  C94  1  0.54347252  0.37441087  0.06523551  1  1.598806  0  0.211736  0.587911  0  4.196867  0
C  C95  1  0.92508684  0.65856221  0.96515224  1  0.458814  0  -0.003127  -0.027416  0  4.030502  0
C  C96  1  0.06723274  0.69548522  0.99215269  1  0.242294  0  -0.007395  -0.114132  0  3.957187  0
C  C97  1  0.93932299  0.67134997  0.21319094  1  -0.058938  0  -0.227777  -0.46791  0  3.937973  0
C  C98  1  0.96380246  0.67481191  0.11662184  1  0.985191  0  0.224595  0.345784  0  3.919894  0
C  C99  1  0.30881321  0.87032807  0.17649129  1  0.00491  0  -0.165108  -0.17212  0  3.933037  0
C  C100  1  0.69365910  0.36612700  0.19019382  1  0.026749  0  -0.071377  -0.106445  0  3.924827  0
C  C101  1  0.74744070  0.30963857  0.22413777  1  0.006721  0  -0.014132  -0.024419  0  3.989645  0
C  C102  1  0.69836253  0.19601006  0.17070376  1  -0.081729  0  -0.068721  -0.154096  0  3.908967  0
C  C103  1  0.85295040  0.37237466  0.31987951  1  1.611395  0  0.210479  0.585408  0  4.200914  0
C  C104  1  0.23425453  0.94115645  0.24242843  1  -0.015213  0  -0.165584  -0.138796  0  3.936551  0
C  C105  1  0.27919537  0.68994978  0.39565586  1  -0.068331  0  -0.014437  -0.023534  0  3.994547  0
C  C106  1  0.48154673  0.25100049  0.35379483  1  0.276997  0  -0.052745  -0.058941  0  3.874183  0
C  C107  1  0.33717743  0.80350468  0.44556888  1  0.068814  0  -0.074671  -0.161119  0  3.912014  0
C  C108  1  0.45072958  0.86067429  0.41310491  1  0.284581  0  0.08181  0.149927  0  4.076965  0
C  C109  1  0.16900127  0.62560055  0.43476258  1  1.584634  0  0.212162  0.58858  0  4.199165  0
C  C110  1  0.26663920  0.34139377  0.53482431  1  0.425907  0  -0.002934  -0.025692  0  4.029534  0
C  C111  1  0.37180015  0.30441164  0.50775510  1  0.290407  0  -0.007843  -0.11605  0  3.958581  0
C  C112  1  0.26774620  0.32842898  0.28672233  1  -0.037219  0  -0.226931  -0.465054  0  3.936638  0
C  C113  1  0.28886455  0.32500572  0.38329401  1  0.99982  0  0.225387  0.344594  0  3.919746  0
C  C114  1  0.43857005  0.12960046  0.32335754  1  -0.001785  0  -0.165036  -0.172633  0  3.935607  0
C  C115  1  0.32756609  0.63390757  0.30988809  1  -0.038885  0  -0.070601  -0.105402  0  3.92681  0
C  C116  1  0.43780132  0.69036514  0.27591496  1  -0.000247  0  -0.014737  -0.024582  0  3.989328  0
C  C117  1  0.50226020  0.80398017  0.32933663  1  -0.015149  0  -0.068602  -0.155238  0  3.910557  0
C  C118  1  0.48060271  0.62770400  0.18015956  1  1.585129  0  0.211189  0.586167  0  4.195506  0
C  C119  1  0.29312555  0.05880927  0.25750412  1  0.006074  0  -0.165782  -0.138157  0  3.93995  0
N  N120  1  0.90950490  0.29487427  0.91247580  1  -1.210741  0  -0.238702  -0.009654  0  3.715845  0
N  N121  1  0.45643708  0.97554195  0.95935383  1  -0.527859  0  -0.149669  -0.134825  0  3.289798  0
N  N122  1  0.13795660  0.35402187  0.95734962  1  -1.239555  0  -0.358753  -0.341735  0  3.516846  0
N  N123  1  0.61473618  0.70530980  0.58765436  1  -1.21931  0  -0.239283  -0.008607  0  3.715736  0
N  N124  1  0.48100489  0.02447274  0.54068942  1  -0.521652  0  -0.149601  -0.135269  0  3.292322  0
N  N125  1  0.78394398  0.64606775  0.54267464  1  -1.239645  0  -0.359507  -0.343238  0  3.516492  0
N  N126  1  0.09049191  0.70513041  0.08752730  1  -1.210684  0  -0.238746  -0.009828  0  3.715935  0
N  N127  1  0.54355980  0.02445128  0.04065242  1  -0.488307  0  -0.149586  -0.134862  0  3.2897  0
N  N128  1  0.86203735  0.64597710  0.04265239  1  -1.2398  0  -0.358752  -0.341713  0  3.516721  0
N  N129  1  0.38527539  0.29469733  0.41235045  1  -1.21944  0  -0.239311  -0.008541  0  3.715836  0
N  N130  1  0.51899889  0.97552463  0.45930657  1  -0.478267  0  -0.149573  -0.135139  0  3.292383  0
N  N131  1  0.21606814  0.35393857  0.45732981  1  -1.239545  0  -0.359452  -0.343216  0  3.516588  0
O  O132  1  0.58307735  0.66578212  0.97779579  1  -1.158239  0  -0.316072  -0.533346  0  2.285792  0
O  O133  1  0.36022207  0.53640548  0.92198367  1  -1.181209  0  -0.313436  -0.561489  0  2.35869  0
O  O134  1  0.06294197  0.66903009  0.66893071  1  -1.161351  0  -0.3167  -0.537393  0  2.284834  0
O  O135  1  0.15399000  0.53847876  0.61796161  1  -1.18383  0  -0.315925  -0.567668  0  2.354238  0
O  O136  1  0.91732227  0.33413223  0.52213889  1  -1.163193  0  -0.315953  -0.532916  0  2.288746  0
O  O137  1  0.82398544  0.46358963  0.57806423  1  -1.169652  0  -0.313615  -0.561615  0  2.358828  0
O  O138  1  0.39382788  0.33091031  0.83099231  1  -1.163808  0  -0.317247  -0.537532  0  2.281162  0
O  O139  1  0.61542760  0.46137592  0.88205709  1  -1.188527  0  -0.316067  -0.56791  0  2.352536  0
O  O140  1  0.41687172  0.33417926  0.02220361  1  -1.158881  0  -0.31585  -0.532928  0  2.286073  0
O  O141  1  0.63971036  0.46356906  0.07800061  1  -1.181482  0  -0.313373  -0.561565  0  2.358412  0
O  O142  1  0.93706849  0.33096322  0.33105821  1  -1.161259  0  -0.316709  -0.53739  0  2.284968  0
O  O143  1  0.84603445  0.46152514  0.38203381  1  -1.184332  0  -0.315894  -0.567542  0  2.354003  0
O  O144  1  0.08269177  0.66585858  0.47786031  1  -1.163752  0  -0.315974  -0.533048  0  2.288778  0
O  O145  1  0.17603091  0.53640773  0.42193309  1  -1.169729  0  -0.313629  -0.56172  0  2.358831  0
O  O146  1  0.60614118  0.66906013  0.16899290  1  -1.16384  0  -0.317287  -0.537565  0  2.281399  0
O  O147  1  0.38453336  0.53860347  0.11793793  1  -1.186681  0  -0.315911  -0.567788  0  2.352473  0
