# generated using pymatgen
data_ZnH5C9N5O4
_symmetry_space_group_name_H-M   'P 1'
_cell_length_a   14.62728209
_cell_length_b   14.62729257
_cell_length_c   18.29922259
_cell_angle_alpha   90.00006917
_cell_angle_beta   90.00011907
_cell_angle_gamma   90.07293854
_symmetry_Int_Tables_number   1
_chemical_formula_structural   ZnH5C9N5O4
_chemical_formula_sum   'Zn8 H40 C72 N40 O32'
_cell_volume   3915.25338004
_cell_formula_units_Z   8
loop_
 _symmetry_equiv_pos_site_id
 _symmetry_equiv_pos_as_xyz
  1  'x, y, z'
loop_
 _atom_site_type_symbol
 _atom_site_label
 _atom_site_symmetry_multiplicity
 _atom_site_fract_x
 _atom_site_fract_y
 _atom_site_fract_z
 _atom_site_occupancy
 _atom_site_pbe_bader_charge
 _atom_site_pbe_bader_spin_density
 _atom_site_pbe_cm5_charge
 _atom_site_pbe_ddec_charge
 _atom_site_pbe_ddec_spin_density
 _atom_site_pbe_ddec_sum_bond_order
 _atom_site_pbe_magmom
Zn  Zn0  1  0.18047745  0.75298113  0.47009098  1  1.27615  0  0.693485  0.77574  0  2.403526  0
Zn  Zn1  1  0.75297870  0.18047756  0.52990904  1  1.276221  0  0.693449  0.775709  0  2.403489  0
Zn  Zn2  1  0.68047641  0.25297759  0.02990799  1  1.276145  0  0.693444  0.775672  0  2.403603  0
Zn  Zn3  1  0.25297977  0.68047632  0.97009257  1  1.276083  0  0.693443  0.775661  0  2.403516  0
Zn  Zn4  1  0.25856705  0.25856721  0.00000089  1  1.287313  0  0.671647  0.735978  0  2.366874  0
Zn  Zn5  1  0.75856966  0.75856835  0.49999876  1  1.287299  0  0.671626  0.735899  0  2.366921  0
Zn  Zn6  1  0.17985755  0.17985857  0.49999853  1  1.266778  0  0.712884  0.800721  0  2.456562  0
Zn  Zn7  1  0.67985675  0.67985764  0.99999913  1  1.267021  0  0.7129  0.800712  0  2.456684  0
H  H8  1  0.12112273  0.75003934  0.30932398  1  0.536558  0  0.301321  0.282966  0  1.017402  0
H  H9  1  0.75003867  0.12112415  0.69067595  1  0.536544  0  0.301311  0.282942  0  1.017398  0
H  H10  1  0.62112412  0.25003947  0.19067761  1  0.536541  0  0.301329  0.282943  0  1.017405  0
H  H11  1  0.25003728  0.62112265  0.80932396  1  0.53656  0  0.301336  0.282966  0  1.017359  0
H  H12  1  0.23015031  0.12052445  0.66308744  1  0.545371  0  0.301636  0.283144  0  1.016342  0
H  H13  1  0.12052600  0.23015010  0.33691289  1  0.545336  0  0.301606  0.283128  0  1.016365  0
H  H14  1  0.73014979  0.62052396  0.83691189  1  0.545353  0  0.301654  0.283167  0  1.016307  0
H  H15  1  0.62052435  0.73014934  0.16308759  1  0.545344  0  0.301635  0.283139  0  1.01637  0
H  H16  1  0.17013850  0.98471145  0.44070622  1  0.555921  0  0.384483  0.301747  0  0.861406  0
H  H17  1  0.98471398  0.17013676  0.55929409  1  0.555895  0  0.384511  0.301784  0  0.861369  0
H  H18  1  0.67014093  0.48471276  0.05929349  1  0.555903  0  0.384522  0.301759  0  0.861398  0
H  H19  1  0.48471155  0.67013682  0.94070627  1  0.555911  0  0.384512  0.301795  0  0.861382  0
H  H20  1  0.98623799  0.75942547  0.53742677  1  0.522266  0  0.387653  0.311037  0  0.854856  0
H  H21  1  0.75942573  0.98623539  0.46257378  1  0.522274  0  0.387652  0.310996  0  0.85487  0
H  H22  1  0.48623586  0.25942504  0.96257367  1  0.522275  0  0.387633  0.310984  0  0.854899  0
H  H23  1  0.25942526  0.48623568  0.03742663  1  0.522267  0  0.387648  0.311041  0  0.854838  0
H  H24  1  0.25749426  0.15159628  0.77922957  1  0.144919  0  0.114483  0.138865  0  1.005324  0
H  H25  1  0.15159421  0.25748884  0.22076810  1  0.145244  0  0.114458  0.13883  0  1.005356  0
H  H26  1  0.75749071  0.65159491  0.72076874  1  0.145189  0  0.114449  0.138767  0  1.005315  0
H  H27  1  0.65159490  0.75748895  0.27923027  1  0.144943  0  0.114469  0.138852  0  1.005343  0
H  H28  1  0.29274809  0.93824545  0.93822198  1  0.135531  0  0.109794  0.124392  0  0.998951  0
H  H29  1  0.93824219  0.29274651  0.06177789  1  0.135548  0  0.109804  0.124455  0  0.99901  0
H  H30  1  0.79274576  0.43824194  0.56177885  1  0.135562  0  0.109821  0.124471  0  0.999014  0
H  H31  1  0.43824316  0.79274864  0.43821992  1  0.135602  0  0.109769  0.12437  0  0.999022  0
H  H32  1  0.23558338  0.86734240  0.71435227  1  0.162617  0  0.108265  0.122423  0  1.048003  0
H  H33  1  0.86734249  0.23558361  0.28564906  1  0.162592  0  0.108267  0.122468  0  1.047991  0
H  H34  1  0.73558227  0.36734335  0.78564894  1  0.162573  0  0.108265  0.122472  0  1.048058  0
H  H35  1  0.36734361  0.73557992  0.21434966  1  0.162553  0  0.108241  0.122458  0  1.048054  0
H  H36  1  0.86777294  0.75004296  0.25773883  1  0.13462  0  0.109924  0.124615  0  1.042352  0
H  H37  1  0.75004074  0.86777467  0.74226046  1  0.134548  0  0.109913  0.124563  0  1.042306  0
H  H38  1  0.36777572  0.25004358  0.24226100  1  0.13445  0  0.109973  0.124636  0  1.042345  0
H  H39  1  0.25003742  0.36777323  0.75773804  1  0.134078  0  0.109958  0.124613  0  1.042357  0
H  H40  1  0.15185124  0.72195320  0.19445409  1  0.147419  0  0.115439  0.140958  0  1.008476  0
H  H41  1  0.72195188  0.15185390  0.80554748  1  0.147363  0  0.115427  0.140993  0  1.008494  0
H  H42  1  0.65185294  0.22195146  0.30554643  1  0.147375  0  0.115435  0.140979  0  1.008555  0
H  H43  1  0.22194814  0.65185426  0.69445350  1  0.147342  0  0.115406  0.140974  0  1.008463  0
H  H44  1  0.93913021  0.68636264  0.03486163  1  0.15242  0  0.109995  0.124682  0  0.998941  0
H  H45  1  0.68636707  0.93912944  0.96513876  1  0.152429  0  0.109996  0.124666  0  0.998982  0
H  H46  1  0.43913148  0.18636565  0.46513662  1  0.152455  0  0.109973  0.124608  0  0.999089  0
H  H47  1  0.18636248  0.43913244  0.53486025  1  0.15239  0  0.110032  0.124737  0  0.998896  0
C  C48  1  0.12360568  0.68943783  0.05263819  1  1.508209  0  0.194071  0.562554  0  4.178654  0
C  C49  1  0.68943969  0.12360390  0.94736330  1  1.50819  0  0.194017  0.562482  0  4.178615  0
C  C50  1  0.62360566  0.18943903  0.44736280  1  1.507575  0  0.194082  0.562586  0  4.17875  0
C  C51  1  0.18943900  0.62360817  0.55263705  1  1.507275  0  0.193973  0.562321  0  4.178777  0
C  C52  1  0.28232801  0.12300734  0.92243621  1  1.539265  0  0.191407  0.558337  0  4.191595  0
C  C53  1  0.12300580  0.28232582  0.07756310  1  1.539223  0  0.191379  0.558372  0  4.191502  0
C  C54  1  0.78232889  0.62300578  0.57756321  1  1.539198  0  0.191422  0.558368  0  4.191491  0
C  C55  1  0.62300617  0.78232546  0.42243470  1  1.539239  0  0.191384  0.558315  0  4.191699  0
C  C56  1  0.27693151  0.05189802  0.86420801  1  0.053466  0  -0.0136  -0.005513  0  4.001307  0
C  C57  1  0.05189692  0.27692766  0.13579064  1  0.05345  0  -0.013625  -0.005644  0  4.001253  0
C  C58  1  0.77692775  0.55189583  0.63579297  1  0.053535  0  -0.013637  -0.005702  0  4.001373  0
C  C59  1  0.55189645  0.77692995  0.36420593  1  0.053499  0  -0.013622  -0.005636  0  4.001398  0
C  C60  1  0.20211918  0.00459152  0.60664070  1  1.457561  0  0.349435  0.432427  0  4.058053  0
C  C61  1  0.00459196  0.20211754  0.39335889  1  1.457528  0  0.349444  0.432487  0  4.058089  0
C  C62  1  0.70211878  0.50459248  0.89335792  1  1.457468  0  0.349425  0.43247  0  4.058047  0
C  C63  1  0.50459292  0.70211466  0.10664136  1  1.457726  0  0.349487  0.432545  0  4.058146  0
C  C64  1  0.24408021  0.01327409  0.73780533  1  0.290233  0  0.096508  0.238672  0  4.019223  0
C  C65  1  0.01327445  0.24407626  0.26219433  1  0.290349  0  0.09654  0.238701  0  4.01923  0
C  C66  1  0.74407608  0.51327347  0.76219556  1  0.29034  0  0.096431  0.238551  0  4.019261  0
C  C67  1  0.51327435  0.74407562  0.23780434  1  0.290358  0  0.096498  0.238715  0  4.019197  0
C  C68  1  0.00431109  0.76034832  0.36882423  1  1.448419  0  0.350581  0.432938  0  4.061478  0
C  C69  1  0.76034927  0.00430934  0.63117556  1  1.448447  0  0.350518  0.432892  0  4.061606  0
C  C70  1  0.50431097  0.26034835  0.13117662  1  1.448423  0  0.350564  0.432894  0  4.061565  0
C  C71  1  0.26034528  0.50430997  0.86882371  1  1.448457  0  0.350543  0.432865  0  4.061604  0
C  C72  1  0.26011927  0.07893260  0.79231917  1  -0.067539  0  -0.075843  -0.172054  0  3.870414  0
C  C73  1  0.07893166  0.26011690  0.20767951  1  -0.06781  0  -0.075787  -0.171905  0  3.870292  0
C  C74  1  0.76011773  0.57893122  0.70768017  1  -0.067778  0  -0.075801  -0.171832  0  3.870343  0
C  C75  1  0.57893307  0.76011703  0.29231929  1  -0.067599  0  -0.075818  -0.171977  0  3.870445  0
C  C76  1  0.28114838  0.95913606  0.88193489  1  -0.078983  0  -0.076122  -0.111713  0  3.922155  0
C  C77  1  0.95913255  0.28114467  0.11806390  1  -0.07914  0  -0.076131  -0.111805  0  3.922189  0
C  C78  1  0.78114550  0.45913332  0.61806540  1  -0.079147  0  -0.076125  -0.111746  0  3.922311  0
C  C79  1  0.45913269  0.78114739  0.38193284  1  -0.079099  0  -0.076079  -0.111694  0  3.9222  0
C  C80  1  0.24819675  0.92000566  0.75508737  1  0.057296  0  -0.084722  -0.189844  0  3.900725  0
C  C81  1  0.92000666  0.24819403  0.24491350  1  0.057094  0  -0.084751  -0.18996  0  3.90076  0
C  C82  1  0.74819419  0.42000380  0.74491336  1  0.057047  0  -0.084719  -0.189927  0  3.900779  0
C  C83  1  0.42000581  0.74819245  0.25508478  1  0.057112  0  -0.084705  -0.189976  0  3.900913  0
C  C84  1  0.26805941  0.89377385  0.82718935  1  -0.045887  0  -0.017223  -0.020526  0  3.988884  0
C  C85  1  0.89377279  0.26805776  0.17281152  1  -0.045548  0  -0.017216  -0.020443  0  3.988841  0
C  C86  1  0.76805803  0.39377325  0.67281140  1  -0.045549  0  -0.017222  -0.020484  0  3.989044  0
C  C87  1  0.39377349  0.76805766  0.32718619  1  -0.045628  0  -0.017259  -0.020448  0  3.989022  0
C  C88  1  0.92038183  0.73672321  0.21711037  1  0.012239  0  -0.082636  -0.187178  0  3.891887  0
C  C89  1  0.73672226  0.92038362  0.78288952  1  0.012344  0  -0.082606  -0.187106  0  3.89191  0
C  C90  1  0.42038334  0.23672321  0.28288899  1  0.012417  0  -0.082621  -0.187138  0  3.891906  0
C  C91  1  0.23671815  0.42038211  0.71710956  1  0.012353  0  -0.082581  -0.187103  0  3.891838  0
C  C92  1  0.01361769  0.73833433  0.23504313  1  0.382392  0  0.099124  0.243185  0  4.020957  0
C  C93  1  0.73833498  0.01361950  0.76495773  1  0.382337  0  0.099115  0.243174  0  4.020964  0
C  C94  1  0.51361927  0.23833527  0.26495717  1  0.382402  0  0.099128  0.243248  0  4.020905  0
C  C95  1  0.23832999  0.51361718  0.73504315  1  0.382424  0  0.099097  0.243111  0  4.020947  0
C  C96  1  0.07931586  0.72145902  0.18083542  1  -0.078184  0  -0.074857  -0.171425  0  3.870323  0
C  C97  1  0.72145881  0.07931684  0.81916551  1  -0.078136  0  -0.07486  -0.171521  0  3.870286  0
C  C98  1  0.57931758  0.22145867  0.31916444  1  -0.078202  0  -0.074884  -0.171517  0  3.870327  0
C  C99  1  0.22145504  0.57931718  0.68083485  1  -0.078097  0  -0.074869  -0.171558  0  3.870269  0
C  C100  1  0.95972098  0.70070128  0.09080338  1  -0.093867  0  -0.077283  -0.115828  0  3.926248  0
C  C101  1  0.70070213  0.95972161  0.90919597  1  -0.093871  0  -0.077289  -0.115829  0  3.926288  0
C  C102  1  0.45972349  0.20070352  0.40919547  1  -0.094052  0  -0.077243  -0.115678  0  3.926321  0
C  C103  1  0.20069837  0.45972265  0.59080309  1  -0.093913  0  -0.077387  -0.116105  0  3.926246  0
C  C104  1  0.89436252  0.71603344  0.14514116  1  -0.034577  0  -0.01695  -0.018839  0  3.991769  0
C  C105  1  0.71603309  0.89436351  0.85485812  1  -0.034585  0  -0.016938  -0.018826  0  3.991727  0
C  C106  1  0.39436353  0.21603354  0.35485759  1  -0.034422  0  -0.016971  -0.018943  0  3.991683  0
C  C107  1  0.21602810  0.39436463  0.64514089  1  -0.034135  0  -0.016931  -0.018659  0  3.991635  0
C  C108  1  0.05232226  0.70390721  0.10909682  1  0.065479  0  -0.015799  -0.011188  0  4.020937  0
C  C109  1  0.70390784  0.05232180  0.89090350  1  0.065478  0  -0.015772  -0.011125  0  4.020961  0
C  C110  1  0.55232347  0.20390697  0.39090297  1  0.065512  0  -0.015807  -0.011213  0  4.02094  0
C  C111  1  0.20390456  0.55232340  0.60909626  1  0.065429  0  -0.015739  -0.010939  0  4.020824  0
C  C112  1  0.79525716  0.71008111  0.12529104  1  1.552823  0  0.216098  0.593557  0  4.183385  0
C  C113  1  0.71008318  0.79525865  0.87471028  1  1.552818  0  0.21617  0.593667  0  4.183287  0
C  C114  1  0.29525958  0.21008193  0.37470917  1  1.552812  0  0.216202  0.59378  0  4.183165  0
C  C115  1  0.21007539  0.29526314  0.62529027  1  1.552791  0  0.216095  0.593628  0  4.183146  0
C  C116  1  0.27004670  0.79454705  0.84718469  1  1.548519  0  0.215335  0.593222  0  4.170512  0
C  C117  1  0.79454650  0.27004477  0.15281659  1  1.547744  0  0.215341  0.593273  0  4.170296  0
C  C118  1  0.77004389  0.29454847  0.65281706  1  1.548604  0  0.215356  0.593294  0  4.170329  0
C  C119  1  0.29454793  0.77004471  0.34718258  1  1.548195  0  0.215398  0.593363  0  4.170205  0
N  N120  1  0.18562603  0.04789833  0.54183358  1  -0.706072  0  -0.236793  -0.308809  0  3.355815  0
N  N121  1  0.04790063  0.18562507  0.45816604  1  -0.705961  0  -0.236794  -0.308762  0  3.35567  0
N  N122  1  0.68562579  0.54790144  0.95816451  1  -0.705989  0  -0.236784  -0.308832  0  3.355605  0
N  N123  1  0.54790073  0.68562345  0.04183427  1  -0.706015  0  -0.236789  -0.308743  0  3.355611  0
N  N124  1  0.17606201  0.89744093  0.52863506  1  -0.073397  0  -0.050837  0.004721  0  3.388516  0
N  N125  1  0.89744201  0.17606287  0.47136569  1  -0.07337  0  -0.050865  0.004663  0  3.3885  0
N  N126  1  0.67606479  0.39744150  0.97136444  1  -0.073339  0  -0.050793  0.004775  0  3.388488  0
N  N127  1  0.39744129  0.67605958  0.02863576  1  -0.073394  0  -0.050825  0.004772  0  3.388564  0
N  N128  1  0.04763284  0.76069105  0.43478554  1  -0.682908  0  -0.23275  -0.299707  0  3.39847  0
N  N129  1  0.76069404  0.04763205  0.56521540  1  -0.682911  0  -0.23265  -0.299694  0  3.398405  0
N  N130  1  0.54763323  0.26069167  0.06521593  1  -0.682915  0  -0.232721  -0.29972  0  3.398351  0
N  N131  1  0.26069158  0.54763278  0.93478555  1  -0.682865  0  -0.232683  -0.299668  0  3.39842  0
N  N132  1  0.89803533  0.76868053  0.44947269  1  -0.120063  0  -0.053176  0.008402  0  3.437695  0
N  N133  1  0.76868139  0.89803479  0.55052721  1  -0.120067  0  -0.053154  0.008353  0  3.437695  0
N  N134  1  0.39803626  0.26868017  0.05052830  1  -0.12015  0  -0.053165  0.008392  0  3.437749  0
N  N135  1  0.26867649  0.39803500  0.94947245  1  -0.120063  0  -0.05322  0.008342  0  3.43774  0
N  N136  1  0.04933538  0.75436100  0.30545491  1  -1.301762  0  -0.385845  -0.366332  0  3.567419  0
N  N137  1  0.75436147  0.04933626  0.69454548  1  -1.301722  0  -0.385839  -0.366307  0  3.567365  0
N  N138  1  0.54933678  0.25436319  0.19454547  1  -1.301799  0  -0.385837  -0.366304  0  3.567447  0
N  N139  1  0.25435801  0.54933542  0.80545492  1  -1.301737  0  -0.385847  -0.366261  0  3.567344  0
N  N140  1  0.22385898  0.04910315  0.66791165  1  -1.305751  0  -0.383516  -0.361194  0  3.57005  0
N  N141  1  0.04910443  0.22385522  0.33208803  1  -1.305821  0  -0.38354  -0.361289  0  3.570109  0
N  N142  1  0.72385638  0.54910401  0.83208760  1  -1.305856  0  -0.383547  -0.361262  0  3.570129  0
N  N143  1  0.54910485  0.72385311  0.16791068  1  -1.306082  0  -0.38355  -0.361317  0  3.570231  0
N  N144  1  0.17049424  0.97749542  0.49609655  1  -0.360789  0  -0.142666  -0.002548  0  3.751236  0
N  N145  1  0.97749558  0.17049448  0.50390375  1  -0.360929  0  -0.142672  -0.002596  0  3.751051  0
N  N146  1  0.67049654  0.47749528  0.00390261  1  -0.360843  0  -0.142698  -0.002541  0  3.751072  0
N  N147  1  0.47749535  0.67049122  0.99609769  1  -0.36091  0  -0.142728  -0.002684  0  3.75109  0
N  N148  1  0.19405951  0.91134583  0.59785332  1  -0.470709  0  -0.166829  -0.221088  0  3.07481  0
N  N149  1  0.91134677  0.19406016  0.40214747  1  -0.470667  0  -0.166834  -0.22109  0  3.074795  0
N  N150  1  0.69406143  0.41134697  0.90214567  1  -0.470732  0  -0.166829  -0.2211  0  3.074768  0
N  N151  1  0.41134759  0.69405766  0.09785348  1  -0.470681  0  -0.166838  -0.221139  0  3.074926  0
N  N152  1  0.97804356  0.76581303  0.48220858  1  -0.286757  0  -0.130045  0.012748  0  3.732982  0
N  N153  1  0.76581567  0.97804302  0.51779143  1  -0.286754  0  -0.130133  0.012798  0  3.73292  0
N  N154  1  0.47804236  0.26581261  0.01779146  1  -0.286735  0  -0.130064  0.012823  0  3.732853  0
N  N155  1  0.26581085  0.47804260  0.98220885  1  -0.286796  0  -0.130091  0.012697  0  3.732993  0
N  N156  1  0.91144588  0.76652483  0.37861778  1  -0.467305  0  -0.168554  -0.222452  0  3.07286  0
N  N157  1  0.76652525  0.91144563  0.62138214  1  -0.467346  0  -0.168504  -0.22237  0  3.072961  0
N  N158  1  0.41144631  0.26652526  0.12138214  1  -0.467219  0  -0.168541  -0.222435  0  3.072895  0
N  N159  1  0.26652085  0.41144506  0.87861808  1  -0.467327  0  -0.168472  -0.222337  0  3.07291  0
O  O160  1  0.20605955  0.67107873  0.07397632  1  -1.161701  0  -0.341652  -0.561126  0  2.220101  0
O  O161  1  0.67107825  0.20606024  0.92602471  1  -1.161608  0  -0.341637  -0.56111  0  2.22009  0
O  O162  1  0.70606221  0.17108059  0.42602644  1  -1.161161  0  -0.341619  -0.561107  0  2.220092  0
O  O163  1  0.17107831  0.70606181  0.57397405  1  -1.161055  0  -0.341605  -0.56106  0  2.220286  0
O  O164  1  0.29575338  0.20706882  0.90230153  1  -1.165824  0  -0.346053  -0.561903  0  2.233263  0
O  O165  1  0.20706857  0.29575028  0.09770010  1  -1.165805  0  -0.346016  -0.561886  0  2.233136  0
O  O166  1  0.79575225  0.70706727  0.59769690  1  -1.165753  0  -0.346017  -0.561865  0  2.233257  0
O  O167  1  0.70706820  0.79575194  0.40229895  1  -1.165841  0  -0.346056  -0.561876  0  2.233218  0
O  O168  1  0.26921005  0.10315836  0.98892481  1  -1.15232  0  -0.326906  -0.525627  0  2.081515  0
O  O169  1  0.10315964  0.26920762  0.01107500  1  -1.152292  0  -0.326904  -0.525633  0  2.081602  0
O  O170  1  0.76921008  0.60315533  0.51107567  1  -1.152332  0  -0.326936  -0.525608  0  2.081505  0
O  O171  1  0.60316018  0.76920736  0.48892329  1  -1.152223  0  -0.326871  -0.525585  0  2.081611  0
O  O172  1  0.30265826  0.77691665  0.91222463  1  -1.173806  0  -0.353435  -0.584659  0  2.372055  0
O  O173  1  0.77691542  0.30265476  0.08777667  1  -1.173814  0  -0.353453  -0.58469  0  2.372027  0
O  O174  1  0.80265666  0.27691662  0.58777880  1  -1.174183  0  -0.353427  -0.584675  0  2.372089  0
O  O175  1  0.27691700  0.80265822  0.41222141  1  -1.174162  0  -0.353423  -0.584689  0  2.37206  0
O  O176  1  0.77984278  0.66490927  0.06486331  1  -1.176804  0  -0.354077  -0.586363  0  2.390172  0
O  O177  1  0.66491540  0.77984592  0.93514122  1  -1.176692  0  -0.354184  -0.586456  0  2.390308  0
O  O178  1  0.27984467  0.16491087  0.43513848  1  -1.176684  0  -0.354161  -0.586495  0  2.390267  0
O  O179  1  0.16490611  0.27984620  0.56486198  1  -1.176627  0  -0.354046  -0.586362  0  2.390237  0
O  O180  1  0.10597708  0.69679692  0.98480401  1  -1.147838  0  -0.325721  -0.5239  0  2.100868  0
O  O181  1  0.69679677  0.10597491  0.01519692  1  -1.147924  0  -0.32568  -0.523847  0  2.100795  0
O  O182  1  0.60597326  0.19679539  0.51519518  1  -1.147876  0  -0.32575  -0.523944  0  2.101012  0
O  O183  1  0.19679990  0.60597917  0.48480247  1  -1.147695  0  -0.3257  -0.523848  0  2.100804  0
O  O184  1  0.24123256  0.73500619  0.80370410  1  -1.177488  0  -0.303097  -0.524173  0  2.177348  0
O  O185  1  0.73500316  0.24123510  0.19629870  1  -1.176768  0  -0.303082  -0.524184  0  2.177286  0
O  O186  1  0.74123055  0.23500700  0.69629973  1  -1.177217  0  -0.303111  -0.524208  0  2.177166  0
O  O187  1  0.23500383  0.74123019  0.30370143  1  -1.176792  0  -0.303149  -0.524282  0  2.177111  0
O  O188  1  0.73476490  0.74525802  0.16447792  1  -1.176465  0  -0.304281  -0.525595  0  2.171457  0
O  O189  1  0.74525878  0.73476625  0.83552228  1  -1.176417  0  -0.304293  -0.525649  0  2.171345  0
O  O190  1  0.23476518  0.24525877  0.33552222  1  -1.176422  0  -0.304319  -0.52569  0  2.171279  0
O  O191  1  0.24525109  0.23477148  0.66448101  1  -1.176342  0  -0.304335  -0.525734  0  2.171114  0
