# generated using pymatgen
data_CuH22C17BrNO3
_symmetry_space_group_name_H-M   'P 1'
_cell_length_a   7.27666760
_cell_length_b   11.46565527
_cell_length_c   11.68103217
_cell_angle_alpha   112.94804685
_cell_angle_beta   90.00054654
_cell_angle_gamma   90.00047199
_symmetry_Int_Tables_number   1
_chemical_formula_structural   CuH22C17BrNO3
_chemical_formula_sum   'Cu2 H44 C34 Br2 N2 O6'
_cell_volume   897.44050212
_cell_formula_units_Z   2
loop_
 _symmetry_equiv_pos_site_id
 _symmetry_equiv_pos_as_xyz
  1  'x, y, z'
loop_
 _atom_site_type_symbol
 _atom_site_label
 _atom_site_symmetry_multiplicity
 _atom_site_fract_x
 _atom_site_fract_y
 _atom_site_fract_z
 _atom_site_occupancy
 _atom_site_hle17_ddec_charge
 _atom_site_hle17_ddec_spin_density
 _atom_site_hle17_ddec_sum_bond_order
 _atom_site_hle17_magmom
 _atom_site_hse06_10hf_ddec_charge
 _atom_site_hse06_10hf_ddec_spin_density
 _atom_site_hse06_10hf_ddec_sum_bond_order
 _atom_site_hse06_10hf_magmom
 _atom_site_hse06_ddec_charge
 _atom_site_hse06_ddec_spin_density
 _atom_site_hse06_ddec_sum_bond_order
 _atom_site_hse06_magmom
 _atom_site_pbe_cm5_charge
 _atom_site_pbe_ddec_charge
 _atom_site_pbe_ddec_spin_density
 _atom_site_pbe_ddec_sum_bond_order
 _atom_site_pbe_magmom
Cu  Cu0  1  0.12446839  0.64090119  0.08267300  1  0.883476  -0.701166  1.790812  -0.489  0.865965  -0.784751  2.187667  -0.6  0.95907  -0.863986  2.111236  -0.685  0.745666  0.807509  -0.725416  2.243027  -0.542
Cu  Cu1  1  0.62446009  0.35910392  0.91732716  1  0.883579  0.701147  1.790703  0.489  0.865873  0.784739  2.187689  0.6  0.959152  0.863997  2.111146  0.685  0.745639  0.807534  0.725406  2.242891  0.542
H  H2  1  0.84228852  0.21736776  0.59311628  1  0.064843  0.008205  0.960627  0.01  0.074908  0.005221  1.030749  0.006  0.075085  0.003817  1.02746  0.005  0.110709  0.074455  0.006196  1.033311  0.007
H  H3  1  0.34228581  0.78265067  0.40688860  1  0.064862  -0.0082  0.960678  -0.01  0.074919  -0.005217  1.030775  -0.006  0.075096  -0.003814  1.027489  -0.005  0.11067  0.074466  -0.006191  1.033341  -0.007
H  H4  1  0.82920899  0.00181935  0.50161393  1  0.104023  0.000452  0.984397  0.0  0.10971  0.000268  1.056398  0.0  0.111249  0.000168  1.057273  0.0  0.098583  0.108609  0.000365  1.05582  0.0
H  H5  1  0.32919539  0.99819607  0.49839571  1  0.104095  -0.000452  0.984285  0.0  0.109753  -0.000268  1.056354  0.0  0.111292  -0.000168  1.05723  0.0  0.098583  0.108649  -0.000365  1.055778  0.0
H  H6  1  0.43301717  0.78935942  0.61403726  1  0.097499  0.000694  0.976355  0.001  0.105693  0.000327  1.04731  0.0  0.108129  0.000197  1.045405  0.0  0.099963  0.103876  0.00044  1.048792  0.001
H  H7  1  0.93299599  0.21064847  0.38595979  1  0.097438  -0.000696  0.976231  -0.001  0.105641  -0.000326  1.047187  0.0  0.108058  -0.000197  1.045326  0.0  0.099928  0.103834  -0.00044  1.048635  -0.001
H  H8  1  0.05681950  0.85774301  0.81646974  1  0.108522  1.5e-05  0.956759  0.0  0.133116  1.4e-05  1.011956  0.0  0.134078  6e-06  1.013065  0.0  0.092876  0.132329  2.1e-05  1.011285  0.0
H  H9  1  0.55681354  0.14224070  0.18351573  1  0.108428  -1.4e-05  0.956809  0.0  0.133137  -1.3e-05  1.011894  0.0  0.134108  -6e-06  1.012997  0.0  0.092854  0.132348  -2.1e-05  1.011225  0.0
H  H10  1  0.26619048  0.77875704  0.75999896  1  0.091929  -6e-06  0.969295  0.0  0.111995  1e-05  1.032745  0.0  0.112905  8e-06  1.033005  0.0  0.082896  0.111204  1.3e-05  1.032709  0.0
H  H11  1  0.76619193  0.22122669  0.23998003  1  0.091889  5e-06  0.969173  0.0  0.111984  -1e-05  1.032607  0.0  0.112897  -8e-06  1.032864  0.0  0.082921  0.111195  -1.3e-05  1.032565  0.0
H  H12  1  0.12443010  0.82763887  0.66175494  1  0.093649  -3.1e-05  0.954925  0.0  0.115587  -2.1e-05  1.016522  0.0  0.116374  -1.6e-05  1.017472  0.0  0.082274  0.115067  -2.6e-05  1.015782  0.0
H  H13  1  0.62441730  0.17236442  0.33823252  1  0.093768  3e-05  0.954822  0.0  0.115691  2.3e-05  1.016435  0.0  0.116473  1.6e-05  1.01739  0.0  0.082302  0.115169  2.6e-05  1.0157  0.0
H  H14  1  0.07210894  0.05998349  0.71206063  1  0.089922  -1.5e-05  0.972771  0.0  0.108719  1e-06  1.042331  0.0  0.108753  -5e-06  1.044532  0.0  0.074862  0.108748  8e-06  1.040703  0.0
H  H15  1  0.57209166  0.94001352  0.28794549  1  0.089966  1.6e-05  0.972661  0.0  0.108721  -0.0  1.042251  0.0  0.108753  5e-06  1.044453  0.0  0.074861  0.108746  -8e-06  1.040634  0.0
H  H16  1  0.17665034  0.17890919  0.84401799  1  0.117573  0.000271  0.966537  0.0  0.134248  0.000171  1.030023  0.0  0.136938  8.4e-05  1.028865  0.0  0.084215  0.132303  0.000259  1.030911  0.0
H  H17  1  0.67662811  0.82108015  0.15599691  1  0.117489  -0.000271  0.966706  0.0  0.134192  -0.00017  1.030149  0.0  0.136883  -8.4e-05  1.028989  0.0  0.084136  0.132245  -0.000259  1.031041  0.0
H  H18  1  0.00485553  0.07729206  0.86376568  1  0.097445  2.1e-05  0.954364  0.0  0.119751  -3.1e-05  1.01491  0.0  0.120161  -4e-05  1.01608  0.0  0.084144  0.119274  -1.5e-05  1.014344  0.0
H  H19  1  0.50483157  0.92268728  0.13623747  1  0.097409  -2.1e-05  0.95432  0.0  0.119724  3.2e-05  1.014849  0.0  0.120133  4e-05  1.016019  0.0  0.084132  0.119254  1.5e-05  1.014278  0.0
H  H20  1  0.40176770  0.10491718  0.98123774  1  0.11527  0.000356  0.971978  0.0  0.133227  0.000237  1.035516  0.0  0.135856  0.000115  1.034343  0.0  0.087836  0.131342  0.000363  1.036374  0.0
H  H21  1  0.90174294  0.89506001  0.01876519  1  0.115241  -0.000356  0.971892  0.0  0.133236  -0.000237  1.035376  0.0  0.135865  -0.000115  1.034207  0.0  0.087844  0.131355  -0.000363  1.036234  0.0
H  H22  1  0.43401562  0.93913142  0.93964338  1  0.09411  9e-06  0.962801  0.0  0.115022  2.5e-05  1.025319  0.0  0.115661  1.2e-05  1.026189  0.0  0.08337  0.11447  3.5e-05  1.024821  0.0
H  H23  1  0.93399570  0.06084515  0.06035265  1  0.094237  -9e-06  0.962748  0.0  0.115132  -2.3e-05  1.025265  0.0  0.115779  -1.2e-05  1.026126  0.0  0.083437  0.114582  -3.5e-05  1.024765  0.0
H  H24  1  0.21876311  0.00963547  0.99893209  1  0.099101  7e-05  0.965131  0.0  0.120716  4e-05  1.027533  0.0  0.12128  1.9e-05  1.028758  0.0  0.085516  0.120229  6.1e-05  1.026768  0.0
H  H25  1  0.71875032  0.99034771  0.00106524  1  0.099036  -7e-05  0.965244  0.0  0.120656  -3.9e-05  1.027618  0.0  0.121219  -2e-05  1.028845  0.0  0.085496  0.120168  -6.1e-05  1.02685  0.0
H  H26  1  0.58788703  0.36422140  0.55653254  1  0.087537  -8.1e-05  0.999845  0.0  0.103885  -4.1e-05  1.072631  0.0  0.105352  -4e-05  1.072879  0.0  0.073439  0.102892  -4.2e-05  1.072374  0.0
H  H27  1  0.08792557  0.63577954  0.44347520  1  0.087623  8.1e-05  0.999889  0.0  0.103919  4.1e-05  1.072746  0.0  0.105386  3.9e-05  1.072994  0.0  0.073413  0.102922  4.2e-05  1.072492  0.0
H  H28  1  0.79174149  0.42968288  0.52049670  1  0.091816  7e-06  0.960842  0.0  0.112723  1e-05  1.026687  0.0  0.114005  7e-06  1.026533  0.0  0.081025  0.111729  1.1e-05  1.026882  0.0
H  H29  1  0.29179621  0.57032376  0.47949818  1  0.091881  -6e-06  0.96085  0.0  0.112813  -8e-06  1.02661  0.0  0.114097  -7e-06  1.026443  0.0  0.081113  0.111823  -1.1e-05  1.026806  0.0
H  H30  1  0.57828039  0.50864034  0.53507757  1  0.094784  -3.5e-05  0.967956  0.0  0.114852  -1.4e-05  1.034936  0.0  0.116265  -1e-05  1.034819  0.0  0.082412  0.11372  -1.9e-05  1.035163  0.0
H  H31  1  0.07833798  0.49135954  0.46493313  1  0.094941  3.5e-05  0.967917  0.0  0.114979  1.5e-05  1.034895  0.0  0.116386  9e-06  1.034782  0.0  0.082449  0.11386  1.9e-05  1.035109  0.0
H  H32  1  0.94703367  0.42040232  0.69945433  1  0.066291  0.002459  0.962436  0.003  0.07351  0.001972  1.031956  0.002  0.076048  0.001549  1.030074  0.002  0.102246  0.071515  0.002235  1.033489  0.002
H  H33  1  0.44705277  0.57960478  0.30053821  1  0.066342  -0.002461  0.962411  -0.003  0.073489  -0.001973  1.032021  -0.002  0.076027  -0.00155  1.030147  -0.002  0.102263  0.071497  -0.002236  1.033555  -0.002
H  H34  1  0.42870464  0.61664508  0.74578172  1  0.100276  1.6e-05  0.958692  0.0  0.127121  1.1e-05  1.013703  0.0  0.128928  7e-06  1.013384  0.0  0.086278  0.125817  1.4e-05  1.013991  0.0
H  H35  1  0.92871255  0.38336265  0.25423493  1  0.100251  -1.5e-05  0.958666  0.0  0.127124  -9e-06  1.013664  0.0  0.128929  -7e-06  1.013343  0.0  0.086289  0.125823  -1.4e-05  1.013947  0.0
H  H36  1  0.53872174  0.62085733  0.88278808  1  0.109306  -2.9e-05  0.941934  0.0  0.130941  -4e-06  1.001167  0.0  0.131924  -1e-05  1.001727  0.0  0.089762  0.129952  3e-06  1.001166  0.0
H  H37  1  0.03870379  0.37915645  0.11722092  1  0.109386  2.9e-05  0.941739  0.0  0.130993  5e-06  1.001013  0.0  0.131983  1e-05  1.001558  0.0  0.089809  0.130003  -3e-06  1.00101  0.0
H  H38  1  0.43888309  0.47814589  0.77798183  1  0.099394  -9.9e-05  0.971301  0.0  0.112271  -5.3e-05  1.049717  0.0  0.114176  -9.8e-05  1.048153  0.0  0.079023  0.110675  -3e-06  1.051161  0.0
H  H39  1  0.93888269  0.52186095  0.22203882  1  0.099391  9.9e-05  0.971355  0.0  0.112303  5.5e-05  1.049716  0.0  0.114209  9.8e-05  1.048146  0.0  0.079089  0.110708  3e-06  1.051154  0.0
H  H40  1  0.71802123  0.70448142  0.68355109  1  0.092971  6e-06  0.978282  0.0  0.112589  9e-06  1.046672  0.0  0.113087  -0.0  1.048116  0.0  0.079361  0.11226  1.4e-05  1.045645  0.0
H  H41  1  0.21804924  0.29552646  0.31644299  1  0.093021  -7e-06  0.978302  0.0  0.112631  -8e-06  1.046708  0.0  0.113133  -0.0  1.048147  0.0  0.079351  0.112305  -1.4e-05  1.045683  0.0
H  H42  1  0.93429006  0.63179642  0.68068859  1  0.104678  1e-06  0.949816  0.0  0.129324  3.3e-05  1.006246  0.0  0.130423  2.3e-05  1.006843  0.0  0.087664  0.128483  4.4e-05  1.005912  0.0
H  H43  1  0.43431768  0.36820682  0.31929467  1  0.104615  -1e-06  0.949868  0.0  0.129231  -3.3e-05  1.006332  0.0  0.130329  -2.3e-05  1.006928  0.0  0.087667  0.128394  -4.4e-05  1.005994  0.0
H  H44  1  0.82111902  0.71290146  0.82445744  1  0.10842  -5.1e-05  0.960319  0.0  0.129268  -4e-05  1.019465  0.0  0.130935  -2.4e-05  1.019295  0.0  0.089173  0.127982  -5.3e-05  1.019663  0.0
H  H45  1  0.32112000  0.28710075  0.17552904  1  0.108464  5e-05  0.960289  0.0  0.129301  4e-05  1.019434  0.0  0.13097  2.4e-05  1.01926  0.0  0.089226  0.128015  5.3e-05  1.019624  0.0
C  C46  1  0.52933807  0.10628187  0.75154087  1  0.306424  -0.003699  3.788239  -0.008  0.290625  0.00116  4.052415  -0.002  0.313785  2.8e-05  4.068383  -0.002  0.101902  0.275332  0.00224  4.041231  -0.002
C  C47  1  0.02933437  0.89372236  0.24846352  1  0.306393  0.003719  3.78833  0.008  0.290517  -0.00116  4.052578  0.002  0.313679  -2.7e-05  4.068536  0.002  0.101832  0.275226  -0.002238  4.041388  0.002
C  C48  1  0.66576250  0.10991142  0.66370986  1  -0.107066  0.006921  3.823068  0.01  -0.092732  0.003552  4.071394  0.006  -0.110255  0.002252  4.099036  0.004  -0.037733  -0.08134  0.004619  4.052818  0.007
C  C49  1  0.16576148  0.89009219  0.33628567  1  -0.107355  -0.006933  3.82347  -0.01  -0.092956  -0.003547  4.071758  -0.006  -0.11048  -0.002248  4.099391  -0.004  -0.037784  -0.081567  -0.004615  4.05319  -0.007
C  C50  1  0.75163229  0.22491729  0.67080279  1  0.1723  -0.016079  3.705119  -0.017  0.131577  -0.004708  3.967161  -0.006  0.155793  -0.00584  3.976737  -0.007  0.075864  0.115502  -0.003569  3.96104  -0.005
C  C51  1  0.25165027  0.77509939  0.32919917  1  0.17221  0.016109  3.704504  0.017  0.131601  0.004711  3.966524  0.006  0.155814  0.005843  3.976086  0.007  0.075908  0.115527  0.003573  3.9604  0.005
C  C52  1  0.72261500  0.99736324  0.56533781  1  -0.133116  -0.004124  3.786154  -0.004  -0.163768  -0.001428  4.040232  -0.001  -0.159608  -0.001429  4.061421  -0.002  -0.099254  -0.166213  -0.001375  4.025837  -0.001
C  C53  1  0.22260389  0.00264842  0.43466632  1  -0.132986  0.00416  3.785755  0.004  -0.163666  0.00143  4.039871  0.001  -0.159508  0.00143  4.061063  0.002  -0.099161  -0.166099  0.001376  4.025468  0.001
C  C54  1  0.64400263  0.88410139  0.55305110  1  0.047749  -0.000679  3.788638  0.0  0.060907  -0.000884  4.066086  -0.001  0.058937  -0.000581  4.088691  0.0  -0.040911  0.06184  -0.001134  4.050929  -0.001
C  C55  1  0.14398769  0.11590677  0.44694436  1  0.047706  0.000652  3.788756  0.0  0.060864  0.000884  4.06624  0.001  0.058898  0.00058  4.088839  0.0  -0.04101  0.061787  0.001134  4.051095  0.001
C  C56  1  0.26918532  0.98430143  0.80671359  1  0.228018  -0.000191  3.571804  -0.001  0.265501  -3e-05  3.786544  0.0  0.267709  -6.7e-05  3.805203  0.0  -0.010663  0.26404  3.9e-05  3.773666  0.0
C  C57  1  0.76916686  0.01568505  0.19328361  1  0.228143  0.000192  3.571541  0.001  0.265136  3.2e-05  3.787091  0.0  0.26737  6.6e-05  3.805707  0.0  -0.010683  0.263676  -3.9e-05  3.774219  0.0
C  C58  1  0.49811499  0.88003294  0.63062866  1  -0.148375  -0.004359  3.789166  -0.003  -0.181717  -0.001243  4.045734  -0.001  -0.179694  -0.001404  4.065745  -0.001  -0.099492  -0.182927  -0.001124  4.032482  0.0
C  C59  1  0.99810749  0.11996417  0.36936288  1  -0.148303  0.004391  3.789473  0.003  -0.18164  0.001247  4.045984  0.001  -0.179613  0.001404  4.065997  0.001  -0.099423  -0.182842  0.001125  4.032735  0.0
C  C60  1  0.43370921  0.98858598  0.72652576  1  -0.054216  0.013967  3.587307  0.016  -0.031372  0.007596  3.808293  0.009  -0.039119  0.005474  3.832039  0.007  -0.009899  -0.026551  0.009157  3.792498  0.011
C  C61  1  0.93369881  0.01141618  0.27347763  1  -0.054158  -0.013995  3.58752  -0.016  -0.031141  -0.007594  3.808494  -0.009  -0.038891  -0.005472  3.832231  -0.007  -0.009855  -0.026327  -0.009156  3.792705  -0.011
C  C62  1  0.17541726  0.85424414  0.75724204  1  -0.340325  0.000369  3.6745  0.0  -0.418841  9.2e-05  3.906413  0.0  -0.422233  7e-06  3.918329  0.0  -0.24388  -0.416175  0.000219  3.898153  0.0
C  C63  1  0.67540952  0.14574723  0.24275052  1  -0.340351  -0.000368  3.67419  0.0  -0.418861  -9.6e-05  3.906203  0.0  -0.422259  -7e-06  3.918118  0.0  -0.243922  -0.416194  -0.000219  3.89794  0.0
C  C64  1  0.12279510  0.08210240  0.80683224  1  -0.347332  0.000711  3.650644  0.001  -0.426574  0.000435  3.882588  0.0  -0.429824  0.000239  3.893266  0.0  -0.251741  -0.424054  0.000625  3.875169  0.001
C  C65  1  0.62278020  0.91788177  0.19317348  1  -0.347246  -0.000713  3.650665  -0.001  -0.426366  -0.000439  3.882695  0.0  -0.429622  -0.000238  3.893369  0.0  -0.251612  -0.423843  -0.000625  3.875289  -0.001
C  C66  1  0.33548231  0.01196758  0.94023603  1  -0.347929  0.000966  3.648416  0.001  -0.42752  0.000608  3.882105  0.001  -0.430923  0.000344  3.892155  0.0  -0.247403  -0.42484  0.000873  3.875136  0.001
C  C67  1  0.83546490  0.98801189  0.05976397  1  -0.348019  -0.000966  3.648439  -0.001  -0.427521  -0.000615  3.882235  -0.001  -0.430934  -0.000344  3.89228  0.0  -0.247473  -0.424844  -0.000874  3.87526  -0.001
C  C68  1  0.66220748  0.45264514  0.57321439  1  -0.341581  -7.1e-05  3.673251  0.0  -0.420719  5.7e-05  3.905586  0.0  -0.424136  4.3e-05  3.917193  0.0  -0.249692  -0.41796  6.5e-05  3.897348  0.0
C  C69  1  0.16224459  0.54735458  0.42679074  1  -0.341867  6.6e-05  3.67348  0.0  -0.420895  -6.1e-05  3.905711  0.0  -0.424296  -4.2e-05  3.917308  0.0  -0.249764  -0.418146  -6.6e-05  3.89747  0.0
C  C70  1  0.82538935  0.44733499  0.76025621  1  -0.055871  0.000602  3.603282  -0.001  -0.069511  0.001267  3.824848  0.0  -0.072063  0.000614  3.84091  -0.001  0.00693  -0.067434  0.001647  3.813935  0.0
C  C71  1  0.32539754  0.55267098  0.23974118  1  -0.05571  -0.000602  3.603233  0.001  -0.069318  -0.001267  3.824906  0.0  -0.071884  -0.000616  3.840993  0.001  0.007067  -0.067243  -0.001648  3.813994  0.0
C  C72  1  0.69815270  0.52938868  0.71182636  1  0.220752  0.000569  3.554125  0.001  0.25995  0.00039  3.777647  0.0  0.260197  0.000418  3.798709  0.0  -0.012141  0.259828  0.00036  3.763007  0.0
C  C73  1  0.19817156  0.47061709  0.28817363  1  0.220732  -0.000571  3.554474  -0.001  0.259912  -0.000387  3.778146  0.0  0.26016  -0.000419  3.79921  0.0  -0.012143  0.25979  -0.00036  3.763509  0.0
C  C74  1  0.51651263  0.56244317  0.78380601  1  -0.344  -2.1e-05  3.661706  0.0  -0.427905  7.5e-05  3.900829  0.0  -0.430996  -2.4e-05  3.91138  0.0  -0.248422  -0.425393  0.000176  3.893665  0.0
C  C75  1  0.01651621  0.43756660  0.21620645  1  -0.34414  1.9e-05  3.66172  0.0  -0.42804  -8.1e-05  3.900829  0.0  -0.431146  2.5e-05  3.91141  0.0  -0.248612  -0.425536  -0.000176  3.893697  0.0
C  C76  1  0.79944036  0.65157356  0.72649823  1  -0.345234  0.000368  3.664275  0.0  -0.425868  0.000132  3.89739  0.0  -0.42911  6.6e-05  3.908721  0.0  -0.248037  -0.42335  0.000189  3.88946  0.0
C  C77  1  0.29945602  0.34842843  0.27349146  1  -0.345304  -0.000362  3.664473  0.0  -0.425888  -0.000135  3.897534  0.0  -0.429132  -6.6e-05  3.908865  0.0  -0.248102  -0.423367  -0.00019  3.889605  0.0
C  C78  1  0.89081365  0.51927088  0.89361322  1  0.64902  8.1e-05  3.801022  0.001  0.60981  0.000439  4.093156  0.001  0.647792  0.000591  4.087974  0.001  0.216918  0.584265  0.000235  4.095257  0.001
C  C79  1  0.39080785  0.48073188  0.10638331  1  0.648725  -8e-05  3.801473  -0.001  0.609632  -0.000446  4.093439  -0.001  0.647617  -0.000593  4.088257  -0.001  0.216838  0.584083  -0.000237  4.095555  -0.001
Br  Br80  1  0.73143765  0.73090559  0.42609679  1  -0.043887  -0.000638  1.310592  0.0  -0.028267  -0.000826  1.569563  -0.001  -0.034249  -0.00052  1.563475  0.0  0.071913  -0.024134  -0.001103  1.574045  -0.001
Br  Br81  1  0.23142393  0.26909853  0.57391131  1  -0.043889  0.000639  1.310619  0.0  -0.028268  0.000831  1.569594  0.001  -0.034253  0.000521  1.563509  0.0  0.071931  -0.024139  0.001105  1.574087  0.001
N  N82  1  0.73227456  0.33501228  0.76076094  1  -0.352291  0.101477  3.356329  0.124  -0.310184  0.067869  3.669088  0.088  -0.346767  0.057822  3.6876  0.079  -0.389309  -0.2887  0.072058  3.658924  0.09
N  N83  1  0.23229109  0.66498816  0.23922947  1  -0.352097  -0.101517  3.355413  -0.124  -0.310249  -0.067873  3.668457  -0.088  -0.34678  -0.057831  3.686933  -0.079  -0.389413  -0.288734  -0.072061  3.658294  -0.09
O  O84  1  0.02855694  0.59192060  0.91244614  1  -0.543763  -0.046363  2.032375  -0.06  -0.50114  -0.032851  2.28671  -0.046  -0.538016  -0.028786  2.274037  -0.043  -0.309583  -0.475638  -0.034144  2.29485  -0.047
O  O85  1  0.52855848  0.40808931  0.08756130  1  -0.543714  0.046379  2.03246  0.06  -0.501087  0.03286  2.286712  0.046  -0.53801  0.02879  2.274065  0.043  -0.309567  -0.475602  0.034151  2.294843  0.047
O  O86  1  0.48780262  0.20433700  0.85189956  1  -0.529088  0.120551  2.147339  0.157  -0.512354  0.075683  2.444925  0.108  -0.559179  0.057517  2.44198  0.087  -0.319634  -0.481988  0.086853  2.447675  0.119
O  O87  1  0.98780741  0.79566190  0.14809518  1  -0.529017  -0.120576  2.14717  -0.157  -0.512321  -0.075697  2.444785  -0.108  -0.559098  -0.057535  2.441827  -0.087  -0.319577  -0.481921  -0.086869  2.447544  -0.119
O  O88  1  0.80539736  0.50110808  0.98118328  1  -0.603132  0.068303  2.039884  0.088  -0.575017  0.051596  2.316702  0.072  -0.614825  0.042647  2.302757  0.062  -0.319013  -0.548632  0.056678  2.326663  0.076
O  O89  1  0.30537946  0.49888154  0.01881963  1  -0.602994  -0.068286  2.040194  -0.087  -0.574909  -0.051589  2.316896  -0.072  -0.614685  -0.042643  2.302954  -0.062  -0.318965  -0.548501  -0.05667  2.326874  -0.076
