# generated using pymatgen
data_CsH19C22Br(NO)3
_symmetry_space_group_name_H-M   'P 1'
_cell_length_a   8.05686357
_cell_length_b   11.47004735
_cell_length_c   14.61901481
_cell_angle_alpha   106.30063530
_cell_angle_beta   102.77748566
_cell_angle_gamma   99.23122173
_symmetry_Int_Tables_number   1
_chemical_formula_structural   CsH19C22Br(NO)3
_chemical_formula_sum   'Cs2 H38 C44 Br2 N6 O6'
_cell_volume   1228.32021833
_cell_formula_units_Z   2
loop_
 _symmetry_equiv_pos_site_id
 _symmetry_equiv_pos_as_xyz
  1  'x, y, z'
loop_
 _atom_site_type_symbol
 _atom_site_label
 _atom_site_symmetry_multiplicity
 _atom_site_fract_x
 _atom_site_fract_y
 _atom_site_fract_z
 _atom_site_occupancy
 _atom_site_hle17_bader_spin_density
 _atom_site_hle17_ddec_charge
 _atom_site_hle17_ddec_spin_density
 _atom_site_hle17_ddec_sum_bond_order
 _atom_site_hle17_magmom
 _atom_site_hse06_10hf_bader_spin_density
 _atom_site_hse06_10hf_ddec_charge
 _atom_site_hse06_10hf_ddec_spin_density
 _atom_site_hse06_10hf_ddec_sum_bond_order
 _atom_site_hse06_10hf_magmom
 _atom_site_hse06_bader_spin_density
 _atom_site_hse06_ddec_charge
 _atom_site_hse06_ddec_spin_density
 _atom_site_hse06_ddec_sum_bond_order
 _atom_site_hse06_magmom
 _atom_site_pbe_bader_spin_density
 _atom_site_pbe_cm5_charge
 _atom_site_pbe_ddec_charge
 _atom_site_pbe_ddec_spin_density
 _atom_site_pbe_ddec_sum_bond_order
 _atom_site_pbe_magmom
Cs  Cs0  1  0.35438644  0.49234851  0.36943200  1  0  0.92917  0  0.570844  0  0  0.871772  0  0.801779  0  0  0.883576  0  0.784082  0  0  0.893861  0.863105  0  0.81427  0
Cs  Cs1  1  0.64561391  0.50765044  0.63057067  1  0  0.929196  0  0.570809  0  0  0.871803  0  0.801734  0  0  0.883606  0  0.784039  0  0  0.893848  0.863122  0  0.814246  0
H  H2  1  0.23885725  0.54633391  0.79587158  1  0  0.112431  0  0.958518  0  0  0.121378  0  1.020224  0  0  0.124869  0  1.018329  0  0  0.101195  0.118791  0  1.021793  0
H  H3  1  0.76114239  0.45366690  0.20412731  1  0  0.112399  0  0.958578  0  0  0.121356  0  1.020276  0  0  0.124846  0  1.018382  0  0  0.101196  0.118769  0  1.021844  0
H  H4  1  0.13391201  0.99046546  0.42694641  1  0  0.122841  0  0.937337  0  0  0.133673  0  1.001563  0  0  0.137097  0  0.999094  0  0  0.108185  0.131183  0  1.003468  0
H  H5  1  0.86608349  0.00953442  0.57305110  1  0  0.122843  0  0.937304  0  0  0.133671  0  1.001541  0  0  0.137094  0  0.999077  0  0  0.108184  0.131186  0  1.003445  0
H  H6  1  0.28272588  0.03969630  0.36517710  1  0  0.115024  0  0.940642  0  0  0.132689  0  0.995302  0  0  0.134921  0  0.994516  0  0  0.106818  0.131071  0  0.996015  0
H  H7  1  0.71727250  0.96030452  0.63482301  1  0  0.11504  0  0.940631  0  0  0.132688  0  0.995305  0  0  0.134951  0  0.994484  0  0  0.10683  0.131074  0  0.996024  0
H  H8  1  0.95614817  0.15679604  0.08135590  1  0  0.109359  0  0.940491  0  0  0.118247  0  1.001469  0  0  0.121632  0  0.99943  0  0  0.106266  0.115817  0  1.003017  0
H  H9  1  0.04385494  0.84320757  0.91864333  1  0  0.10936  0  0.940523  0  0  0.118249  0  1.001492  0  0  0.121635  0  0.999453  0  0  0.106251  0.115819  0  1.00304  0
H  H10  1  0.65822348  0.37215832  0.88053461  1  0  0.090628  0  0.952082  0  0  0.103729  0  1.007445  0  0  0.106794  0  1.006194  0  0  0.096675  0.101497  0  1.008509  0
H  H11  1  0.34177683  0.62784062  0.11946600  1  0  0.090633  0  0.952072  0  0  0.103738  0  1.007432  0  0  0.106801  0  1.006183  0  0  0.09669  0.101506  0  1.008495  0
H  H12  1  0.01725139  0.44974060  0.64933127  1  0  0.100403  0  0.992512  0  0  0.120099  0  1.058314  0  0  0.121982  0  1.05758  0  0  0.087365  0.118697  0  1.058859  0
H  H13  1  0.98274828  0.55025647  0.35066817  1  0  0.100429  0  0.992544  0  0  0.120123  0  1.058338  0  0  0.122006  0  1.057605  0  0  0.087395  0.118721  0  1.058884  0
H  H14  1  0.97651495  0.28331018  0.59015586  1  0  0.107384  0  0.949211  0  0  0.125978  0  1.014523  0  0  0.127535  0  1.014073  0  0  0.090061  0.124751  0  1.014951  0
H  H15  1  0.02348475  0.71668690  0.40984564  1  0  0.107405  0  0.949177  0  0  0.125994  0  1.014492  0  0  0.127551  0  1.014043  0  0  0.090062  0.124768  0  1.01492  0
H  H16  1  0.10131764  0.38799454  0.54859485  1  0  0.116802  0  0.963134  0  0  0.13646  0  1.027596  0  0  0.137473  0  1.028538  0  0  0.098324  0.135727  0  1.026872  0
H  H17  1  0.89868076  0.61200253  0.45140376  1  0  0.116798  0  0.963132  0  0  0.136445  0  1.027595  0  0  0.137459  0  1.028535  0  0  0.09832  0.135712  0  1.026871  0
H  H18  1  0.50785548  0.54588323  0.91934724  1  0  0.087562  0  0.957618  0  0  0.097166  0  1.019754  0  0  0.099863  0  1.018634  0  0  0.09437  0.095206  0  1.02066  0
H  H19  1  0.49214512  0.45411664  0.08065156  1  0  0.087547  0  0.95761  0  0  0.097152  0  1.019748  0  0  0.099847  0  1.018628  0  0  0.094366  0.095192  0  1.020654  0
H  H20  1  0.82719579  0.93506574  0.18592031  1  0  0.110249  0  0.963417  0  0  0.124531  0  1.036595  0  0  0.126742  0  1.035526  0  0  0.085942  0.122945  0  1.037321  0
H  H21  1  0.17280698  0.06493693  0.81407594  1  0  0.110267  0  0.963389  0  0  0.124547  0  1.03657  0  0  0.126756  0  1.035503  0  0  0.085953  0.122961  0  1.037297  0
H  H22  1  0.90863385  0.86922283  0.27828294  1  0  0.120321  0  0.955268  0  0  0.142058  0  1.012557  0  0  0.143467  0  1.013361  0  0  0.094059  0.140998  0  1.012081  0
H  H23  1  0.09136479  0.13077891  0.72171330  1  0  0.120339  0  0.955244  0  0  0.142073  0  1.012545  0  0  0.14348  0  1.013355  0  0  0.094064  0.141008  0  1.012075  0
H  H24  1  0.04179814  0.90652097  0.20349484  1  0  0.105487  0  0.949408  0  0  0.12807  0  1.008794  0  0  0.12971  0  1.00841  0  0  0.089693  0.126859  0  1.009131  0
H  H25  1  0.95820623  0.09348263  0.79650317  1  0  0.105499  0  0.94938  0  0  0.128079  0  1.008767  0  0  0.129724  0  1.008378  0  0  0.089715  0.126869  0  1.009103  0
H  H26  1  0.58425157  0.14979663  0.18748263  1  0  0.101036  0  0.968682  0  0  0.107138  0  1.036754  0  0  0.109804  0  1.036093  0  0  0.098281  0.105229  0  1.037306  0
H  H27  1  0.41574947  0.85020046  0.81252313  1  0  0.10099  0  0.96863  0  0  0.10707  0  1.036736  0  0  0.109734  0  1.036079  0  0  0.098272  0.105163  0  1.037289  0
H  H28  1  0.40477454  0.15382711  0.30444907  1  0  0.111998  0  0.964421  0  0  0.122311  0  1.024153  0  0  0.125251  0  1.02264  0  0  0.111427  0.120124  0  1.025498  0
H  H29  1  0.59521943  0.84617559  0.69555436  1  0  0.11205  0  0.964378  0  0  0.122259  0  1.024231  0  0  0.125196  0  1.022722  0  0  0.111432  0.120076  0  1.025569  0
H  H30  1  0.14037295  0.16405722  0.96664161  1  0  0.102425  0  0.958594  0  0  0.115792  0  1.014094  0  0  0.118484  0  1.013083  0  0  0.102919  0.113854  0  1.014906  0
H  H31  1  0.85963403  0.83593890  0.03335780  1  0  0.102523  0  0.958417  0  0  0.115893  0  1.013919  0  0  0.118584  0  1.012909  0  0  0.102953  0.113954  0  1.014732  0
H  H32  1  0.60753853  0.16358313  0.64175965  1  0  0.110834  0  0.933892  0  0  0.133954  0  0.990592  0  0  0.135376  0  0.990181  0  0  0.097736  0.132917  0  0.990908  0
H  H33  1  0.39245926  0.83641207  0.35823984  1  0  0.110844  0  0.933937  0  0  0.133984  0  0.990604  0  0  0.135404  0  0.990198  0  0  0.097746  0.132947  0  0.990919  0
H  H34  1  0.48392462  0.07954777  0.69803813  1  0  0.117981  0  0.948057  0  0  0.137946  0  1.01097  0  0  0.139195  0  1.011082  0  0  0.092244  0.136932  0  1.011111  0
H  H35  1  0.51607316  0.92045118  0.30196287  1  0  0.118009  0  0.948066  0  0  0.137972  0  1.010985  0  0  0.139222  0  1.011098  0  0  0.092267  0.13696  0  1.01112  0
H  H36  1  0.68772250  0.18613387  0.77075093  1  0  0.101714  0  0.94894  0  0  0.124632  0  1.007863  0  0  0.125994  0  1.007408  0  0  0.088937  0.123625  0  1.008218  0
H  H37  1  0.31227432  0.81386227  0.22924796  1  0  0.101696  0  0.948958  0  0  0.124634  0  1.007861  0  0  0.126008  0  1.007393  0  0  0.088939  0.123627  0  1.008214  0
H  H38  1  0.22162750  0.08736385  0.57845653  1  0  0.298862  0  0.956286  0  0  0.276592  0  1.028674  0  0  0.285322  0  1.02183  0  0  0.296635  0.270442  0  1.033384  0
H  H39  1  0.77837281  0.91263509  0.42154339  1  0  0.298861  0  0.956294  0  0  0.276571  0  1.028698  0  0  0.285302  0  1.021852  0  0  0.296627  0.270425  0  1.033408  0
C  C40  1  0.88412264  0.11640446  0.36709941  1  0  0.356491  0  3.810721  0  0  0.330473  0  4.087062  0  0  0.353511  0  4.093582  0  0  0.129701  0.315192  0  4.081952  0
C  C41  1  0.11587475  0.88359728  0.63289805  1  0  0.356492  0  3.810616  0  0  0.330433  0  4.086963  0  0  0.353473  0  4.093482  0  0  0.129699  0.315155  0  4.081854  0
C  C42  1  0.32594699  0.27764469  0.66653118  1  0  0.093039  0  3.757256  0  0  0.080445  0  4.002226  0  0  0.08384  0  4.024832  0  0  0.067116  0.078057  0  3.987027  0
C  C43  1  0.67405204  0.72235425  0.33346791  1  0  0.093139  0  3.757116  0  0  0.080466  0  4.002178  0  0  0.08386  0  4.024785  0  0  0.067132  0.078084  0  3.986984  0
C  C44  1  0.86165574  0.22667165  0.34629783  1  0  -0.355729  0  3.909458  0  0  -0.341775  0  4.166981  0  0  -0.363069  0  4.185239  0  0  -0.06495  -0.32749  0  4.154285  0
C  C45  1  0.13834104  0.77332822  0.65369983  1  0  -0.355644  0  3.909294  0  0  -0.341751  0  4.166912  0  0  -0.363065  0  4.185192  0  0  -0.064963  -0.327471  0  4.154219  0
C  C46  1  0.76357292  0.30661605  0.38590548  1  0  0.387802  0  3.832178  0  0  0.371879  0  4.098319  0  0  0.389335  0  4.113493  0  0  0.195451  0.359951  0  4.088105  0
C  C47  1  0.23642072  0.69337822  0.61409195  1  0  0.387757  0  3.832348  0  0  0.371853  0  4.098488  0  0  0.389314  0  4.113655  0  0  0.195467  0.359928  0  4.088277  0
C  C48  1  0.16602490  0.15155833  0.19993693  1  0  0.19281  0  3.79241  0  0  0.186068  0  4.042272  0  0  0.19273  0  4.063991  0  0  0.083111  0.18141  0  4.027611  0
C  C49  1  0.83397695  0.84844903  0.80006503  1  0  0.192823  0  3.792509  0  0  0.186091  0  4.042383  0  0  0.192752  0  4.064104  0  0  0.083208  0.181434  0  4.027723  0
C  C50  1  0.96958190  0.25252196  0.28347574  1  0  0.513392  0  3.94298  0  0  0.461296  0  4.24076  0  0  0.492039  0  4.240745  0  0  0.205665  0.440623  0  4.240016  0
C  C51  1  0.03041487  0.74748166  0.71652411  1  0  0.513364  0  3.942849  0  0  0.461316  0  4.240604  0  0  0.49206  0  4.240587  0  0  0.205714  0.440646  0  4.239857  0
C  C52  1  0.02198852  0.06806713  0.31705749  1  0  0.213402  0  3.565123  0  0  0.218067  0  3.803722  0  0  0.221204  0  3.819511  0  0  0.088652  0.215881  0  3.792833  0
C  C53  1  0.97800950  0.93193649  0.68294114  1  0  0.213277  0  3.565238  0  0  0.218198  0  3.803449  0  0  0.221334  0  3.819238  0  0  0.088645  0.216014  0  3.79257  0
C  C54  1  0.23728333  0.37397693  0.68795038  1  0  0.078081  0  3.745049  0  0  0.100571  0  3.985396  0  0  0.100929  0  4.00908  0  0  -0.012648  0.100215  0  3.969479  0
C  C55  1  0.76271858  0.62602294  0.31205131  1  0  0.077983  0  3.745068  0  0  0.100504  0  3.985432  0  0  0.10086  0  4.009116  0  0  -0.012694  0.10015  0  3.96951  0
C  C56  1  0.25691421  0.18762738  0.48479287  1  0  0.615  0  3.771712  0  0  0.574864  0  4.059525  0  0  0.603994  0  4.057476  0  0  0.242192  0.555242  0  4.060299  0
C  C57  1  0.74308610  0.81237156  0.51520705  1  0  0.614821  0  3.771885  0  0  0.5747  0  4.059665  0  0  0.603825  0  4.057631  0  0  0.242108  0.555101  0  4.060424  0
C  C58  1  0.30581382  0.47062368  0.77966554  1  0  -0.143003  0  3.750761  0  0  -0.16298  0  3.996166  0  0  -0.167362  0  4.018631  0  0  -0.100821  -0.159992  0  3.981154  0
C  C59  1  0.69418995  0.52937806  0.22033404  1  0  -0.142976  0  3.750955  0  0  -0.162968  0  3.996356  0  0  -0.167349  0  4.018821  0  0  -0.10082  -0.159979  0  3.981342  0
C  C60  1  0.47754391  0.27514075  0.73544200  1  0  0.048014  0  3.793074  0  0  0.069647  0  4.038853  0  0  0.069002  0  4.064419  0  0  -0.027765  0.070054  0  4.021436  0
C  C61  1  0.52245607  0.72485725  0.26455700  1  0  0.048043  0  3.793098  0  0  0.069663  0  4.038934  0  0  0.069018  0  4.064503  0  0  -0.027738  0.070069  0  4.021513  0
C  C62  1  0.17914310  0.06547186  0.39887084  1  0  -0.318053  0  3.603636  0  0  -0.361771  0  3.841965  0  0  -0.367091  0  3.847745  0  0  -0.151995  -0.35805  0  3.837915  0
C  C63  1  0.82085560  0.93452989  0.60112882  1  0  -0.318055  0  3.603727  0  0  -0.361805  0  3.84198  0  0  -0.367147  0  3.847748  0  0  -0.152034  -0.358115  0  3.837965  0
C  C64  1  0.09352067  0.15497020  0.10436941  1  0  -0.117509  0  3.724187  0  0  -0.137408  0  3.974411  0  0  -0.139611  0  3.993221  0  0  -0.083931  -0.1359  0  3.961657  0
C  C65  1  0.90648343  0.84503247  0.89563110  1  0  -0.117438  0  3.72412  0  0  -0.137319  0  3.97435  0  0  -0.139523  0  3.993161  0  0  -0.083893  -0.135814  0  3.961604  0
C  C66  1  0.54082145  0.37264774  0.82653555  1  0  -0.165256  0  3.835957  0  0  -0.187623  0  4.089285  0  0  -0.191829  0  4.112178  0  0  -0.114185  -0.184738  0  4.07383  0
C  C67  1  0.45917854  0.62735027  0.17346413  1  0  -0.165247  0  3.835962  0  0  -0.187603  0  4.08929  0  0  -0.191808  0  4.112183  0  0  -0.1142  -0.184717  0  4.073833  0
C  C68  1  0.07315354  0.37338916  0.61526509  1  0  -0.34194  0  3.74404  0  0  -0.423294  0  3.980441  0  0  -0.4262  0  3.990688  0  0  -0.245901  -0.420891  0  3.973348  0
C  C69  1  0.92684774  0.62660885  0.38473543  1  0  -0.341915  0  3.743996  0  0  -0.423267  0  3.980412  0  0  -0.426172  0  3.990657  0  0  -0.245884  -0.420866  0  3.973322  0
C  C70  1  0.45630246  0.47002829  0.84845658  1  0  -0.076365  0  3.84338  0  0  -0.090803  0  4.100071  0  0  -0.09158  0  4.122433  0  0  -0.102526  -0.090212  0  4.084977  0
C  C71  1  0.54370100  0.52997252  0.15154345  1  0  -0.076346  0  3.843486  0  0  -0.090781  0  4.100171  0  0  -0.091556  0  4.122532  0  0  -0.102514  -0.090191  0  4.085079  0
C  C72  1  0.94483970  0.93660329  0.24149203  1  0  -0.347591  0  3.648981  0  0  -0.430987  0  3.888915  0  0  -0.433845  0  3.896818  0  0  -0.239769  -0.428715  0  3.883388  0
C  C73  1  0.05516211  0.06340031  0.75850500  1  0  -0.347612  0  3.648965  0  0  -0.431056  0  3.888832  0  0  -0.433919  0  3.896729  0  0  -0.239798  -0.428784  0  3.883311  0
C  C74  1  0.37239519  0.15662796  0.07030750  1  0  0.080794  0  3.753907  0  0  0.094621  0  4.022152  0  0  0.097297  0  4.044876  0  0  -0.02144  0.092549  0  4.007137  0
C  C75  1  0.62760995  0.84337005  0.92969689  1  0  0.080794  0  3.754081  0  0  0.094631  0  4.022323  0  0  0.097307  0  4.045047  0  0  -0.021424  0.09256  0  4.007308  0
C  C76  1  0.44631059  0.14998027  0.16376420  1  0  -0.116396  0  3.802536  0  0  -0.138378  0  4.05699  0  0  -0.140589  0  4.078649  0  0  -0.10113  -0.136914  0  4.042732  0
C  C77  1  0.55369294  0.85002055  0.83624062  1  0  -0.116198  0  3.802435  0  0  -0.138148  0  4.056855  0  0  -0.140357  0  4.078511  0  0  -0.101039  -0.136686  0  4.042604  0
C  C78  1  0.34322302  0.14904406  0.22892591  1  0  -0.149785  0  3.736718  0  0  -0.170664  0  3.990656  0  0  -0.17382  0  4.010789  0  0  -0.094599  -0.168584  0  3.977437  0
C  C79  1  0.65677571  0.85095770  0.77107650  1  0  -0.149953  0  3.736732  0  0  -0.170745  0  3.990674  0  0  -0.173899  0  4.010805  0  0  -0.094704  -0.168666  0  3.977461  0
C  C80  1  0.19656680  0.15907305  0.03988208  1  0  -0.114093  0  3.788649  0  0  -0.132252  0  4.031996  0  0  -0.134677  0  4.053388  0  0  -0.095334  -0.130528  0  4.017551  0
C  C81  1  0.80343700  0.84092495  0.96011805  1  0  -0.114309  0  3.788584  0  0  -0.132496  0  4.031983  0  0  -0.134921  0  4.053374  0  0  -0.095409  -0.130772  0  4.017542  0
C  C82  1  0.56927913  0.17095672  0.71059595  1  0  -0.329876  0  3.748494  0  0  -0.411669  0  3.98868  0  0  -0.413516  0  3.998606  0  0  -0.24262  -0.410089  0  3.981819  0
C  C83  1  0.43071769  0.82903942  0.28940294  1  0  -0.329962  0  3.74865  0  0  -0.411775  0  3.98882  0  0  -0.413632  0  3.99874  0  0  -0.242697  -0.41021  0  3.981992  0
Br  Br84  1  0.51502949  0.16511995  0.98292928  1  0  -0.072384  0  1.242041  0  0  -0.058343  0  1.472472  0  0  -0.063575  0  1.466533  0  0  0.043908  -0.054433  0  1.476934  0
Br  Br85  1  0.48497921  0.83487339  0.01707793  1  0  -0.07239  0  1.242052  0  0  -0.058353  0  1.472486  0  0  -0.063585  0  1.466548  0  0  0.043886  -0.054439  0  1.476946  0
N  N86  1  0.06156406  0.15947394  0.26675848  1  0  -0.323725  0  3.392722  0  0  -0.248678  0  3.625382  0  0  -0.270354  0  3.6445  0  0  -0.278872  -0.233707  0  3.611746  0
N  N87  1  0.93843303  0.84053061  0.73324162  1  0  -0.323572  0  3.392622  0  0  -0.248628  0  3.62526  0  0  -0.2703  0  3.644374  0  0  -0.278923  -0.233655  0  3.611624  0
N  N88  1  0.25857163  0.17685853  0.57493936  1  0  -0.462727  0  3.349848  0  0  -0.401223  0  3.587417  0  0  -0.423868  0  3.597503  0  0  -0.411024  -0.38572  0  3.580216  0
N  N89  1  0.74142963  0.82313947  0.42506047  1  0  -0.462702  0  3.349829  0  0  -0.401136  0  3.587374  0  0  -0.423772  0  3.597446  0  0  -0.410982  -0.385655  0  3.580185  0
N  N90  1  0.68215392  0.37445243  0.42022636  1  0  -0.545532  0  2.650793  0  0  -0.515039  0  2.896724  0  0  -0.528421  0  2.905914  0  0  -0.500898  -0.505925  0  2.890594  0
N  N91  1  0.31783401  0.62554372  0.57977286  1  0  -0.545486  0  2.65108  0  0  -0.514984  0  2.896988  0  0  -0.528363  0  2.906172  0  0  -0.500856  -0.505871  0  2.890861  0
O  O92  1  0.98501474  0.34179818  0.25071941  1  0  -0.603402  0  1.971822  0  0  -0.560906  0  2.198554  0  0  -0.580355  0  2.19034  0  0  -0.392704  -0.547101  0  2.203632  0
O  O93  1  0.01498553  0.65820449  0.74927997  1  0  -0.60349  0  1.971695  0  0  -0.560999  0  2.198414  0  0  -0.580446  0  2.190196  0  0  -0.392758  -0.547192  0  2.203493  0
O  O94  1  0.31562558  0.28794463  0.47248562  1  0  -0.636859  0  1.955152  0  0  -0.600734  0  2.199991  0  0  -0.621191  0  2.19411  0  0  -0.405977  -0.586497  0  2.203427  0
O  O95  1  0.68437220  0.71205431  0.52751538  1  0  -0.63678  0  1.955215  0  0  -0.600658  0  2.200025  0  0  -0.621115  0  2.194148  0  0  -0.405919  -0.586421  0  2.203449  0
O  O96  1  0.81461633  0.06324567  0.41824640  1  0  -0.531135  0  1.997565  0  0  -0.487645  0  2.220294  0  0  -0.508041  0  2.215069  0  0  -0.30771  -0.473468  0  2.22333  0
O  O97  1  0.18538299  0.93675421  0.58175156  1  0  -0.531122  0  1.997501  0  0  -0.487661  0  2.220271  0  0  -0.508054  0  2.215044  0  0  -0.307711  -0.473486  0  2.223311  0
