# generated using pymatgen
data_ZnH12C20S2N2(O2F3)2
_symmetry_space_group_name_H-M   'P 1'
_cell_length_a   7.06631830
_cell_length_b   8.91052627
_cell_length_c   10.76135071
_cell_angle_alpha   76.19981202
_cell_angle_beta   70.90874884
_cell_angle_gamma   66.64547589
_symmetry_Int_Tables_number   1
_chemical_formula_structural   ZnH12C20S2N2(O2F3)2
_chemical_formula_sum   'Zn1 H12 C20 S2 N2 O4 F6'
_cell_volume   583.20738100
_cell_formula_units_Z   1
loop_
 _symmetry_equiv_pos_site_id
 _symmetry_equiv_pos_as_xyz
  1  'x, y, z'
loop_
 _atom_site_type_symbol
 _atom_site_label
 _atom_site_symmetry_multiplicity
 _atom_site_fract_x
 _atom_site_fract_y
 _atom_site_fract_z
 _atom_site_occupancy
 _atom_site_hle17_bader_spin_density
 _atom_site_hle17_ddec_charge
 _atom_site_hle17_ddec_spin_density
 _atom_site_hle17_ddec_sum_bond_order
 _atom_site_hle17_magmom
 _atom_site_hse06_10hf_bader_spin_density
 _atom_site_hse06_10hf_ddec_charge
 _atom_site_hse06_10hf_ddec_spin_density
 _atom_site_hse06_10hf_ddec_sum_bond_order
 _atom_site_hse06_10hf_magmom
 _atom_site_hse06_bader_spin_density
 _atom_site_hse06_ddec_charge
 _atom_site_hse06_ddec_spin_density
 _atom_site_hse06_ddec_sum_bond_order
 _atom_site_hse06_magmom
 _atom_site_pbe_bader_spin_density
 _atom_site_pbe_cm5_charge
 _atom_site_pbe_ddec_charge
 _atom_site_pbe_ddec_spin_density
 _atom_site_pbe_ddec_sum_bond_order
 _atom_site_pbe_magmom
Zn  Zn0  1  0.79397736  0.99991977  0.00003816  1  0  1.008915  0  1.923201  0  0  0.839999  0  2.367682  0  0  0.885072  0  2.314961  0  0  0.685163  0.808306  0  2.404405  0
H  H1  1  0.00456300  0.15375041  0.41347756  1  0  0.109491  0  0.958753  0  0  0.1166  0  1.026325  0  0  0.120033  0  1.022878  0  0  0.100735  0.114201  0  1.02872  0
H  H2  1  0.57168007  0.84642088  0.58629055  1  0  0.109893  0  0.95814  0  0  0.11686  0  1.025884  0  0  0.120171  0  1.022652  0  0  0.100853  0.114488  0  1.028203  0
H  H3  1  0.24908720  0.75299247  0.97330848  1  0  0.115199  0  0.934988  0  0  0.118733  0  0.999299  0  0  0.122271  0  0.99646  0  0  0.125705  0.116112  0  1.001507  0
H  H4  1  0.97564108  0.24740100  0.02665197  1  0  0.11519  0  0.934622  0  0  0.11853  0  0.999214  0  0  0.122069  0  0.996371  0  0  0.125494  0.115851  0  1.001519  0
H  H5  1  0.85989449  0.27278931  0.59024302  1  0  0.128438  0  0.992042  0  0  0.132698  0  1.06323  0  0  0.13681  0  1.063252  0  0  0.091416  0.129796  0  1.063406  0
H  H6  1  0.72303774  0.72729432  0.40979561  1  0  0.128539  0  0.992278  0  0  0.132684  0  1.063532  0  0  0.136823  0  1.063484  0  0  0.09132  0.129756  0  1.063741  0
H  H7  1  0.61164472  0.75269145  0.97302885  1  0  0.115318  0  0.934112  0  0  0.11893  0  0.998321  0  0  0.12247  0  0.995536  0  0  0.12569  0.116292  0  1.000501  0
H  H8  1  0.33787400  0.24711329  0.02709840  1  0  0.114556  0  0.934598  0  0  0.118151  0  0.998878  0  0  0.121772  0  0.995993  0  0  0.125923  0.11546  0  1.001174  0
H  H9  1  0.19927328  0.93023263  0.24909014  1  0  0.096376  0  0.977504  0  0  0.104849  0  1.039116  0  0  0.106515  0  1.041254  0  0  0.095922  0.103548  0  1.037992  0
H  H10  1  0.37874094  0.06970619  0.75077837  1  0  0.095491  0  0.977942  0  0  0.104066  0  1.039621  0  0  0.105728  0  1.041774  0  0  0.095893  0.102764  0  1.038489  0
H  H11  1  0.29059743  0.62878441  0.37748431  1  0  0.122265  0  0.96106  0  0  0.130727  0  1.022125  0  0  0.133827  0  1.019984  0  0  0.103061  0.128531  0  1.023552  0
H  H12  1  0.29647710  0.37116626  0.62255482  1  0  0.122201  0  0.960238  0  0  0.130573  0  1.021353  0  0  0.133653  0  1.019224  0  0  0.103222  0.128419  0  1.022741  0
C  C13  1  0.05679681  0.02169096  0.44473895  1  0  -0.073194  0  3.725462  0  0  -0.104411  0  3.984365  0  0  -0.101135  0  4.00321  0  0  -0.093821  -0.106297  0  3.971494  0
C  C14  1  0.52330430  0.97844330  0.55504130  1  0  -0.072893  0  3.726949  0  0  -0.104143  0  3.985478  0  0  -0.10084  0  4.004371  0  0  -0.094191  -0.10601  0  3.972606  0
C  C15  1  0.02714372  0.95267078  0.57666171  1  0  -0.12023  0  3.730179  0  0  -0.098968  0  3.985211  0  0  -0.108948  0  4.009247  0  0  -0.026823  -0.09258  0  3.969263  0
C  C16  1  0.55636603  0.04751040  0.42314741  1  0  -0.122178  0  3.731229  0  0  -0.100335  0  3.985602  0  0  -0.110264  0  4.009508  0  0  -0.026927  -0.093996  0  3.969737  0
C  C17  1  0.27118425  0.86250671  0.98516373  1  0  0.081613  0  3.642332  0  0  0.053023  0  3.894622  0  0  0.054663  0  3.912326  0  0  0.065503  0.05169  0  3.883404  0
C  C18  1  0.11888134  0.13772634  0.01492934  1  0  0.082985  0  3.642522  0  0  0.054414  0  3.894819  0  0  0.056065  0  3.91255  0  0  0.06612  0.053201  0  3.883405  0
C  C19  1  0.74776262  0.29491496  0.79540237  1  0  0.232549  0  3.92134  0  0  0.21679  0  4.187039  0  0  0.236092  0  4.198025  0  0  0.085002  0.204094  0  4.179368  0
C  C20  1  0.83760422  0.70495188  0.20468243  1  0  0.232717  0  3.923183  0  0  0.217228  0  4.187987  0  0  0.236438  0  4.199065  0  0  0.085364  0.204618  0  4.180393  0
C  C21  1  0.92804688  0.02893194  0.69907026  1  0  0.450419  0  3.827996  0  0  0.431833  0  4.090768  0  0  0.461227  0  4.092091  0  0  0.12289  0.412197  0  4.089153  0
C  C22  1  0.65602162  0.97107303  0.30080855  1  0  0.453142  0  3.822867  0  0  0.434218  0  4.085631  0  0  0.463615  0  4.086841  0  0  0.123802  0.414582  0  4.084083  0
C  C23  1  0.66941146  0.48383792  0.76473468  1  0  0.710322  0  3.634433  0  0  0.639399  0  3.971507  0  0  0.667666  0  3.945471  0  0  0.292783  0.619004  0  3.990468  0
C  C24  1  0.91732832  0.51602204  0.23544306  1  0  0.71407  0  3.635135  0  0  0.643562  0  3.971202  0  0  0.671944  0  3.945136  0  0  0.295252  0.622799  0  3.990702  0
C  C25  1  0.84481845  0.20459597  0.68890925  1  0  -0.38091  0  3.765952  0  0  -0.419467  0  4.038362  0  0  -0.442851  0  4.06139  0  0  -0.158145  -0.403987  0  4.022787  0
C  C26  1  0.73804308  0.79537660  0.31111301  1  0  -0.381148  0  3.764875  0  0  -0.420011  0  4.037174  0  0  -0.443383  0  4.060219  0  0  -0.157904  -0.404511  0  4.021579  0
C  C27  1  0.46841691  0.86241001  0.98503044  1  0  0.080972  0  3.640395  0  0  0.052484  0  3.891997  0  0  0.054081  0  3.909751  0  0  0.064213  0.051283  0  3.880605  0
C  C28  1  0.31609125  0.13759099  0.01493046  1  0  0.083043  0  3.640863  0  0  0.054329  0  3.892694  0  0  0.055856  0  3.910442  0  0  0.06395  0.053055  0  3.881444  0
C  C29  1  0.16152823  0.90185100  0.35627363  1  0  -0.079649  0  3.795179  0  0  -0.095212  0  4.056837  0  0  -0.100324  0  4.079794  0  0  -0.111754  -0.091741  0  4.041056  0
C  C30  1  0.41960970  0.09813342  0.64360766  1  0  -0.077953  0  3.794606  0  0  -0.093502  0  4.055992  0  0  -0.098629  0  4.078975  0  0  -0.110847  -0.090029  0  4.040212  0
C  C31  1  0.21043753  0.74323469  0.42145335  1  0  -0.15858  0  3.70395  0  0  -0.177026  0  3.984828  0  0  -0.175807  0  4.002713  0  0  -0.097351  -0.177072  0  3.972025  0
C  C32  1  0.37486073  0.25678591  0.57851855  1  0  -0.158401  0  3.702708  0  0  -0.176775  0  3.983929  0  0  -0.175521  0  4.001807  0  0  -0.09778  -0.17686  0  3.971114  0
S  S33  1  0.12941420  0.73957194  0.58958097  1  0  0.168311  0  2.626316  0  0  0.165825  0  2.949385  0  0  0.165927  0  2.954872  0  0  0.089444  0.165512  0  2.945777  0
S  S34  1  0.45803236  0.26061865  0.41037775  1  0  0.168757  0  2.625364  0  0  0.165529  0  2.948737  0  0  0.165603  0  2.954201  0  0  0.089499  0.165253  0  2.945156  0
N  N35  1  0.09841327  0.00013447  0.00009369  1  0  -0.256481  0  3.2716  0  0  -0.186321  0  3.533048  0  0  -0.198843  0  3.54973  0  0  -0.299219  -0.178088  0  3.522462  0
N  N36  1  0.48889186  0.99996734  0.99993519  1  0  -0.254648  0  3.265418  0  0  -0.183642  0  3.524922  0  0  -0.196153  0  3.541817  0  0  -0.296691  -0.175415  0  3.514231  0
O  O37  1  0.70956444  0.24777844  0.92028929  1  0  -0.530298  0  2.112843  0  0  -0.478944  0  2.365444  0  0  -0.503762  0  2.358095  0  0  -0.310997  -0.461745  0  2.370023  0
O  O38  1  0.87730668  0.75203531  0.07979117  1  0  -0.530859  0  2.114114  0  0  -0.480364  0  2.366687  0  0  -0.505181  0  2.359412  0  0  -0.312154  -0.463176  0  2.371249  0
O  O39  1  0.92352246  0.93139426  0.80760399  1  0  -0.54734  0  2.031542  0  0  -0.487926  0  2.27837  0  0  -0.511282  0  2.266957  0  0  -0.299978  -0.471287  0  2.285611  0
O  O40  1  0.66288829  0.06846607  0.19222269  1  0  -0.548672  0  2.031386  0  0  -0.48905  0  2.278501  0  0  -0.512427  0  2.267137  0  0  -0.300612  -0.472399  0  2.285768  0
F  F41  1  0.45405366  0.55017915  0.81896420  1  0  -0.258063  0  1.143185  0  0  -0.219162  0  1.302225  0  0  -0.228097  0  1.285811  0  0  -0.105055  -0.212613  0  1.313692  0
F  F42  1  0.82227447  0.45002026  0.18096652  1  0  -0.257482  0  1.144236  0  0  -0.219585  0  1.302959  0  0  -0.228553  0  1.286532  0  0  -0.10565  -0.21296  0  1.314626  0
F  F43  1  0.70586304  0.54192643  0.63285766  1  0  -0.260782  0  1.196078  0  0  -0.217625  0  1.366274  0  0  -0.227288  0  1.350543  0  0  -0.097838  -0.210664  0  1.377306  0
F  F44  1  0.87986796  0.45790522  0.36732310  1  0  -0.260803  0  1.196377  0  0  -0.219253  0  1.366877  0  0  -0.228946  0  1.351125  0  0  -0.098295  -0.212201  0  1.37804  0
F  F45  1  0.76623789  0.54919239  0.81839253  1  0  -0.251869  0  1.136409  0  0  -0.219382  0  1.30139  0  0  -0.228287  0  1.284978  0  0  -0.105653  -0.212883  0  1.31293  0
F  F46  1  0.13300505  0.45030042  0.18210191  1  0  -0.258336  0  1.143152  0  0  -0.220928  0  1.302228  0  0  -0.22987  0  1.285792  0  0  -0.106532  -0.214295  0  1.313826  0
