# generated using pymatgen
data_TbH11C16(NO7)2
_symmetry_space_group_name_H-M   'P 1'
_cell_length_a   9.12165042
_cell_length_b   10.03699007
_cell_length_c   12.89546471
_cell_angle_alpha   69.30308895
_cell_angle_beta   67.00091350
_cell_angle_gamma   68.48012707
_symmetry_Int_Tables_number   1
_chemical_formula_structural   TbH11C16(NO7)2
_chemical_formula_sum   'Tb2 H22 C32 N4 O28'
_cell_volume   980.12264356
_cell_formula_units_Z   2
loop_
 _symmetry_equiv_pos_site_id
 _symmetry_equiv_pos_as_xyz
  1  'x, y, z'
loop_
 _atom_site_type_symbol
 _atom_site_label
 _atom_site_symmetry_multiplicity
 _atom_site_fract_x
 _atom_site_fract_y
 _atom_site_fract_z
 _atom_site_occupancy
 _atom_site_hle17_bader_spin_density
 _atom_site_hle17_ddec_charge
 _atom_site_hle17_ddec_spin_density
 _atom_site_hle17_ddec_sum_bond_order
 _atom_site_hle17_magmom
 _atom_site_hse06_10hf_bader_spin_density
 _atom_site_hse06_10hf_ddec_charge
 _atom_site_hse06_10hf_ddec_spin_density
 _atom_site_hse06_10hf_ddec_sum_bond_order
 _atom_site_hse06_10hf_magmom
 _atom_site_hse06_bader_spin_density
 _atom_site_hse06_ddec_charge
 _atom_site_hse06_ddec_spin_density
 _atom_site_hse06_ddec_sum_bond_order
 _atom_site_hse06_magmom
 _atom_site_pbe_bader_spin_density
 _atom_site_pbe_cm5_charge
 _atom_site_pbe_ddec_charge
 _atom_site_pbe_ddec_spin_density
 _atom_site_pbe_ddec_sum_bond_order
 _atom_site_pbe_magmom
Tb  Tb0  1  0.19938330  0.52944364  0.53312894  1  0  2.299205  0  1.606781  0  0  2.151051  0  2.071592  0  0  2.270273  0  1.894264  0  0  1.513353  2.115269  0  2.102726  0
Tb  Tb1  1  0.80061157  0.47053754  0.46687052  1  0  2.299169  0  1.606713  0  0  2.150996  0  2.071536  0  0  2.270234  0  1.894175  0  0  1.513395  2.115217  0  2.102669  0
H  H2  1  0.71360846  0.86124787  0.35907245  1  0  0.130601  0  0.963616  0  0  0.129886  0  1.040146  0  0  0.134912  0  1.035133  0  0  0.121185  0.12608  0  1.044034  0
H  H3  1  0.28636874  0.13874645  0.64093563  1  0  0.13065  0  0.963505  0  0  0.129937  0  1.039972  0  0  0.134959  0  1.034965  0  0  0.121215  0.126124  0  1.043871  0
H  H4  1  0.46247514  0.32732696  0.30767707  1  0  0.13793  0  0.953432  0  0  0.140432  0  1.022143  0  0  0.144954  0  1.018564  0  0  0.122988  0.137176  0  1.024761  0
H  H5  1  0.53751318  0.67267072  0.69231861  1  0  0.137933  0  0.953332  0  0  0.140416  0  1.02209  0  0  0.14494  0  1.018505  0  0  0.122999  0.137163  0  1.024705  0
H  H6  1  0.18318478  0.00285657  0.44996079  1  0  0.13296  0  0.909932  0  0  0.141455  0  0.968301  0  0  0.146015  0  0.963917  0  0  0.124525  0.138202  0  0.971412  0
H  H7  1  0.81680151  0.99713910  0.55004454  1  0  0.133048  0  0.910028  0  0  0.141532  0  0.968404  0  0  0.14609  0  0.964021  0  0  0.124562  0.138281  0  0.971511  0
H  H8  1  0.11472972  0.91671107  0.17780812  1  0  0.134127  0  0.953682  0  0  0.133404  0  1.028904  0  0  0.138336  0  1.023417  0  0  0.11916  0.129952  0  1.032562  0
H  H9  1  0.88527642  0.08329041  0.82218183  1  0  0.134031  0  0.953636  0  0  0.13339  0  1.028835  0  0  0.138327  0  1.023339  0  0  0.119154  0.129936  0  1.032499  0
H  H10  1  0.48704068  0.98004123  0.84589488  1  0  0.122124  0  0.955785  0  0  0.124679  0  1.028344  0  0  0.128088  0  1.026365  0  0  0.113439  0.122204  0  1.029792  0
H  H11  1  0.51297811  0.01997445  0.15410401  1  0  0.12204  0  0.955797  0  0  0.124709  0  1.028268  0  0  0.12812  0  1.026282  0  0  0.113432  0.122233  0  1.029717  0
H  H12  1  0.58915087  0.59352423  0.11852822  1  0  0.122735  0  0.929265  0  0  0.130145  0  0.992696  0  0  0.134551  0  0.988191  0  0  0.120773  0.127043  0  0.995634  0
H  H13  1  0.41087629  0.40649500  0.88146747  1  0  0.122798  0  0.929219  0  0  0.13009  0  0.992753  0  0  0.134492  0  0.988264  0  0  0.12075  0.126997  0  0.995683  0
H  H14  1  0.88377572  0.78642669  0.75508367  1  0  0.415391  0  0.835776  0  0  0.384827  0  0.915173  0  0  0.397338  0  0.900407  0  0  0.317289  0.376155  0  0.925242  0
H  H15  1  0.11623256  0.21357927  0.24490367  1  0  0.415536  0  0.835761  0  0  0.384979  0  0.915136  0  0  0.397492  0  0.900359  0  0  0.31739  0.376308  0  0.925205  0
H  H16  1  0.38644492  0.47949711  0.69368614  1  0  0.440441  0  0.856117  0  0  0.409138  0  0.921115  0  0  0.420056  0  0.90529  0  0  0.303432  0.401437  0  0.932424  0
H  H17  1  0.61355806  0.52049548  0.30631028  1  0  0.440571  0  0.855918  0  0  0.409257  0  0.920945  0  0  0.420178  0  0.905113  0  0  0.303465  0.401555  0  0.932253  0
H  H18  1  0.21683277  0.59066737  0.73914381  1  0  0.437766  0  0.84793  0  0  0.412102  0  0.901774  0  0  0.421541  0  0.887935  0  0  0.313486  0.405566  0  0.911532  0
H  H19  1  0.78316646  0.40931844  0.26085552  1  0  0.437676  0  0.848063  0  0  0.412026  0  0.901887  0  0  0.421463  0  0.888051  0  0  0.313468  0.405491  0  0.911639  0
H  H20  1  0.99287406  0.31837964  0.68950016  1  0  0.44859  0  0.849979  0  0  0.418554  0  0.910754  0  0  0.429446  0  0.895114  0  0  0.304916  0.41106  0  0.92158  0
H  H21  1  0.00711548  0.68161376  0.31050108  1  0  0.448589  0  0.849958  0  0  0.418544  0  0.910755  0  0  0.429437  0  0.895115  0  0  0.304904  0.411048  0  0.921582  0
H  H22  1  0.10268179  0.31434995  0.76527842  1  0  0.453687  0  0.825179  0  0  0.423939  0  0.884987  0  0  0.434929  0  0.868639  0  0  0.313028  0.416225  0  0.896575  0
H  H23  1  0.89730911  0.68565019  0.23472132  1  0  0.453682  0  0.825133  0  0  0.423928  0  0.88497  0  0  0.434916  0  0.868625  0  0  0.313087  0.416216  0  0.896553  0
C  C24  1  0.44701257  0.91629810  0.40925814  1  0  -0.071145  0  3.721739  0  0  -0.043045  0  3.954276  0  0  -0.053892  0  3.97629  0  0  -0.008966  -0.036175  0  3.938757  0
C  C25  1  0.55297449  0.08368851  0.59074414  1  0  -0.071107  0  3.721737  0  0  -0.043036  0  3.954324  0  0  -0.053884  0  3.976336  0  0  -0.00893  -0.036163  0  3.938802  0
C  C26  1  0.59935094  0.94940567  0.36431617  1  0  -0.079017  0  3.690969  0  0  -0.118766  0  3.949473  0  0  -0.114313  0  3.966497  0  0  -0.061802  -0.120543  0  3.936962  0
C  C27  1  0.40063415  0.05058317  0.63568754  1  0  -0.079088  0  3.690963  0  0  -0.118712  0  3.949244  0  0  -0.114263  0  3.966281  0  0  -0.061781  -0.1205  0  3.936757  0
C  C28  1  0.60086313  0.09730437  0.32555169  1  0  0.047796  0  3.724941  0  0  0.042818  0  3.988993  0  0  0.036469  0  4.012806  0  0  0.074633  0.046794  0  3.972676  0
C  C29  1  0.39912686  0.90268701  0.67445622  1  0  0.047972  0  3.724934  0  0  0.042938  0  3.988991  0  0  0.036592  0  4.012802  0  0  0.074683  0.046913  0  3.972676  0
C  C30  1  0.45682310  0.21313793  0.33438074  1  0  -0.076286  0  3.648533  0  0  -0.116496  0  3.905583  0  0  -0.112094  0  3.921257  0  0  -0.059904  -0.11958  0  3.895244  0
C  C31  1  0.54316719  0.78686348  0.66562423  1  0  -0.07642  0  3.648692  0  0  -0.116619  0  3.905749  0  0  -0.11222  0  3.921431  0  0  -0.060035  -0.119703  0  3.89541  0
C  C32  1  0.30572379  0.17782788  0.38109418  1  0  -0.056294  0  3.729864  0  0  -0.028618  0  3.965889  0  0  -0.038276  0  3.986496  0  0  -0.004094  -0.022279  0  3.95176  0
C  C33  1  0.69427229  0.82216266  0.61891625  1  0  -0.056161  0  3.729842  0  0  -0.028419  0  3.965817  0  0  -0.038074  0  3.986421  0  0  -0.003898  -0.022082  0  3.951693  0
C  C34  1  0.30096783  0.03037033  0.41524587  1  0  -0.017784  0  3.619899  0  0  -0.064166  0  3.875394  0  0  -0.057816  0  3.888837  0  0  -0.053149  -0.068368  0  3.866277  0
C  C35  1  0.69903017  0.96962571  0.58475862  1  0  -0.017957  0  3.619873  0  0  -0.064356  0  3.875416  0  0  -0.058003  0  3.888851  0  0  -0.053315  -0.06856  0  3.866303  0
C  C36  1  0.43919303  0.75820881  0.45495298  1  0  0.727804  0  3.861339  0  0  0.680008  0  4.149628  0  0  0.715921  0  4.142967  0  0  0.236559  0.656295  0  4.155336  0
C  C37  1  0.56080219  0.24177126  0.54504670  1  0  0.727759  0  3.861154  0  0  0.679902  0  4.149592  0  0  0.715814  0  4.142933  0  0  0.236553  0.65619  0  4.155296  0
C  C38  1  0.14573968  0.29453217  0.39975925  1  0  0.703558  0  3.852393  0  0  0.654818  0  4.13985  0  0  0.689655  0  4.137945  0  0  0.231129  0.630894  0  4.145929  0
C  C39  1  0.85425265  0.70546356  0.60024137  1  0  0.703575  0  3.852191  0  0  0.654758  0  4.139784  0  0  0.689595  0  4.137877  0  0  0.231183  0.630833  0  4.145864  0
C  C40  1  0.34730423  0.74645869  0.16247482  1  0  -0.051678  0  3.71007  0  0  -0.023145  0  3.942684  0  0  -0.033924  0  3.964655  0  0  -0.003424  -0.016422  0  3.927754  0
C  C41  1  0.65271212  0.25354675  0.83752298  1  0  -0.05155  0  3.70988  0  0  -0.023045  0  3.942611  0  0  -0.033823  0  3.96458  0  0  -0.003381  -0.016323  0  3.927687  0
C  C42  1  0.23702105  0.87613719  0.12118629  1  0  -0.04615  0  3.622368  0  0  -0.088932  0  3.880911  0  0  -0.082491  0  3.894191  0  0  -0.054326  -0.092673  0  3.871742  0
C  C43  1  0.76299339  0.12387043  0.87881138  1  0  -0.046423  0  3.624032  0  0  -0.088897  0  3.880811  0  0  -0.082455  0  3.894089  0  0  -0.054317  -0.092643  0  3.871651  0
C  C44  1  0.28939844  0.95565438  0.00687191  1  0  0.07073  0  3.698385  0  0  0.058192  0  3.955946  0  0  0.052206  0  3.978675  0  0  0.078818  0.06162  0  3.940704  0
C  C45  1  0.71061206  0.04436110  0.99312997  1  0  0.062352  0  3.694414  0  0  0.058006  0  3.956181  0  0  0.05202  0  3.97891  0  0  0.078831  0.061438  0  3.940943  0
C  C46  1  0.44846277  0.91243662  0.93339693  1  0  -0.078687  0  3.672035  0  0  -0.120277  0  3.932729  0  0  -0.116142  0  3.951989  0  0  -0.063085  -0.122395  0  3.919401  0
C  C47  1  0.55155651  0.08759151  0.06660449  1  0  -0.078739  0  3.673699  0  0  -0.120002  0  3.932583  0  0  -0.115865  0  3.95184  0  0  -0.06292  -0.122125  0  3.919253  0
C  C48  1  0.55544873  0.78000518  0.97449085  1  0  -0.061149  0  3.743315  0  0  -0.036078  0  3.982793  0  0  -0.04754  0  4.007402  0  0  -0.009244  -0.028767  0  3.965943  0
C  C49  1  0.44456575  0.22002628  0.02551475  1  0  -0.06123  0  3.743198  0  0  -0.036222  0  3.982828  0  0  -0.047684  0  4.007435  0  0  -0.009282  -0.028904  0  3.965976  0
C  C50  1  0.50433440  0.69674590  0.08832282  1  0  -0.010256  0  3.614056  0  0  -0.054264  0  3.861819  0  0  -0.048101  0  3.877192  0  0  -0.046428  -0.057567  0  3.850642  0
C  C51  1  0.49568601  0.30327207  0.91167578  1  0  -0.010485  0  3.613918  0  0  -0.054334  0  3.861761  0  0  -0.048178  0  3.87714  0  0  -0.046505  -0.057642  0  3.850581  0
C  C52  1  0.29678981  0.66357309  0.28648213  1  0  0.66432  0  3.888927  0  0  0.61422  0  4.174935  0  0  0.647584  0  4.174289  0  0  0.214029  0.591324  0  4.178618  0
C  C53  1  0.70322327  0.33641758  0.71351375  1  0  0.664266  0  3.889182  0  0  0.614246  0  4.175114  0  0  0.647609  0  4.174472  0  0  0.213996  0.591352  0  4.1788  0
C  C54  1  0.72263975  0.72068666  0.89702315  1  0  0.63644  0  3.829007  0  0  0.587369  0  4.130851  0  0  0.618823  0  4.125002  0  0  0.223537  0.565932  0  4.134303  0
C  C55  1  0.27736911  0.27934105  0.10297645  1  0  0.636588  0  3.829213  0  0  0.587641  0  4.130894  0  0  0.619096  0  4.125039  0  0  0.223765  0.566201  0  4.134342  0
N  N56  1  0.76045946  0.13237162  0.27932225  1  0  0.512697  0  3.879534  0  0  0.535034  0  4.183851  0  0  0.556405  0  4.192234  0  0  0.062139  0.520829  0  4.177997  0
N  N57  1  0.23952824  0.86761624  0.72068338  1  0  0.512712  0  3.87959  0  0  0.535095  0  4.183898  0  0  0.556465  0  4.192278  0  0  0.062252  0.520891  0  4.178046  0
N  N58  1  0.17305569  0.09082550  0.96269489  1  0  0.478335  0  3.9301  0  0  0.533242  0  4.184977  0  0  0.554548  0  4.193677  0  0  0.06157  0.519022  0  4.179098  0
N  N59  1  0.82695012  0.90918642  0.03730613  1  0  0.50778  0  3.884797  0  0  0.533419  0  4.184937  0  0  0.554724  0  4.193639  0  0  0.061553  0.519195  0  4.179064  0
O  O60  1  0.29862646  0.73494840  0.48923786  1  0  -0.716554  0  2.067043  0  0  -0.672003  0  2.322586  0  0  -0.706332  0  2.310026  0  0  -0.385837  -0.65399  0  2.328383  0
O  O61  1  0.70137242  0.26502486  0.51075583  1  0  -0.716549  0  2.06688  0  0  -0.671996  0  2.32247  0  0  -0.706326  0  2.309914  0  0  -0.385838  -0.653984  0  2.328265  0
O  O62  1  0.57334677  0.65885687  0.45795014  1  0  -0.751433  0  2.110699  0  0  -0.700586  0  2.385893  0  0  -0.737414  0  2.370082  0  0  -0.421268  -0.682573  0  2.394222  0
O  O63  1  0.42664797  0.34113207  0.54204636  1  0  -0.751545  0  2.110581  0  0  -0.700668  0  2.38579  0  0  -0.737492  0  2.369979  0  0  -0.421342  -0.682653  0  2.394115  0
O  O64  1  0.02834658  0.28657233  0.37374557  1  0  -0.682546  0  1.986278  0  0  -0.631071  0  2.221594  0  0  -0.663216  0  2.208853  0  0  -0.353072  -0.61408  0  2.229134  0
O  O65  1  0.97164849  0.71341894  0.62625328  1  0  -0.682509  0  1.986207  0  0  -0.631056  0  2.221597  0  0  -0.663197  0  2.208858  0  0  -0.353053  -0.614068  0  2.229137  0
O  O66  1  0.12577146  0.39593626  0.44561637  1  0  -0.7709  0  2.103691  0  0  -0.716702  0  2.362718  0  0  -0.758193  0  2.35275  0  0  -0.386771  -0.69819  0  2.368374  0
O  O67  1  0.87420378  0.60406883  0.55437906  1  0  -0.770863  0  2.103417  0  0  -0.7166  0  2.362423  0  0  -0.758092  0  2.352454  0  0  -0.386841  -0.698093  0  2.368084  0
O  O68  1  0.76519064  0.25921080  0.21767685  1  0  -0.367153  0  1.77648  0  0  -0.341529  0  1.977381  0  0  -0.353382  0  1.970474  0  0  -0.119265  -0.333601  0  1.982212  0
O  O69  1  0.23479931  0.74077807  0.78232247  1  0  -0.367142  0  1.776652  0  0  -0.341523  0  1.977594  0  0  -0.353377  0  1.970687  0  0  -0.119211  -0.333597  0  1.982432  0
O  O70  1  0.88062744  0.03500746  0.30499096  1  0  -0.329889  0  1.745377  0  0  -0.307373  0  1.949528  0  0  -0.319223  0  1.945496  0  0  -0.104967  -0.299554  0  1.952448  0
O  O71  1  0.11936542  0.96498278  0.69501342  1  0  -0.329895  0  1.745391  0  0  -0.307446  0  1.949588  0  0  -0.319293  0  1.945545  0  0  -0.105108  -0.299618  0  1.952497  0
O  O72  1  0.40245960  0.55737490  0.33021761  1  0  -0.696182  0  2.063554  0  0  -0.638614  0  2.298555  0  0  -0.671179  0  2.289964  0  0  -0.339333  -0.620441  0  2.303863  0
O  O73  1  0.59755549  0.44261011  0.66977471  1  0  -0.696201  0  2.063697  0  0  -0.638644  0  2.298631  0  0  -0.671209  0  2.290039  0  0  -0.339415  -0.620469  0  2.303943  0
O  O74  1  0.14729710  0.70166315  0.34919360  1  0  -0.681127  0  2.038541  0  0  -0.624629  0  2.266868  0  0  -0.656813  0  2.257501  0  0  -0.349085  -0.606705  0  2.272128  0
O  O75  1  0.85271205  0.29831832  0.65079972  1  0  -0.681129  0  2.03866  0  0  -0.624646  0  2.266955  0  0  -0.656832  0  2.257586  0  0  -0.349046  -0.606719  0  2.272216  0
O  O76  1  0.78859239  0.58846735  0.90631002  1  0  -0.505808  0  1.853356  0  0  -0.472182  0  2.038389  0  0  -0.49023  0  2.031871  0  0  -0.286094  -0.45976  0  2.042712  0
O  O77  1  0.21141669  0.41155848  0.09370092  1  0  -0.505868  0  1.853434  0  0  -0.472285  0  2.03841  0  0  -0.490332  0  2.031884  0  0  -0.286268  -0.459864  0  2.04274  0
O  O78  1  0.78777292  0.82940956  0.81635568  1  0  -0.558964  0  2.104056  0  0  -0.512686  0  2.330976  0  0  -0.535372  0  2.318111  0  0  -0.333883  -0.496497  0  2.338929  0
O  O79  1  0.21223806  0.17060900  0.18363667  1  0  -0.559119  0  2.103983  0  0  -0.512981  0  2.331037  0  0  -0.535664  0  2.318159  0  0  -0.334056  -0.496815  0  2.339047  0
O  O80  1  0.22931796  0.16852712  0.86434628  1  0  -0.372917  0  1.797182  0  0  -0.350635  0  1.986257  0  0  -0.366021  0  1.982619  0  0  -0.120753  -0.340254  0  1.988757  0
O  O81  1  0.77068226  0.83148103  0.13564796  1  0  -0.382992  0  1.783095  0  0  -0.350636  0  1.986196  0  0  -0.366021  0  1.982555  0  0  -0.12076  -0.340253  0  1.988689  0
O  O82  1  0.02757637  0.12038514  0.02302615  1  0  -0.31689  0  1.779671  0  0  -0.321113  0  1.976828  0  0  -0.331826  0  1.973376  0  0  -0.115545  -0.313908  0  1.97934  0
O  O83  1  0.97243046  0.87962010  0.97697573  1  0  -0.326998  0  1.765211  0  0  -0.321186  0  1.976745  0  0  -0.3319  0  1.973292  0  0  -0.115495  -0.313981  0  1.97926  0
O  O84  1  0.26620607  0.50625110  0.70380217  1  0  -0.88819  0  1.863386  0  0  -0.842137  0  2.046678  0  0  -0.869803  0  2.011974  0  0  -0.63462  -0.828207  0  2.067163  0
O  O85  1  0.73379828  0.49373371  0.29619533  1  0  -0.888213  0  1.863342  0  0  -0.842181  0  2.046676  0  0  -0.86985  0  2.011971  0  0  -0.634622  -0.828251  0  2.067162  0
O  O86  1  0.07902829  0.35615153  0.69053104  1  0  -0.930407  0  1.895293  0  0  -0.880329  0  2.091543  0  0  -0.908525  0  2.052634  0  0  -0.655117  -0.866596  0  2.114465  0
O  O87  1  0.92094810  0.64385615  0.30947421  1  0  -0.930373  0  1.895223  0  0  -0.880262  0  2.091559  0  0  -0.908459  0  2.052646  0  0  -0.655176  -0.866533  0  2.114482  0
