# generated using pymatgen
data_ZnH14C27I2NO4
_symmetry_space_group_name_H-M   'P 1'
_cell_length_a   15.28855434
_cell_length_b   18.31641492
_cell_length_c   19.71798208
_cell_angle_alpha   89.99897821
_cell_angle_beta   90.40782905
_cell_angle_gamma   90.00092583
_symmetry_Int_Tables_number   1
_chemical_formula_structural   ZnH14C27I2NO4
_chemical_formula_sum   'Zn2 H28 C54 I4 N2 O8'
_cell_volume   5521.51631621
_cell_formula_units_Z   2
loop_
 _symmetry_equiv_pos_site_id
 _symmetry_equiv_pos_as_xyz
  1  'x, y, z'
loop_
 _atom_site_type_symbol
 _atom_site_label
 _atom_site_symmetry_multiplicity
 _atom_site_fract_x
 _atom_site_fract_y
 _atom_site_fract_z
 _atom_site_occupancy
 _atom_site_pbe_bader_charge
 _atom_site_pbe_bader_spin_density
 _atom_site_pbe_cm5_charge
 _atom_site_pbe_ddec_charge
 _atom_site_pbe_ddec_spin_density
 _atom_site_pbe_ddec_sum_bond_order
 _atom_site_pbe_magmom
Zn  Zn0  1  0.49999995  0.42294461  0.50000178  1  1.280517  0  0.664982  0.818062  0  2.426031  0
Zn  Zn1  1  0.50000126  0.57705556  0.49999759  1  1.298567  0  0.665029  0.818149  0  2.425935  0
H  H2  1  0.22221269  0.61701736  0.49977521  1  0.111344  0  0.101405  0.10872  0  1.011634  0
H  H3  1  0.77778657  0.38298390  0.50022770  1  0.111611  0  0.10139  0.108737  0  1.011631  0
H  H4  1  0.63989709  0.06731792  0.51445536  1  0.030772  0  0.107528  0.106555  0  0.993976  0
H  H5  1  0.36010150  0.93268170  0.48554502  1  0.030729  0  0.107543  0.10659  0  0.993976  0
H  H6  1  0.36010299  0.06731804  0.48554387  1  0.030753  0  0.107516  0.106539  0  0.993991  0
H  H7  1  0.63989626  0.93268214  0.51445550  1  0.030799  0  0.107527  0.106549  0  0.993956  0
H  H8  1  0.22221673  0.38298302  0.49993064  1  0.111296  0  0.101293  0.108666  0  1.011455  0
H  H9  1  0.77778579  0.61701824  0.50006924  1  0.111271  0  0.101264  0.108639  0  1.01149  0
H  H10  1  0.08100197  0.31412418  0.50013310  1  0.06915  0  0.099488  0.100009  0  0.99751  0
H  H11  1  0.91899924  0.68587599  0.49986576  1  0.069127  0  0.099473  0.10001  0  0.997485  0
H  H12  1  0.91899517  0.31412638  0.50013224  1  0.067243  0  0.099228  0.099968  0  0.997244  0
H  H13  1  0.08100604  0.68587379  0.49986815  1  0.067211  0  0.099236  0.099998  0  0.99726  0
H  H14  1  0.49965492  0.61699197  0.28317911  1  0.097245  0  0.104204  0.121673  0  1.006772  0
H  H15  1  0.50034499  0.38300602  0.71682077  1  0.097206  0  0.104216  0.121714  0  1.006708  0
H  H16  1  0.50035385  0.61699068  0.71682159  1  0.097262  0  0.104216  0.121765  0  1.006629  0
H  H17  1  0.49964999  0.38300840  0.28318083  1  0.097261  0  0.104189  0.121682  0  1.006669  0
H  H18  1  0.35897369  0.50002671  0.06201326  1  0.063017  0  0.103547  0.110505  0  0.981582  0
H  H19  1  0.64102687  0.49996964  0.93798865  1  0.063035  0  0.103521  0.11047  0  0.981563  0
H  H20  1  0.35942193  0.50002023  0.93576244  1  0.084666  0  0.10413  0.111472  0  0.98059  0
H  H21  1  0.64057864  0.49997667  0.06423997  1  0.084817  0  0.104121  0.111421  0  0.980607  0
H  H22  1  0.40417921  0.30628729  0.42550290  1  0.115923  0  0.130766  0.106031  0  0.964072  0
H  H23  1  0.59582135  0.69371233  0.57449596  1  0.115941  0  0.130788  0.106075  0  0.964069  0
H  H24  1  0.59582033  0.30628554  0.57449834  1  0.115939  0  0.13078  0.106057  0  0.964053  0
H  H25  1  0.40417761  0.69371354  0.42550254  1  0.115919  0  0.130766  0.106019  0  0.964105  0
H  H26  1  0.40052774  0.16973055  0.42151693  1  0.067153  0  0.113709  0.119364  0  0.991863  0
H  H27  1  0.59947216  0.83026853  0.57848244  1  0.067106  0  0.113712  0.119374  0  0.991792  0
H  H28  1  0.59947258  0.16972933  0.57848280  1  0.06713  0  0.113703  0.119365  0  0.991858  0
H  H29  1  0.40052536  0.83026975  0.42151707  1  0.067065  0  0.113706  0.119386  0  0.991794  0
C  C30  1  0.50104980  0.49999978  0.63340956  1  1.593175  0  0.21638  0.595317  0  4.169116  0
C  C31  1  0.49895076  0.50000257  0.36659183  1  1.593121  0  0.216348  0.595319  0  4.168896  0
C  C32  1  0.95534058  0.36544739  0.50011158  1  -0.141266  0  -0.094266  -0.136509  0  4.029906  0
C  C33  1  0.04465998  0.63455442  0.49988779  1  -0.141338  0  -0.094333  -0.136642  0  4.029983  0
C  C34  1  0.49936782  0.56608164  0.25476723  1  0.075434  0  -0.092912  -0.134786  0  3.975415  0
C  C35  1  0.50063273  0.43391743  0.74523214  1  0.07543  0  -0.092897  -0.134798  0  3.975418  0
C  C36  1  0.50063789  0.56607867  0.74523320  1  0.07544  0  -0.092941  -0.134887  0  3.97547  0
C  C37  1  0.49936530  0.43392150  0.25476922  1  0.075318  0  -0.092926  -0.13481  0  3.975422  0
C  C38  1  0.49947271  0.56544034  0.18412683  1  -0.258374  0  -0.043208  0.031611  0  3.881201  0
C  C39  1  0.50052719  0.43455764  0.81587204  1  -0.258385  0  -0.043294  0.031513  0  3.881266  0
C  C40  1  0.50053299  0.56543315  0.81587412  1  -0.258951  0  -0.043334  0.031482  0  3.881277  0
C  C41  1  0.49947019  0.43456266  0.18412931  1  -0.25833  0  -0.043306  0.031464  0  3.881352  0
C  C42  1  0.49950673  0.50000108  0.14650533  1  0.014935  0  -0.013975  0.008991  0  3.966819  0
C  C43  1  0.50049449  0.49999527  0.85349658  1  0.015551  0  -0.013876  0.009046  0  3.966816  0
C  C44  1  0.49918740  0.50000174  0.29025304  1  -0.028861  0  -0.012782  0.000621  0  3.95268  0
C  C45  1  0.50081186  0.49999897  0.70974785  1  -0.02888  0  -0.012764  0.000598  0  3.952751  0
C  C46  1  0.42077194  0.50001072  0.03469391  1  -0.035525  0  -0.093135  -0.123341  0  3.992508  0
C  C47  1  0.57922797  0.49998509  0.96530698  1  -0.035518  0  -0.09308  -0.123277  0  3.992309  0
C  C48  1  0.42101637  0.50001566  0.96403744  1  -0.0676  0  -0.092766  -0.122448  0  3.990928  0
C  C49  1  0.57898419  0.49998069  0.03596345  1  -0.0678  0  -0.092753  -0.122337  0  3.990881  0
C  C50  1  0.50026458  0.49999557  0.92882617  1  0.007716  0  -0.024084  0.065403  0  4.048174  0
C  C51  1  0.49973532  0.50000133  0.07117523  1  0.008855  0  -0.024103  0.065307  0  4.048294  0
C  C52  1  0.44605768  0.27335244  0.45842660  1  0.46034  0  0.062483  0.108792  0  3.924285  0
C  C53  1  0.55394091  0.72664718  0.54157277  1  0.460357  0  0.062507  0.108828  0  3.924255  0
C  C54  1  0.55394222  0.27335160  0.54157412  1  0.46031  0  0.062451  0.108745  0  3.924333  0
C  C55  1  0.44605702  0.72664857  0.45842473  1  0.460272  0  0.0625  0.108827  0  3.924434  0
C  C56  1  0.44406594  0.19757614  0.45702160  1  -0.0092  0  -0.079613  -0.180339  0  3.953078  0
C  C57  1  0.55593396  0.80242348  0.54297726  1  -0.009108  0  -0.079647  -0.180397  0  3.953044  0
C  C58  1  0.55593462  0.19757586  0.54297873  1  -0.009182  0  -0.0796  -0.180346  0  3.95308  0
C  C59  1  0.44406332  0.80242431  0.45702215  1  -0.009152  0  -0.079633  -0.180376  0  3.952995  0
C  C60  1  0.50000141  0.15771695  0.49999971  1  0.02847  0  0.015463  0.112657  0  4.000481  0
C  C61  1  0.49999784  0.84228268  0.50000017  1  0.028449  0  0.015472  0.112646  0  4.000483  0
C  C62  1  0.67104668  0.50000405  0.50091535  1  1.506044  0  0.214388  0.596684  0  4.162419  0
C  C63  1  0.32895388  0.50000268  0.49908453  1  1.505972  0  0.214428  0.596725  0  4.162484  0
C  C64  1  0.57817054  0.03795132  0.50915766  1  -0.09473  0  -0.083425  -0.1183  0  3.982852  0
C  C65  1  0.42182805  0.96204775  0.49084170  1  -0.094726  0  -0.083489  -0.11841  0  3.982947  0
C  C66  1  0.42183060  0.03795262  0.49084353  1  0.079932  0  -0.083382  -0.11826  0  3.982926  0
C  C67  1  0.57816799  0.96204592  0.50915634  1  0.079797  0  -0.083442  -0.118335  0  3.982713  0
C  C68  1  0.49999687  0.92277278  0.49999906  1  0.047172  0  -0.003662  0.062075  0  4.001709  0
C  C69  1  0.50000172  0.07722630  0.50000031  1  0.047083  0  -0.003706  0.061993  0  4.00189  0
C  C70  1  0.18508577  0.56619971  0.49962411  1  -0.040713  0  -0.084664  -0.147395  0  3.939757  0
C  C71  1  0.81491348  0.43380210  0.50037627  1  -0.040921  0  -0.084628  -0.147356  0  3.939674  0
C  C72  1  0.23076726  0.50000165  0.49941659  1  0.005067  0  -0.021091  -0.026498  0  4.004008  0
C  C73  1  0.76923396  0.50000125  0.50058481  1  0.005037  0  -0.021165  -0.026612  0  4.003942  0
C  C74  1  0.18508745  0.43380317  0.49971893  1  -0.041067  0  -0.084534  -0.147627  0  3.939925  0
C  C75  1  0.81491310  0.56619919  0.50027994  1  -0.041112  0  -0.084495  -0.14753  0  3.939903  0
C  C76  1  0.09338445  0.43241821  0.49992375  1  -0.026321  0  -0.009134  0.075174  0  4.046013  0
C  C77  1  0.90661610  0.56758251  0.50007460  1  -0.026486  0  -0.009057  0.075212  0  4.045969  0
C  C78  1  0.04648899  0.50000081  0.49991987  1  0.086955  0  0.003743  0.005168  0  3.905611  0
C  C79  1  0.95351156  0.49999991  0.50007848  1  -0.072657  0  0.003628  0.005032  0  3.905614  0
C  C80  1  0.09338211  0.56758440  0.49982435  1  -0.026254  0  -0.009352  0.074808  0  4.045934  0
C  C81  1  0.90661648  0.43241632  0.50017501  1  -0.02625  0  -0.009383  0.074709  0  4.046001  0
C  C82  1  0.04466592  0.36544717  0.50007189  1  0.036558  0  -0.093977  -0.135749  0  4.02993  0
C  C83  1  0.95533529  0.63455410  0.49992749  1  0.036777  0  -0.094003  -0.135754  0  4.029947  0
I  I84  1  0.49935618  0.66710215  0.13337436  1  0.077521  0  0.032959  -0.07154  0  1.319769  0
I  I85  1  0.50064372  0.33289420  0.86662552  1  0.077034  0  0.032946  -0.07154  0  1.319699  0
I  I86  1  0.50066676  0.66709770  0.86662717  1  0.077064  0  0.03293  -0.071552  0  1.319679  0
I  I87  1  0.49934689  0.33290028  0.13337732  1  0.077497  0  0.03296  -0.071522  0  1.319761  0
N  N88  1  0.49999946  0.31068192  0.50000109  1  -1.25026  0  -0.318028  -0.196812  0  3.512623  0
N  N89  1  0.49999782  0.68931825  0.49999877  1  -1.250271  0  -0.31807  -0.196904  0  3.512683  0
O  O90  1  0.50113087  0.43799833  0.60434033  1  -1.169667  0  -0.31719  -0.546491  0  2.316062  0
O  O91  1  0.49887101  0.56200075  0.39566259  1  -1.169646  0  -0.317115  -0.546478  0  2.31612  0
O  O92  1  0.49886916  0.43800050  0.39566199  1  -1.169548  0  -0.317202  -0.546579  0  2.316278  0
O  O93  1  0.50113140  0.56199803  0.60433941  1  -1.169548  0  -0.317187  -0.54655  0  2.316376  0
O  O94  1  0.63306957  0.43805539  0.50103252  1  -1.171859  0  -0.319464  -0.551292  0  2.330477  0
O  O95  1  0.36693230  0.56194860  0.49896685  1  -1.172063  0  -0.31943  -0.551272  0  2.330608  0
O  O96  1  0.36693114  0.43805536  0.49897690  1  -1.171977  0  -0.319588  -0.551381  0  2.330508  0
O  O97  1  0.63306746  0.56194918  0.50102449  1  -1.172212  0  -0.319471  -0.551277  0  2.330598  0
