# generated using pymatgen
data_HoH4C12(O4F3)2
_symmetry_space_group_name_H-M   'P 1'
_cell_length_a   8.77755208
_cell_length_b   8.77776648
_cell_length_c   11.16546742
_cell_angle_alpha   107.22266808
_cell_angle_beta   110.23454961
_cell_angle_gamma   100.53655955
_symmetry_Int_Tables_number   1
_chemical_formula_structural   HoH4C12(O4F3)2
_chemical_formula_sum   'Ho2 H8 C24 O16 F12'
_cell_volume   730.88458160
_cell_formula_units_Z   2
loop_
 _symmetry_equiv_pos_site_id
 _symmetry_equiv_pos_as_xyz
  1  'x, y, z'
loop_
 _atom_site_type_symbol
 _atom_site_label
 _atom_site_symmetry_multiplicity
 _atom_site_fract_x
 _atom_site_fract_y
 _atom_site_fract_z
 _atom_site_occupancy
 _atom_site_hle17_bader_spin_density
 _atom_site_hle17_ddec_charge
 _atom_site_hle17_ddec_spin_density
 _atom_site_hle17_ddec_sum_bond_order
 _atom_site_hle17_magmom
 _atom_site_hse06_10hf_bader_spin_density
 _atom_site_hse06_10hf_ddec_charge
 _atom_site_hse06_10hf_ddec_spin_density
 _atom_site_hse06_10hf_ddec_sum_bond_order
 _atom_site_hse06_10hf_magmom
 _atom_site_hse06_bader_spin_density
 _atom_site_hse06_ddec_charge
 _atom_site_hse06_ddec_spin_density
 _atom_site_hse06_ddec_sum_bond_order
 _atom_site_hse06_magmom
 _atom_site_pbe_bader_spin_density
 _atom_site_pbe_cm5_charge
 _atom_site_pbe_ddec_charge
 _atom_site_pbe_ddec_spin_density
 _atom_site_pbe_ddec_sum_bond_order
 _atom_site_pbe_magmom
Ho  Ho0  1  0.36875270  0.16113274  0.53004387  1  0  2.254887  0  1.58908  0  0  2.110696  0  2.061118  0  0  2.244994  0  1.860299  0  0  1.510587  2.074648  0  2.090487  0
Ho  Ho1  1  0.63124650  0.83886915  0.46995386  1  0  2.254918  0  1.58906  0  0  2.11073  0  2.061103  0  0  2.245036  0  1.860279  0  0  1.51059  2.074732  0  2.090391  0
H  H2  1  0.53358019  0.53556520  0.63601313  1  0  0.469666  0  0.794612  0  0  0.440718  0  0.857927  0  0  0.451341  0  0.842384  0  0  0.322393  0.43345  0  0.868722  0
H  H3  1  0.89966163  0.89721136  0.36385336  1  0  0.470156  0  0.79503  0  0  0.441137  0  0.85775  0  0  0.451785  0  0.84217  0  0  0.322461  0.433827  0  0.868613  0
H  H4  1  0.46641888  0.46442911  0.36398639  1  0  0.469613  0  0.794684  0  0  0.440684  0  0.85795  0  0  0.451309  0  0.842403  0  0  0.322421  0.43342  0  0.868735  0
H  H5  1  0.10033707  0.10278548  0.63614753  1  0  0.470171  0  0.795056  0  0  0.441157  0  0.857728  0  0  0.451804  0  0.842148  0  0  0.322477  0.433846  0  0.868592  0
H  H6  1  0.49643845  0.50087273  0.75211827  1  0  0.45032  0  0.795812  0  0  0.4301  0  0.851665  0  0  0.438763  0  0.842149  0  0  0.331068  0.42417  0  0.858446  0
H  H7  1  0.74861521  0.74424820  0.24782404  1  0  0.451072  0  0.794496  0  0  0.430577  0  0.850853  0  0  0.439239  0  0.841634  0  0  0.331458  0.424676  0  0.857584  0
H  H8  1  0.50356105  0.49912284  0.24788165  1  0  0.450284  0  0.795936  0  0  0.430102  0  0.851729  0  0  0.438765  0  0.842157  0  0  0.331057  0.424171  0  0.858513  0
H  H9  1  0.25137950  0.25575122  0.75217636  1  0  0.451063  0  0.794494  0  0  0.43057  0  0.850854  0  0  0.439231  0  0.841643  0  0  0.331459  0.424668  0  0.857584  0
C  C10  1  0.37004601  0.86350564  0.23300805  1  0  0.761885  0  3.830902  0  0  0.712388  0  4.126436  0  0  0.74886  0  4.120215  0  0  0.23377  0.687593  0  4.135781  0
C  C11  1  0.62995403  0.13649877  0.76699228  1  0  0.762068  0  3.830956  0  0  0.712504  0  4.126491  0  0  0.748978  0  4.120261  0  0  0.233796  0.68771  0  4.135833  0
C  C12  1  0.23943632  0.86350675  0.10219083  1  0  -0.174258  0  3.700662  0  0  -0.180689  0  3.96891  0  0  -0.182851  0  3.979082  0  0  -0.012485  -0.178898  0  3.96132  0
C  C13  1  0.76056451  0.13649639  0.89780854  1  0  -0.174532  0  3.701079  0  0  -0.180723  0  3.968971  0  0  -0.182888  0  3.979145  0  0  -0.012525  -0.178933  0  3.961382  0
C  C14  1  0.07128916  0.75693125  0.03831732  1  0  0.201928  0  3.781729  0  0  0.159814  0  4.094028  0  0  0.16828  0  4.100862  0  0  0.091891  0.153674  0  4.089557  0
C  C15  1  0.71792864  0.03224850  0.96176305  1  0  0.202096  0  3.785831  0  0  0.159748  0  4.097573  0  0  0.16823  0  4.104415  0  0  0.0923  0.153569  0  4.093183  0
C  C16  1  0.92871278  0.24306429  0.96167789  1  0  0.201882  0  3.782162  0  0  0.159732  0  4.09439  0  0  0.168198  0  4.101224  0  0  0.091898  0.153592  0  4.089918  0
C  C17  1  0.28207344  0.96775840  0.03824112  1  0  0.201944  0  3.786111  0  0  0.15964  0  4.097946  0  0  0.16812  0  4.104789  0  0  0.092271  0.153461  0  4.093557  0
C  C18  1  0.95307228  0.74984010  0.91390926  1  0  0.215891  0  3.77245  0  0  0.175383  0  4.084702  0  0  0.186286  0  4.093067  0  0  0.097591  0.167907  0  4.07905  0
C  C19  1  0.83526323  0.03846140  0.08616886  1  0  0.21439  0  3.774585  0  0  0.175118  0  4.085213  0  0  0.185997  0  4.093581  0  0  0.096486  0.16748  0  4.079725  0
C  C20  1  0.04693050  0.25015795  0.08608856  1  0  0.216086  0  3.772231  0  0  0.175506  0  4.084542  0  0  0.18641  0  4.092909  0  0  0.097618  0.168031  0  4.07889  0
C  C21  1  0.16474199  0.96154040  0.91383588  1  0  0.214433  0  3.774505  0  0  0.175179  0  4.085135  0  0  0.186059  0  4.093505  0  0  0.096507  0.167541  0  4.079648  0
C  C22  1  0.99611649  0.84964127  0.84501367  1  0  -0.231782  0  3.734845  0  0  -0.236813  0  4.005581  0  0  -0.245824  0  4.024241  0  0  -0.030905  -0.230606  0  3.992808  0
C  C23  1  0.00388470  0.15035933  0.15498699  1  0  -0.231866  0  3.734919  0  0  -0.236881  0  4.005673  0  0  -0.245896  0  4.02434  0  0  -0.03092  -0.230676  0  3.992901  0
C  C24  1  0.87189761  0.83582998  0.70700300  1  0  0.674328  0  3.908844  0  0  0.628344  0  4.209668  0  0  0.659849  0  4.213134  0  0  0.193706  0.606023  0  4.213485  0
C  C25  1  0.12810764  0.16417184  0.29299637  1  0  0.67435  0  3.909044  0  0  0.628361  0  4.209846  0  0  0.65987  0  4.213308  0  0  0.19375  0.606043  0  4.213657  0
C  C26  1  0.73912575  0.23930666  0.50009876  1  0  0.787541  0  3.808054  0  0  0.739603  0  4.100653  0  0  0.777309  0  4.088972  0  0  0.246784  0.714576  0  4.110661  0
C  C27  1  0.26087017  0.76069274  0.49990197  1  0  0.787409  0  3.808234  0  0  0.739453  0  4.100849  0  0  0.777164  0  4.089173  0  0  0.2468  0.714421  0  4.110852  0
C  C28  1  0.87353829  0.37365035  0.49999046  1  0  -0.192567  0  3.738238  0  0  -0.199307  0  4.00316  0  0  -0.202741  0  4.013402  0  0  -0.018924  -0.196789  0  3.995208  0
C  C29  1  0.12646165  0.62634648  0.50000718  1  0  -0.192554  0  3.738209  0  0  -0.199227  0  4.00305  0  0  -0.202663  0  4.013295  0  0  -0.018934  -0.196704  0  3.99509  0
C  C30  1  0.86311962  0.39140664  0.37815085  1  0  0.200086  0  3.802138  0  0  0.165789  0  4.104787  0  0  0.175107  0  4.112161  0  0  0.090171  0.159301  0  4.099639  0
C  C31  1  0.01305133  0.48493679  0.62183174  1  0  0.199563  0  3.801904  0  0  0.165432  0  4.104472  0  0  0.174759  0  4.111824  0  0  0.089885  0.158992  0  4.099354  0
C  C32  1  0.13688229  0.60858889  0.62184884  1  0  0.200137  0  3.802113  0  0  0.165774  0  4.104838  0  0  0.175091  0  4.112216  0  0  0.090163  0.159288  0  4.099684  0
C  C33  1  0.98694703  0.51506258  0.37816607  1  0  0.199494  0  3.801941  0  0  0.165381  0  4.104404  0  0  0.174706  0  4.111761  0  0  0.089883  0.158942  0  4.099283  0
O  O34  1  0.38837623  0.96212019  0.35006407  1  0  -0.804315  0  2.17919  0  0  -0.746431  0  2.435185  0  0  -0.79411  0  2.425743  0  0  -0.401122  -0.726352  0  2.439628  0
O  O35  1  0.61162779  0.03788163  0.64993855  1  0  -0.804389  0  2.179236  0  0  -0.746482  0  2.435208  0  0  -0.794161  0  2.42576  0  0  -0.401151  -0.726408  0  2.43965  0
O  O36  1  0.45683963  0.76495843  0.22149955  1  0  -0.667626  0  1.91227  0  0  -0.631825  0  2.143703  0  0  -0.663837  0  2.128999  0  0  -0.354261  -0.61563  0  2.151934  0
O  O37  1  0.54316284  0.23504595  0.77849966  1  0  -0.66767  0  1.912344  0  0  -0.631881  0  2.143806  0  0  -0.663888  0  2.129099  0  0  -0.354242  -0.615681  0  2.152039  0
O  O38  1  0.91737955  0.92933472  0.64863795  1  0  -0.68078  0  1.972434  0  0  -0.638248  0  2.212439  0  0  -0.670744  0  2.202763  0  0  -0.372413  -0.621931  0  2.218152  0
O  O39  1  0.27983621  0.26821264  0.35131626  1  0  -0.681406  0  1.969712  0  0  -0.638795  0  2.209815  0  0  -0.671321  0  2.200121  0  0  -0.372861  -0.622548  0  2.215645  0
O  O40  1  0.08262129  0.07066842  0.35136052  1  0  -0.68087  0  1.9726  0  0  -0.638334  0  2.212601  0  0  -0.670829  0  2.202922  0  0  -0.372485  -0.622015  0  2.21833  0
O  O41  1  0.72016741  0.73178793  0.64868238  1  0  -0.681499  0  1.969711  0  0  -0.638899  0  2.209855  0  0  -0.671425  0  2.200162  0  0  -0.372888  -0.622657  0  2.215688  0
O  O42  1  0.62497286  0.28554932  0.53137778  1  0  -0.709125  0  2.023559  0  0  -0.66484  0  2.276958  0  0  -0.702002  0  2.261194  0  0  -0.386218  -0.646743  0  2.284219  0
O  O43  1  0.75415935  0.09392764  0.46890749  1  0  -0.708973  0  2.024886  0  0  -0.664741  0  2.278458  0  0  -0.701884  0  2.26268  0  0  -0.385871  -0.64655  0  2.285648  0
O  O44  1  0.37502270  0.71445262  0.46862165  1  0  -0.709083  0  2.023663  0  0  -0.66482  0  2.277111  0  0  -0.70197  0  2.261315  0  0  -0.38621  -0.646747  0  2.284415  0
O  O45  1  0.24583092  0.90607309  0.53109647  1  0  -0.708871  0  2.024736  0  0  -0.664657  0  2.278345  0  0  -0.70179  0  2.262547  0  0  -0.385894  -0.646472  0  2.285577  0
O  O46  1  0.44846743  0.46374535  0.65172708  1  0  -0.87717  0  1.831068  0  0  -0.834651  0  2.031333  0  0  -0.863261  0  1.998156  0  0  -0.612925  -0.821833  0  2.049418  0
O  O47  1  0.81195393  0.79655663  0.34820586  1  0  -0.879078  0  1.830665  0  0  -0.836408  0  2.031156  0  0  -0.865072  0  1.998232  0  0  -0.614163  -0.823624  0  2.049222  0
O  O48  1  0.55152807  0.53625279  0.34827324  1  0  -0.87707  0  1.831248  0  0  -0.834615  0  2.031495  0  0  -0.86322  0  1.99827  0  0  -0.612933  -0.821803  0  2.049582  0
O  O49  1  0.18804320  0.20344275  0.65179520  1  0  -0.879091  0  1.830684  0  0  -0.83642  0  2.031127  0  0  -0.865082  0  1.998204  0  0  -0.614196  -0.82363  0  2.049198  0
F  F50  1  0.01966413  0.65798957  0.09815822  1  0  -0.152051  0  1.275103  0  0  -0.103527  0  1.446412  0  0  -0.11079  0  1.434465  0  0  -0.081197  -0.098172  0  1.454482  0
F  F51  1  0.55925223  0.92076898  0.90194425  1  0  -0.152026  0  1.280079  0  0  -0.103596  0  1.451594  0  0  -0.110876  0  1.439652  0  0  -0.081115  -0.098235  0  1.45969  0
F  F52  1  0.98033807  0.34199587  0.90183382  1  0  -0.151982  0  1.275339  0  0  -0.103485  0  1.446679  0  0  -0.110747  0  1.434732  0  0  -0.081178  -0.098131  0  1.45475  0
F  F53  1  0.44074632  0.07924554  0.09806430  1  0  -0.151985  0  1.280328  0  0  -0.103543  0  1.451835  0  0  -0.110821  0  1.439895  0  0  -0.081114  -0.098182  0  1.459933  0
F  F54  1  0.79405344  0.64139293  0.86297996  1  0  -0.160554  0  1.272433  0  0  -0.107766  0  1.441333  0  0  -0.114819  0  1.429004  0  0  -0.074596  -0.102342  0  1.449607  0
F  F55  1  0.77779988  0.93038012  0.13717310  1  0  -0.160486  0  1.275301  0  0  -0.107609  0  1.443419  0  0  -0.114663  0  1.431101  0  0  -0.074197  -0.102231  0  1.451692  0
F  F56  1  0.20595092  0.35860259  0.13701502  1  0  -0.16068  0  1.272359  0  0  -0.107847  0  1.441249  0  0  -0.114902  0  1.42892  0  0  -0.074645  -0.102422  0  1.449525  0
F  F57  1  0.22219980  0.06962681  0.86282862  1  0  -0.160575  0  1.275264  0  0  -0.107684  0  1.443367  0  0  -0.114739  0  1.431049  0  0  -0.074236  -0.102307  0  1.451639  0
F  F58  1  0.72910680  0.28841329  0.25606870  1  0  -0.160633  0  1.275695  0  0  -0.119694  0  1.456977  0  0  -0.127911  0  1.445947  0  0  -0.088429  -0.113583  0  1.464266  0
F  F59  1  0.03187077  0.47297807  0.74394141  1  0  -0.160771  0  1.275407  0  0  -0.119778  0  1.456493  0  0  -0.127984  0  1.445451  0  0  -0.088823  -0.113702  0  1.463799  0
F  F60  1  0.27089070  0.71158357  0.74393097  1  0  -0.160631  0  1.275721  0  0  -0.119673  0  1.457027  0  0  -0.127892  0  1.445998  0  0  -0.088397  -0.113562  0  1.464312  0
F  F61  1  0.96812994  0.52701749  0.25605616  1  0  -0.160713  0  1.275434  0  0  -0.119733  0  1.456503  0  0  -0.12794  0  1.445464  0  0  -0.088786  -0.113654  0  1.463805  0
