# generated using pymatgen
data_HgH8C10S2(BrN)2
_symmetry_space_group_name_H-M   'P 1'
_cell_length_a   9.10943500
_cell_length_b   11.65693291
_cell_length_c   13.32072583
_cell_angle_alpha   89.99990579
_cell_angle_beta   90.00008295
_cell_angle_gamma   104.01383239
_symmetry_Int_Tables_number   1
_chemical_formula_structural   HgH8C10S2(BrN)2
_chemical_formula_sum   'Hg4 H32 C40 S8 Br8 N8'
_cell_volume   1372.40278730
_cell_formula_units_Z   4
loop_
 _symmetry_equiv_pos_site_id
 _symmetry_equiv_pos_as_xyz
  1  'x, y, z'
loop_
 _atom_site_type_symbol
 _atom_site_label
 _atom_site_symmetry_multiplicity
 _atom_site_fract_x
 _atom_site_fract_y
 _atom_site_fract_z
 _atom_site_occupancy
 _atom_site_hle17_bader_spin_density
 _atom_site_hle17_ddec_charge
 _atom_site_hle17_ddec_spin_density
 _atom_site_hle17_ddec_sum_bond_order
 _atom_site_hle17_magmom
 _atom_site_hse06_10hf_bader_spin_density
 _atom_site_hse06_10hf_ddec_charge
 _atom_site_hse06_10hf_ddec_spin_density
 _atom_site_hse06_10hf_ddec_sum_bond_order
 _atom_site_hse06_10hf_magmom
 _atom_site_hse06_bader_spin_density
 _atom_site_hse06_ddec_charge
 _atom_site_hse06_ddec_spin_density
 _atom_site_hse06_ddec_sum_bond_order
 _atom_site_hse06_magmom
 _atom_site_pbe_bader_spin_density
 _atom_site_pbe_cm5_charge
 _atom_site_pbe_ddec_charge
 _atom_site_pbe_ddec_spin_density
 _atom_site_pbe_ddec_sum_bond_order
 _atom_site_pbe_magmom
Hg  Hg0  1  0.51761448  0.12900064  0.12802021  1  0  0.651609  0  2.109302  0  0  0.505814  0  2.606468  0  0  0.555184  0  2.572569  0  0  0.444789  0.472426  0  2.629012  0
Hg  Hg1  1  0.01761430  0.62900064  0.37198079  1  0  0.651612  0  2.109309  0  0  0.505816  0  2.60648  0  0  0.555186  0  2.572579  0  0  0.444792  0.47243  0  2.629021  0
Hg  Hg2  1  0.48238562  0.87100185  0.87198062  1  0  0.651633  0  2.10931  0  0  0.505838  0  2.606482  0  0  0.555208  0  2.57258  0  0  0.444804  0.472448  0  2.629027  0
Hg  Hg3  1  0.98238523  0.37100009  0.62801930  1  0  0.651638  0  2.109277  0  0  0.505845  0  2.606445  0  0  0.555214  0  2.572543  0  0  0.444801  0.472455  0  2.62898  0
H  H4  1  0.97383826  0.99228098  0.35103920  1  0  0.102787  0  0.999191  0  0  0.106806  0  1.072341  0  0  0.110476  0  1.071041  0  0  0.088157  0.104164  0  1.073435  0
H  H5  1  0.47383628  0.49228128  0.14896023  1  0  0.102757  0  0.999205  0  0  0.106772  0  1.072366  0  0  0.110441  0  1.071063  0  0  0.088143  0.104129  0  1.073449  0
H  H6  1  0.02616290  0.00771797  0.64895864  1  0  0.10277  0  0.999175  0  0  0.106781  0  1.072343  0  0  0.110452  0  1.071042  0  0  0.088141  0.104139  0  1.073429  0
H  H7  1  0.52616050  0.50771769  0.85103986  1  0  0.102778  0  0.999128  0  0  0.106802  0  1.072284  0  0  0.110473  0  1.070983  0  0  0.088147  0.10416  0  1.073374  0
H  H8  1  0.79679636  0.86927798  0.47261290  1  0  0.090221  0  0.950456  0  0  0.102009  0  1.011127  0  0  0.103741  0  1.01065  0  0  0.0992  0.10077  0  1.011426  0
H  H9  1  0.29679418  0.36927847  0.02738803  1  0  0.090228  0  0.950419  0  0  0.101995  0  1.011108  0  0  0.103727  0  1.010629  0  0  0.099204  0.100735  0  1.01143  0
H  H10  1  0.20320452  0.13072009  0.52738568  1  0  0.09023  0  0.95043  0  0  0.102002  0  1.011121  0  0  0.103733  0  1.010642  0  0  0.099217  0.100759  0  1.011426  0
H  H11  1  0.70320370  0.63072050  0.97261206  1  0  0.090243  0  0.950448  0  0  0.10202  0  1.011125  0  0  0.103752  0  1.010646  0  0  0.099212  0.10078  0  1.011424  0
H  H12  1  0.51798565  0.86749131  0.46410948  1  0  0.103077  0  0.959866  0  0  0.111698  0  1.023467  0  0  0.114427  0  1.023507  0  0  0.098228  0.109726  0  1.02365  0
H  H13  1  0.01798292  0.36749002  0.03589118  1  0  0.103143  0  0.959847  0  0  0.111743  0  1.023462  0  0  0.114472  0  1.023502  0  0  0.09824  0.109769  0  1.023652  0
H  H14  1  0.48201498  0.13250941  0.53588986  1  0  0.103112  0  0.959852  0  0  0.111713  0  1.023471  0  0  0.114441  0  1.02351  0  0  0.09823  0.109744  0  1.023657  0
H  H15  1  0.98201357  0.63250807  0.96410891  1  0  0.103135  0  0.959834  0  0  0.111739  0  1.023448  0  0  0.114467  0  1.023487  0  0  0.098241  0.109767  0  1.02363  0
H  H16  1  0.43219072  0.98615329  0.33058134  1  0  0.075235  0  0.962243  0  0  0.077773  0  1.039015  0  0  0.080802  0  1.035738  0  0  0.098222  0.07552  0  1.041504  0
H  H17  1  0.93218905  0.48615413  0.16942031  1  0  0.075248  0  0.962198  0  0  0.077772  0  1.039  0  0  0.0808  0  1.035724  0  0  0.098219  0.075519  0  1.04149  0
H  H18  1  0.56781019  0.01384831  0.66941950  1  0  0.075254  0  0.962185  0  0  0.077787  0  1.038969  0  0  0.080816  0  1.035693  0  0  0.098225  0.075535  0  1.041455  0
H  H19  1  0.06781048  0.51384660  0.83058053  1  0  0.075247  0  0.962197  0  0  0.07778  0  1.038981  0  0  0.080809  0  1.035705  0  0  0.098228  0.075531  0  1.041469  0
H  H20  1  0.58092344  0.26522299  0.33507043  1  0  0.076461  0  0.960648  0  0  0.080481  0  1.033538  0  0  0.083568  0  1.030276  0  0  0.097298  0.078212  0  1.036049  0
H  H21  1  0.08092236  0.76522155  0.16493044  1  0  0.076428  0  0.960676  0  0  0.080441  0  1.033574  0  0  0.083526  0  1.030313  0  0  0.097286  0.078174  0  1.036084  0
H  H22  1  0.41907828  0.73477772  0.66492966  1  0  0.076443  0  0.960661  0  0  0.080458  0  1.033564  0  0  0.083543  0  1.030303  0  0  0.097293  0.078188  0  1.036074  0
H  H23  1  0.91907689  0.23477830  0.83507040  1  0  0.076457  0  0.960638  0  0  0.080474  0  1.033536  0  0  0.08356  0  1.030275  0  0  0.097302  0.078206  0  1.036047  0
H  H24  1  0.49946287  0.39209791  0.46350924  1  0  0.099147  0  0.969177  0  0  0.106553  0  1.036621  0  0  0.109716  0  1.035502  0  0  0.092833  0.104329  0  1.037508  0
H  H25  1  0.99946105  0.89209812  0.03649261  1  0  0.09917  0  0.969177  0  0  0.106579  0  1.03661  0  0  0.109741  0  1.035493  0  0  0.092843  0.104353  0  1.037505  0
H  H26  1  0.50053911  0.60790015  0.53649310  1  0  0.099167  0  0.969177  0  0  0.106574  0  1.036616  0  0  0.109737  0  1.035498  0  0  0.092837  0.104348  0  1.037503  0
H  H27  1  0.00053848  0.10790261  0.96350898  1  0  0.09916  0  0.969177  0  0  0.106567  0  1.036617  0  0  0.109729  0  1.035499  0  0  0.09284  0.104344  0  1.037507  0
H  H28  1  0.22433331  0.39991444  0.46765452  1  0  0.076084  0  0.993337  0  0  0.081256  0  1.071295  0  0  0.083709  0  1.06894  0  0  0.08273  0.079407  0  1.073023  0
H  H29  1  0.72433229  0.89991377  0.03234630  1  0  0.076079  0  0.993373  0  0  0.081255  0  1.071319  0  0  0.083708  0  1.068961  0  0  0.082717  0.079405  0  1.073049  0
H  H30  1  0.77566923  0.60008539  0.53234707  1  0  0.076084  0  0.993382  0  0  0.081258  0  1.071331  0  0  0.08371  0  1.068978  0  0  0.082725  0.079409  0  1.073066  0
H  H31  1  0.27566724  0.10008696  0.96765454  1  0  0.076055  0  0.993402  0  0  0.081231  0  1.07135  0  0  0.083688  0  1.06898  0  0  0.082704  0.079372  0  1.073104  0
H  H32  1  0.04361928  0.27490386  0.34786075  1  0  0.106464  0  0.997971  0  0  0.108597  0  1.073599  0  0  0.112544  0  1.072047  0  0  0.086857  0.105771  0  1.074844  0
H  H33  1  0.54361818  0.77490212  0.15213857  1  0  0.106447  0  0.998013  0  0  0.108576  0  1.073636  0  0  0.11252  0  1.072087  0  0  0.086859  0.105749  0  1.074881  0
H  H34  1  0.95638328  0.72509951  0.65213859  1  0  0.10643  0  0.99802  0  0  0.108561  0  1.073646  0  0  0.112506  0  1.072096  0  0  0.086855  0.105734  0  1.074891  0
H  H35  1  0.45637969  0.22509685  0.84786077  1  0  0.106459  0  0.998002  0  0  0.108596  0  1.07362  0  0  0.112542  0  1.072068  0  0  0.086862  0.105768  0  1.07487  0
C  C36  1  0.79535518  0.05589416  0.27853848  1  0  0.198208  0  3.767021  0  0  0.199404  0  4.028169  0  0  0.209154  0  4.048612  0  0  0.112353  0.19274  0  4.014395  0
C  C37  1  0.29535365  0.55589439  0.22146140  1  0  0.198195  0  3.767017  0  0  0.19938  0  4.028188  0  0  0.209129  0  4.04863  0  0  0.112347  0.192722  0  4.014398  0
C  C38  1  0.20464489  0.94410480  0.72146086  1  0  0.198171  0  3.767037  0  0  0.199374  0  4.02818  0  0  0.209124  0  4.048622  0  0  0.112332  0.192705  0  4.014409  0
C  C39  1  0.70464531  0.44410457  0.77853869  1  0  0.198201  0  3.76704  0  0  0.199406  0  4.028181  0  0  0.209156  0  4.048622  0  0  0.11236  0.192746  0  4.014399  0
C  C40  1  0.85380361  0.99055728  0.34931251  1  0  -0.1552  0  3.72795  0  0  -0.171542  0  3.973469  0  0  -0.179893  0  3.994687  0  0  -0.095542  -0.166146  0  3.959329  0
C  C41  1  0.35380273  0.49055757  0.15068681  1  0  -0.155159  0  3.727956  0  0  -0.171508  0  3.973503  0  0  -0.179853  0  3.994717  0  0  -0.095538  -0.166109  0  3.959344  0
C  C42  1  0.14619727  0.00944079  0.65068608  1  0  -0.155198  0  3.727861  0  0  -0.171548  0  3.9734  0  0  -0.179899  0  3.994618  0  0  -0.095547  -0.166146  0  3.959251  0
C  C43  1  0.64619624  0.50944139  0.84931328  1  0  -0.155227  0  3.727956  0  0  -0.171583  0  3.973475  0  0  -0.179934  0  3.994693  0  0  -0.09556  -0.166186  0  3.959331  0
C  C44  1  0.75374471  0.92143843  0.41698750  1  0  0.02095  0  3.711711  0  0  0.004335  0  3.957208  0  0  0.0096  0  3.97398  0  0  -0.070557  0.001158  0  3.945622  0
C  C45  1  0.25374481  0.42143882  0.08301257  1  0  0.020875  0  3.711604  0  0  0.004294  0  3.957097  0  0  0.009559  0  3.973868  0  0  -0.070608  0.001129  0  3.94552  0
C  C46  1  0.24625645  0.07856052  0.58301109  1  0  0.020945  0  3.711632  0  0  0.004351  0  3.957131  0  0  0.009617  0  3.973902  0  0  -0.070574  0.001175  0  3.945551  0
C  C47  1  0.74625525  0.57856013  0.91698752  1  0  0.020986  0  3.711684  0  0  0.004391  0  3.957175  0  0  0.009656  0  3.973946  0  0  -0.070546  0.001209  0  3.945591  0
C  C48  1  0.60017129  0.91999358  0.41259427  1  0  -0.13396  0  3.74307  0  0  -0.148388  0  3.996193  0  0  -0.155453  0  4.017021  0  0  -0.095749  -0.1439  0  3.98222  0
C  C49  1  0.10016921  0.41999397  0.08740640  1  0  -0.133961  0  3.742992  0  0  -0.14838  0  3.996108  0  0  -0.155444  0  4.016935  0  0  -0.095737  -0.143891  0  3.982134  0
C  C50  1  0.39983043  0.08000714  0.58740507  1  0  -0.134014  0  3.743117  0  0  -0.148426  0  3.996242  0  0  -0.155492  0  4.01707  0  0  -0.095756  -0.143943  0  3.982279  0
C  C51  1  0.89982895  0.58000588  0.91259369  1  0  -0.134071  0  3.743058  0  0  -0.148487  0  3.996187  0  0  -0.155553  0  4.017013  0  0  -0.095791  -0.143997  0  3.982215  0
C  C52  1  0.55163913  0.98693326  0.33896683  1  0  0.134717  0  3.708802  0  0  0.104407  0  3.964558  0  0  0.112206  0  3.982321  0  0  0.039035  0.099361  0  3.952447  0
C  C53  1  0.05163826  0.48693353  0.16103369  1  0  0.134654  0  3.708759  0  0  0.104356  0  3.964493  0  0  0.112154  0  3.982259  0  0  0.039032  0.099306  0  3.952384  0
C  C54  1  0.44836150  0.01306747  0.66103251  1  0  0.13468  0  3.708726  0  0  0.104372  0  3.964481  0  0  0.112171  0  3.982245  0  0  0.039023  0.09933  0  3.952355  0
C  C55  1  0.94836127  0.51306720  0.83896640  1  0  0.134706  0  3.708722  0  0  0.104403  0  3.964472  0  0  0.112199  0  3.98224  0  0  0.039038  0.099347  0  3.952372  0
C  C56  1  0.46252079  0.26842016  0.34128774  1  0  0.135884  0  3.713295  0  0  0.108843  0  3.966696  0  0  0.116394  0  3.983512  0  0  0.038293  0.103883  0  3.955348  0
C  C57  1  0.96251998  0.76841929  0.15871200  1  0  0.135898  0  3.71335  0  0  0.108878  0  3.966712  0  0  0.116433  0  3.983532  0  0  0.038311  0.103917  0  3.955366  0
C  C58  1  0.53748093  0.73158056  0.65871159  1  0  0.135905  0  3.713347  0  0  0.108872  0  3.966723  0  0  0.116427  0  3.983543  0  0  0.038305  0.103908  0  3.955372  0
C  C59  1  0.03747899  0.23157967  0.84128809  1  0  0.135937  0  3.713325  0  0  0.108898  0  3.966708  0  0  0.11645  0  3.98353  0  0  0.038308  0.103937  0  3.955363  0
C  C60  1  0.41647417  0.33993981  0.41222299  1  0  -0.1398  0  3.755411  0  0  -0.153986  0  4.007494  0  0  -0.160633  0  4.028404  0  0  -0.099643  -0.14974  0  3.993466  0
C  C61  1  0.91647324  0.83993905  0.08777735  1  0  -0.139811  0  3.755483  0  0  -0.154002  0  4.007562  0  0  -0.160653  0  4.028474  0  0  -0.099655  -0.149762  0  3.99354  0
C  C62  1  0.58352728  0.66006003  0.58777784  1  0  -0.139844  0  3.755428  0  0  -0.154031  0  4.007514  0  0  -0.16068  0  4.028425  0  0  -0.099667  -0.149783  0  3.993484  0
C  C63  1  0.08352601  0.16006080  0.91222349  1  0  -0.139867  0  3.75552  0  0  -0.154051  0  4.007603  0  0  -0.160701  0  4.028515  0  0  -0.099667  -0.149811  0  3.993584  0
C  C64  1  0.26421428  0.34308710  0.41442475  1  0  0.001551  0  3.736967  0  0  -0.013836  0  3.984999  0  0  -0.010509  0  4.004522  0  0  -0.076152  -0.015698  0  3.971601  0
C  C65  1  0.76421335  0.84308634  0.08557469  1  0  0.00153  0  3.736942  0  0  -0.01386  0  3.98497  0  0  -0.010534  0  4.004496  0  0  -0.076158  -0.015712  0  3.971571  0
C  C66  1  0.73578826  0.65691273  0.58557534  1  0  0.001532  0  3.736908  0  0  -0.01386  0  3.98493  0  0  -0.010534  0  4.004454  0  0  -0.076158  -0.01572  0  3.97154  0
C  C67  1  0.23578590  0.15691350  0.91442540  1  0  0.001567  0  3.737001  0  0  -0.013818  0  3.985019  0  0  -0.01049  0  4.004548  0  0  -0.076135  -0.015669  0  3.971616  0
C  C68  1  0.16284956  0.27371809  0.34750572  1  0  -0.158009  0  3.720492  0  0  -0.172994  0  3.962753  0  0  -0.18142  0  3.984985  0  0  -0.095952  -0.167476  0  3.947771  0
C  C69  1  0.66284846  0.77371634  0.15249371  1  0  -0.158009  0  3.720469  0  0  -0.17298  0  3.962741  0  0  -0.181407  0  3.984978  0  0  -0.095939  -0.167462  0  3.947764  0
C  C70  1  0.83715135  0.72628352  0.65249362  1  0  -0.158009  0  3.720504  0  0  -0.172984  0  3.962783  0  0  -0.181412  0  3.985019  0  0  -0.095949  -0.16747  0  3.947806  0
C  C71  1  0.33715051  0.22628262  0.84750562  1  0  -0.157945  0  3.720517  0  0  -0.172919  0  3.96277  0  0  -0.181348  0  3.985005  0  0  -0.09593  -0.167403  0  3.947794  0
C  C72  1  0.21982315  0.20428850  0.27922424  1  0  0.196049  0  3.77432  0  0  0.199382  0  4.034252  0  0  0.209199  0  4.053882  0  0  0.11205  0.192687  0  4.02094  0
C  C73  1  0.71982107  0.70428665  0.22077536  1  0  0.196122  0  3.774209  0  0  0.199446  0  4.034145  0  0  0.209263  0  4.053779  0  0  0.112083  0.192741  0  4.02085  0
C  C74  1  0.78017913  0.79571399  0.72077510  1  0  0.196154  0  3.774244  0  0  0.199476  0  4.034185  0  0  0.209294  0  4.053819  0  0  0.112075  0.19278  0  4.02087  0
C  C75  1  0.28017761  0.29571143  0.77922398  1  0  0.196026  0  3.774347  0  0  0.199335  0  4.034308  0  0  0.209152  0  4.053944  0  0  0.112055  0.192636  0  4.021  0
S  S76  1  0.90579609  0.15162267  0.18789701  1  0  -0.004369  0  2.503278  0  0  -0.00702  0  2.87923  0  0  -0.010022  0  2.878554  0  0  0.047687  -0.004747  0  2.87981  0
S  S77  1  0.40579662  0.65162187  0.31210360  1  0  -0.004336  0  2.503272  0  0  -0.006982  0  2.879215  0  0  -0.009984  0  2.87854  0  0  0.047689  -0.004714  0  2.879783  0
S  S78  1  0.09420454  0.84837805  0.81210308  1  0  -0.004327  0  2.503247  0  0  -0.00698  0  2.879196  0  0  -0.009982  0  2.87852  0  0  0.047707  -0.004709  0  2.879776  0
S  S79  1  0.59420344  0.34837708  0.68789649  1  0  -0.004351  0  2.503287  0  0  -0.007003  0  2.879227  0  0  -0.010005  0  2.878551  0  0  0.047687  -0.004736  0  2.879806  0
S  S80  1  0.10867690  0.10843437  0.18875395  1  0  0.004839  0  2.516987  0  0  0.0042  0  2.893374  0  0  0.001061  0  2.893261  0  0  0.051458  0.006646  0  2.893561  0
S  S81  1  0.60867825  0.60843236  0.31124642  1  0  0.004817  0  2.517  0  0  0.004189  0  2.89338  0  0  0.001048  0  2.893264  0  0  0.051465  0.006635  0  2.893563  0
S  S82  1  0.89132319  0.89156813  0.81124538  1  0  0.004789  0  2.51697  0  0  0.004156  0  2.893364  0  0  0.001014  0  2.89325  0  0  0.051446  0.006603  0  2.893542  0
S  S83  1  0.39132263  0.39156570  0.68875292  1  0  0.004841  0  2.517033  0  0  0.004217  0  2.893425  0  0  0.001076  0  2.893311  0  0  0.051455  0.006664  0  2.893606  0
Br  Br84  1  0.65075814  0.33689340  0.08047167  1  0  -0.388101  0  1.034992  0  0  -0.332967  0  1.334991  0  0  -0.351977  0  1.319371  0  0  -0.216951  -0.320099  0  1.345712  0
Br  Br85  1  0.15075804  0.83689332  0.41952841  1  0  -0.388096  0  1.034985  0  0  -0.332963  0  1.334986  0  0  -0.351975  0  1.319369  0  0  -0.216956  -0.320097  0  1.345707  0
Br  Br86  1  0.34924277  0.66310821  0.91952767  1  0  -0.38811  0  1.034988  0  0  -0.332975  0  1.334987  0  0  -0.351987  0  1.31937  0  0  -0.216958  -0.32011  0  1.345709  0
Br  Br87  1  0.84924259  0.16310741  0.58047092  1  0  -0.388112  0  1.034978  0  0  -0.332974  0  1.334969  0  0  -0.351982  0  1.319346  0  0  -0.216967  -0.320114  0  1.34569  0
Br  Br88  1  0.34625376  0.92489588  0.09812629  1  0  -0.410938  0  1.153053  0  0  -0.356572  0  1.487992  0  0  -0.377158  0  1.467905  0  0  -0.204209  -0.34246  0  1.501761  0
Br  Br89  1  0.84625439  0.42489546  0.40187386  1  0  -0.410942  0  1.153072  0  0  -0.356568  0  1.488007  0  0  -0.377154  0  1.467921  0  0  -0.204204  -0.342461  0  1.501776  0
Br  Br90  1  0.65374223  0.07510752  0.90187530  1  0  -0.410946  0  1.153088  0  0  -0.356574  0  1.488033  0  0  -0.377163  0  1.467947  0  0  -0.204211  -0.342466  0  1.501803  0
Br  Br91  1  0.15374624  0.57510527  0.59812623  1  0  -0.410948  0  1.153065  0  0  -0.356576  0  1.487999  0  0  -0.377162  0  1.467913  0  0  -0.204218  -0.342469  0  1.501762  0
N  N92  1  0.64742301  0.05369840  0.27298015  1  0  -0.33746  0  3.220128  0  0  -0.262899  0  3.472328  0  0  -0.284179  0  3.492769  0  0  -0.315544  -0.248389  0  3.458173  0
N  N93  1  0.14742259  0.55369862  0.22702109  1  0  -0.337432  0  3.22016  0  0  -0.262856  0  3.472331  0  0  -0.284134  0  3.492773  0  0  -0.315528  -0.248347  0  3.45817  0
N  N94  1  0.35257762  0.94630232  0.72701994  1  0  -0.337399  0  3.220112  0  0  -0.262832  0  3.472297  0  0  -0.284112  0  3.492739  0  0  -0.315504  -0.248318  0  3.458141  0
N  N95  1  0.85257694  0.44630211  0.77297975  1  0  -0.33745  0  3.220135  0  0  -0.26289  0  3.472326  0  0  -0.28417  0  3.492768  0  0  -0.315551  -0.248379  0  3.458169  0
N  N96  1  0.36626343  0.20171766  0.27569072  1  0  -0.345439  0  3.197281  0  0  -0.281353  0  3.45366  0  0  -0.30054  0  3.472283  0  0  -0.318884  -0.268129  0  3.440723  0
N  N97  1  0.86626217  0.70171492  0.22430902  1  0  -0.345453  0  3.197186  0  0  -0.281387  0  3.453605  0  0  -0.30056  0  3.472186  0  0  -0.318906  -0.268159  0  3.440675  0
N  N98  1  0.63373775  0.79828483  0.72430862  1  0  -0.345468  0  3.197209  0  0  -0.281394  0  3.453632  0  0  -0.300566  0  3.472212  0  0  -0.318889  -0.268167  0  3.440694  0
N  N99  1  0.13373651  0.29828316  0.77569032  1  0  -0.345457  0  3.197224  0  0  -0.281382  0  3.453654  0  0  -0.300554  0  3.472235  0  0  -0.318885  -0.268146  0  3.440702  0
