# generated using pymatgen
data_CuH15C15N3O2
_symmetry_space_group_name_H-M   'P 1'
_cell_length_a   13.71044822
_cell_length_b   13.71855219
_cell_length_c   25.55108693
_cell_angle_alpha   90.00006779
_cell_angle_beta   89.99883472
_cell_angle_gamma   90.01885113
_symmetry_Int_Tables_number   1
_chemical_formula_structural   CuH15C15N3O2
_chemical_formula_sum   'Cu8 H120 C120 N24 O16'
_cell_volume   4805.83978507
_cell_formula_units_Z   8
loop_
 _symmetry_equiv_pos_site_id
 _symmetry_equiv_pos_as_xyz
  1  'x, y, z'
loop_
 _atom_site_type_symbol
 _atom_site_label
 _atom_site_symmetry_multiplicity
 _atom_site_fract_x
 _atom_site_fract_y
 _atom_site_fract_z
 _atom_site_occupancy
 _atom_site_pbe_bader_charge
 _atom_site_pbe_bader_spin_density
 _atom_site_pbe_cm5_charge
 _atom_site_pbe_ddec_charge
 _atom_site_pbe_ddec_spin_density
 _atom_site_pbe_ddec_sum_bond_order
 _atom_site_pbe_magmom
Cu  Cu0  1  0.90988921  0.74629312  0.51988351  1  0.979045  0.322397  0.728771  0.674368  0.49904  2.439378  0.322
Cu  Cu1  1  0.09014567  0.25371565  0.51987219  1  0.979007  0.32234  0.728935  0.674542  0.498948  2.4396  0.322
Cu  Cu2  1  0.24684023  0.40969134  0.98029171  1  0.977645  0.324764  0.724523  0.671071  0.501248  2.440558  0.324
Cu  Cu3  1  0.75312838  0.59030897  0.98029565  1  0.977254  0.325009  0.72405  0.670829  0.501559  2.439375  0.325
Cu  Cu4  1  0.74592235  0.09046731  0.48025693  1  0.974454  -0.339049  0.722275  0.667488  -0.522714  2.435639  -0.339
Cu  Cu5  1  0.25411477  0.90956908  0.48025322  1  0.974302  -0.339196  0.72233  0.667522  -0.522897  2.435354  -0.339
Cu  Cu6  1  0.40964407  0.75310679  0.01990087  1  0.977029  0.32308  0.724288  0.670726  0.49844  2.441532  0.323
Cu  Cu7  1  0.59029155  0.24683452  0.01988211  1  0.976998  0.323437  0.724132  0.670674  0.49897  2.440742  0.323
H  H8  1  0.82488099  0.84097347  0.45974136  1  0.388467  -0.000171  0.245927  0.240249  0.001167  1.058365  0.0
H  H9  1  0.95661420  0.73621505  0.39144253  1  0.032404  0.00096  0.098639  0.062253  0.000255  0.9318  0.001
H  H10  1  0.89827293  0.95219255  0.39997524  1  0.058072  -1.9e-05  0.089794  0.137321  -7.6e-05  1.012184  0.0
H  H11  1  0.97606651  0.90006057  0.35194279  1  0.052529  0.002619  0.085556  0.117894  0.001504  1.015073  0.002
H  H12  1  0.85012919  0.86614999  0.35421265  1  0.028384  0.00051  0.078634  0.11344  0.000388  1.011157  0.0
H  H13  1  0.87102034  0.76389950  0.63326012  1  0.129136  0.000881  0.121548  0.100795  0.000499  1.000964  0.0
H  H14  1  0.93665195  0.69757904  0.71663036  1  0.078509  0.000917  0.106667  0.111507  0.000458  1.001703  0.0
H  H15  1  0.16262956  0.55689598  0.62557620  1  0.08201  0.001376  0.102403  0.105662  0.000929  1.02516  0.0
H  H16  1  0.08778669  0.63227201  0.54593344  1  0.093619  0.000684  0.11605  0.08416  0.00017  1.001665  0.001
H  H17  1  0.15828058  0.52464998  0.71727916  1  0.057889  0.000669  0.101591  0.099373  0.000262  1.005435  0.0
H  H18  1  0.70634215  0.81869661  0.53846742  1  0.149181  0.001518  0.118649  0.094913  0.000823  1.023239  0.001
H  H19  1  0.54343870  0.74094516  0.55336315  1  0.089781  0.000539  0.108408  0.117817  0.00017  0.993282  0.0
H  H20  1  0.69316328  0.46324515  0.56270392  1  0.101819  0.000683  0.106142  0.113269  0.000204  1.010383  0.0
H  H21  1  0.84761600  0.55303293  0.54973223  1  0.068864  0.001579  0.110422  0.070401  0.000833  1.028005  0.001
H  H22  1  0.44639354  0.59911832  0.56377963  1  0.0591  0.000548  0.102437  0.102776  4.5e-05  1.005906  0.0
H  H23  1  0.17516420  0.15905266  0.45972552  1  0.388507  -0.00017  0.245952  0.240335  0.001166  1.057996  0.0
H  H24  1  0.04336864  0.26376427  0.39144503  1  0.032421  0.000953  0.09861  0.062167  0.000251  0.931781  0.001
H  H25  1  0.10178691  0.04780867  0.39996248  1  0.058435  -2e-05  0.089714  0.137233  -7.6e-05  1.012045  0.0
H  H26  1  0.02397618  0.09992887  0.35193679  1  0.052911  0.002617  0.085688  0.118104  0.001504  1.015134  0.002
H  H27  1  0.14990831  0.13386279  0.35419785  1  0.029173  0.000509  0.078561  0.113323  0.000389  1.011514  0.0
H  H28  1  0.12902047  0.23612119  0.63325462  1  0.128894  0.000882  0.121546  0.100776  0.0005  1.001027  0.0
H  H29  1  0.06338353  0.30245130  0.71662210  1  0.078662  0.000917  0.106635  0.111378  0.000458  1.001758  0.0
H  H30  1  0.83739841  0.44310355  0.62556816  1  0.082207  0.001376  0.102458  0.105763  0.000928  1.025132  0.0
H  H31  1  0.91224575  0.36772151  0.54592611  1  0.093751  0.000684  0.116027  0.084148  0.00017  1.001645  0.001
H  H32  1  0.84173153  0.47534100  0.71728088  1  0.058137  0.000668  0.101626  0.099445  0.000261  1.005432  0.0
H  H33  1  0.29367964  0.18129179  0.53845187  1  0.148767  0.001519  0.118648  0.09489  0.000822  1.023023  0.001
H  H34  1  0.45658252  0.25903526  0.55336582  1  0.089446  0.00054  0.108327  0.117719  0.000171  0.993414  0.0
H  H35  1  0.30686852  0.53673675  0.56272445  1  0.101665  0.000684  0.106126  0.113166  0.000205  1.010477  0.0
H  H36  1  0.15241338  0.44696425  0.54973091  1  0.068993  0.001579  0.110495  0.070532  0.000832  1.028047  0.001
H  H37  1  0.55363166  0.40086503  0.56378133  1  0.058431  0.000551  0.102458  0.102813  4.5e-05  1.00584  0.0
H  H38  1  0.33915231  0.32396611  0.04123876  1  0.424751  -0.000388  0.245921  0.240575  0.00143  1.057612  0.0
H  H39  1  0.23647782  0.45879662  0.10846430  1  0.026022  0.002077  0.098574  0.061909  0.00092  0.932415  0.001
H  H40  1  0.45187450  0.39795972  0.10008420  1  0.058055  -7.3e-05  0.089375  0.136972  -0.000176  1.011804  0.0
H  H41  1  0.40041698  0.47632037  0.14805272  1  0.048649  0.002363  0.085602  0.117961  0.001348  1.0152  0.001
H  H42  1  0.36527789  0.35077802  0.14586823  1  0.011201  0.000565  0.078569  0.113223  0.000411  1.010884  0.0
H  H43  1  0.25989509  0.36925104  0.86745064  1  0.140024  0.001071  0.121143  0.099746  0.000692  0.999968  0.0
H  H44  1  0.19717095  0.43675796  0.78375554  1  0.038688  0.000916  0.106808  0.111527  0.000419  1.00123  0.0
H  H45  1  0.05798293  0.66433426  0.87428520  1  0.073249  0.001482  0.103188  0.107041  0.001011  1.023157  0.0
H  H46  1  0.12956234  0.58738319  0.95432483  1  0.096635  0.001058  0.116231  0.083865  0.000499  0.99974  0.001
H  H47  1  0.02463761  0.65851101  0.78268693  1  0.053253  0.000752  0.101619  0.099342  0.000306  1.006025  0.0
H  H48  1  0.32013483  0.20446014  0.96151162  1  0.122612  0.001641  0.118039  0.093536  0.000954  1.021843  0.001
H  H49  1  0.24157266  0.04199128  0.94652711  1  0.066542  0.001036  0.108051  0.117026  0.000463  0.994538  0.0
H  H50  1  0.96442818  0.19299999  0.93731655  1  0.048807  0.001653  0.105826  0.113227  0.000972  1.011352  0.0
H  H51  1  0.05507815  0.34688564  0.95038208  1  0.107784  0.001507  0.110162  0.069902  0.000742  1.030365  0.001
H  H52  1  0.09883417  0.94570675  0.93613919  1  0.055907  0.000989  0.102357  0.102774  0.000392  1.006277  0.0
H  H53  1  0.66079199  0.67598764  0.04125629  1  0.424062  -0.000391  0.245886  0.240413  0.001429  1.05789  0.0
H  H54  1  0.76336764  0.54104064  0.10845518  1  0.026509  0.00209  0.098568  0.061817  0.000928  0.932499  0.001
H  H55  1  0.54800631  0.60199196  0.10010526  1  0.058143  -7.3e-05  0.089374  0.137016  -0.000175  1.012237  0.0
H  H56  1  0.59945837  0.52360591  0.14806221  1  0.047067  0.002368  0.085502  0.117676  0.001349  1.01555  0.001
H  H57  1  0.63464276  0.64913150  0.14587781  1  0.013007  0.000565  0.078627  0.113052  0.000412  1.010949  0.0
H  H58  1  0.74013613  0.63071185  0.86747079  1  0.1409  0.001069  0.121127  0.099787  0.000692  1.000162  0.0
H  H59  1  0.80283061  0.56321130  0.78376949  1  0.039124  0.000914  0.106922  0.111697  0.000417  1.001095  0.0
H  H60  1  0.94210711  0.33566728  0.87427518  1  0.07318  0.001482  0.103224  0.106972  0.00101  1.023261  0.0
H  H61  1  0.87055313  0.41259959  0.95432502  1  0.096326  0.001055  0.11624  0.08384  0.000497  0.999468  0.001
H  H62  1  0.97542163  0.34150272  0.78267146  1  0.05325  0.000752  0.101518  0.098975  0.000307  1.006004  0.0
H  H63  1  0.67989795  0.79558606  0.96148635  1  0.123249  0.001637  0.118098  0.093664  0.000951  1.021465  0.001
H  H64  1  0.75847819  0.95804979  0.94650853  1  0.067276  0.001035  0.107988  0.117017  0.000464  0.994874  0.0
H  H65  1  0.03560843  0.80702428  0.93731244  1  0.04861  0.001654  0.105839  0.112999  0.000972  1.011549  0.0
H  H66  1  0.94495432  0.65314449  0.95039218  1  0.080417  0.001521  0.110138  0.069901  0.000744  1.030202  0.001
H  H67  1  0.90123166  0.05432700  0.93612747  1  0.056798  0.000987  0.102315  0.102621  0.000392  1.006526  0.0
H  H68  1  0.83943473  0.17576435  0.54097088  1  0.419038  0.000488  0.245697  0.240654  -0.001116  1.056904  0.001
H  H69  1  0.73613835  0.04178213  0.60850200  1  0.023286  -0.001634  0.098189  0.06161  -0.00066  0.932476  -0.001
H  H70  1  0.95189834  0.10114748  0.59981862  1  0.053948  0.000113  0.089254  0.136491  0.00018  1.013228  0.0
H  H71  1  0.90012115  0.02314099  0.64785833  1  0.04702  -0.002507  0.085464  0.117898  -0.001431  1.015359  -0.002
H  H72  1  0.86586291  0.14888478  0.64568682  1  0.0139  -0.000391  0.078385  0.113365  -0.000344  1.010666  0.0
H  H73  1  0.76131199  0.13012550  0.36700414  1  0.137143  -0.00088  0.1215  0.100851  -0.000648  0.999852  0.0
H  H74  1  0.69702676  0.06323314  0.28345147  1  0.033143  -0.000155  0.10696  0.111617  -0.000201  1.001627  0.0
H  H75  1  0.55757691  0.83617381  0.37424744  1  0.076472  -0.001095  0.102966  0.106342  -0.000822  1.024867  0.0
H  H76  1  0.63089553  0.91236455  0.45412351  1  0.098304  -0.000408  0.116151  0.084071  -0.00013  0.999822  -0.001
H  H77  1  0.52498022  0.84105224  0.28258341  1  0.056175  0.000589  0.102238  0.099844  0.00017  1.004634  0.0
H  H78  1  0.81937188  0.29483256  0.46111259  1  0.138314  -0.001606  0.117814  0.093842  -0.000863  1.023312  -0.001
H  H79  1  0.74135406  0.45741268  0.44596068  1  0.076648  -0.000645  0.107926  0.117301  -0.000226  0.994793  0.0
H  H80  1  0.46373536  0.30708146  0.43671597  1  0.0399  -0.00083  0.105646  0.112737  -0.000239  1.01198  0.0
H  H81  1  0.55385269  0.15300788  0.44994891  1  0.070642  -0.00134  0.109851  0.069414  -0.000586  1.030849  -0.001
H  H82  1  0.59902323  0.55403138  0.43556819  1  0.055704  -0.00062  0.102059  0.102633  -7.5e-05  1.006741  0.0
H  H83  1  0.16059790  0.82424447  0.54095758  1  0.419136  0.000487  0.245751  0.240932  -0.001115  1.056515  0.001
H  H84  1  0.26387423  0.95825672  0.60847787  1  0.023456  -0.001627  0.098209  0.0615  -0.000655  0.932319  -0.001
H  H85  1  0.04813206  0.89883741  0.59981325  1  0.054301  0.000114  0.089189  0.136348  0.00018  1.013076  0.0
H  H86  1  0.09988701  0.97686368  0.64784735  1  0.046942  -0.002508  0.085393  0.117884  -0.001432  1.015395  -0.002
H  H87  1  0.13416284  0.85112063  0.64568792  1  0.013698  -0.000391  0.07844  0.113341  -0.000344  1.010891  0.0
H  H88  1  0.23871774  0.86988876  0.36701153  1  0.137728  -0.000879  0.121507  0.100845  -0.000648  1.000024  0.0
H  H89  1  0.30297477  0.93679551  0.28345351  1  0.033509  -0.000155  0.106967  0.111617  -0.000201  1.001693  0.0
H  H90  1  0.44243942  0.16385797  0.37424003  1  0.075746  -0.001095  0.102909  0.106217  -0.000822  1.024884  0.0
H  H91  1  0.36915278  0.08764991  0.45412272  1  0.098206  -0.000409  0.116149  0.084083  -0.00013  0.999937  -0.001
H  H92  1  0.47502207  0.15896693  0.28257604  1  0.055493  0.000591  0.102174  0.099781  0.000171  1.004664  0.0
H  H93  1  0.18066013  0.70519430  0.46112013  1  0.138644  -0.001607  0.117729  0.093775  -0.000864  1.023207  -0.001
H  H94  1  0.25868071  0.54260905  0.44597626  1  0.077147  -0.000646  0.107814  0.11711  -0.000226  0.99476  0.0
H  H95  1  0.53630049  0.69294680  0.43673487  1  0.039859  -0.00083  0.105573  0.112595  -0.000239  1.011834  0.0
H  H96  1  0.44617463  0.84702042  0.44995129  1  0.069918  -0.001341  0.109794  0.069274  -0.000587  1.030655  -0.001
H  H97  1  0.40101339  0.44599980  0.43556728  1  0.056429  -0.000619  0.10203  0.102651  -7.5e-05  1.006981  0.0
H  H98  1  0.32366871  0.66117655  0.95884845  1  0.422181  -0.000472  0.245825  0.240268  0.001376  1.057116  -0.001
H  H99  1  0.45904417  0.76353608  0.89175353  1  0.022367  0.002287  0.098489  0.061951  0.001048  0.931988  0.001
H  H100  1  0.39783701  0.54832984  0.90012174  1  0.056178  -7e-05  0.089338  0.136964  -0.000174  1.012237  0.0
H  H101  1  0.47631718  0.59973077  0.85215663  1  0.053029  0.002276  0.085578  0.118041  0.0013  1.014698  0.001
H  H102  1  0.35073039  0.63488001  0.85432593  1  0.01177  0.000541  0.078734  0.113866  0.000398  1.010002  0.0
H  H103  1  0.36912987  0.74043200  0.13261488  1  0.141588  0.001062  0.121448  0.099899  0.00069  1.000521  0.0
H  H104  1  0.43708744  0.80265829  0.21633426  1  0.041905  0.000891  0.106998  0.111597  0.000414  1.001265  0.0
H  H105  1  0.66478149  0.94186048  0.12578583  1  0.080825  0.001473  0.102816  0.106771  0.001011  1.023985  0.0
H  H106  1  0.58732673  0.87085692  0.04569727  1  0.098216  0.00104  0.116322  0.084101  0.000493  0.999282  0.001
H  H107  1  0.65895245  0.97509126  0.21741955  1  0.054686  0.000707  0.101946  0.099313  0.000253  1.00554  0.0
H  H108  1  0.20419127  0.67996253  0.03884363  1  0.12492  0.001627  0.118115  0.093672  0.000948  1.021175  0.001
H  H109  1  0.04170084  0.75856657  0.05385134  1  0.063892  0.001051  0.108154  0.117637  0.000469  0.994769  0.0
H  H110  1  0.19310264  0.03550132  0.06296849  1  0.049907  0.001659  0.105972  0.113127  0.00098  1.011724  0.0
H  H111  1  0.34697687  0.94480552  0.04988277  1  0.10826  0.001491  0.110127  0.069777  0.000735  1.031053  0.001
H  H112  1  0.94554289  0.90132359  0.06418377  1  0.056746  0.000995  0.102149  0.102695  0.000397  1.006296  0.0
H  H113  1  0.67627954  0.33871363  0.95879867  1  0.423406  -0.000483  0.245522  0.239851  0.001383  1.056643  -0.001
H  H114  1  0.54077316  0.23645162  0.89175057  1  0.023372  0.002294  0.09852  0.061925  0.001052  0.931783  0.001
H  H115  1  0.60209816  0.45162363  0.90011042  1  0.056703  -7.2e-05  0.089339  0.137045  -0.000175  1.012042  0.0
H  H116  1  0.52358698  0.40025904  0.85215005  1  0.051888  0.002277  0.085675  0.118157  0.0013  1.014609  0.001
H  H117  1  0.64915618  0.36505221  0.85431169  1  0.013232  0.000542  0.078946  0.113986  0.000398  1.010016  0.0
H  H118  1  0.63088099  0.25950957  0.13258708  1  0.141267  0.001062  0.12141  0.099807  0.000691  1.000407  0.0
H  H119  1  0.56290495  0.19733740  0.21631537  1  0.042006  0.000891  0.107088  0.111741  0.000414  1.001145  0.0
H  H120  1  0.33513192  0.05821956  0.12579596  1  0.104599  0.001453  0.102771  0.106571  0.001011  1.024357  0.0
H  H121  1  0.41260574  0.12917046  0.04569525  1  0.096904  0.001041  0.116414  0.084187  0.000493  0.999252  0.001
H  H122  1  0.34099323  0.02497004  0.21742334  1  0.055958  0.000707  0.10196  0.099462  0.000253  1.005703  0.0
H  H123  1  0.79579835  0.32006558  0.03882736  1  0.124187  0.001626  0.118143  0.093603  0.000945  1.021057  0.001
H  H124  1  0.95830281  0.24149729  0.05384029  1  0.063546  0.001053  0.108378  0.117908  0.00047  0.9947  0.0
H  H125  1  0.80695536  0.96454070  0.06298421  1  0.050264  0.001658  0.105843  0.113028  0.00098  1.01155  0.0
H  H126  1  0.65306849  0.05519419  0.04987730  1  0.108825  0.001493  0.110043  0.069655  0.000736  1.031142  0.001
H  H127  1  0.05450122  0.09874832  0.06418604  1  0.056061  0.000997  0.102334  0.102686  0.000398  1.006437  0.0
C  C128  1  0.03402054  0.82109202  0.44526254  1  1.533975  0.004972  0.208456  0.562947  0.004784  4.105715  0.005
C  C129  1  0.93908754  0.80170380  0.41521268  1  0.315782  -0.000641  -0.022593  0.094714  0.001278  3.974198  -0.004
C  C130  1  0.91411154  0.88516400  0.37803477  1  -0.104602  0.00568  -0.249159  -0.39421  0.004923  3.92401  0.004
C  C131  1  0.93489815  0.71668855  0.63374075  1  0.421383  0.00157  0.044815  0.091833  0.001434  3.956747  -0.001
C  C132  1  0.97274775  0.67988482  0.67983877  1  -0.018925  0.016962  -0.086449  -0.179882  0.013095  3.939542  0.01
C  C133  1  0.05664679  0.62008863  0.67873970  1  0.029229  0.012992  0.001204  0.142931  0.009655  4.045485  0.006
C  C134  1  0.09745012  0.60194323  0.62903748  1  -0.072621  0.012597  -0.087525  -0.180554  0.009807  3.948621  0.007
C  C135  1  0.05598710  0.64268847  0.58466974  1  0.456003  0.002969  0.040313  0.08252  0.002317  3.980037  0.0
C  C136  1  0.10097529  0.57824097  0.72486742  1  -0.09869  0.026851  -0.08915  -0.132  0.020872  3.993104  0.014
C  C137  1  0.69907045  0.74038686  0.54450632  1  0.499167  0.014022  0.041101  0.094779  0.010986  3.939181  0.005
C  C138  1  0.60936067  0.69644693  0.55256673  1  -0.127148  0.015995  -0.087588  -0.186207  0.012508  3.947642  0.008
C  C139  1  0.60251904  0.59444816  0.55944315  1  -0.007089  0.027983  -0.001718  0.141344  0.021169  4.045376  0.015
C  C140  1  0.69147109  0.54218833  0.55809202  1  -0.046606  0.017247  -0.090953  -0.18275  0.013112  3.956375  0.009
C  C141  1  0.77805349  0.59165384  0.55053063  1  0.447268  0.006364  0.030149  0.059103  0.005105  4.019279  0.001
C  C142  1  0.50829134  0.54894245  0.56425871  1  -0.000743  0.040696  -0.092666  -0.136252  0.031699  3.992404  0.021
C  C143  1  0.96603685  0.17882402  0.44528111  1  1.533437  0.004972  0.208607  0.563176  0.004784  4.104913  0.005
C  C144  1  0.06093671  0.19827849  0.41520868  1  0.316939  -0.000647  -0.02244  0.095193  0.001274  3.973315  -0.004
C  C145  1  0.08593308  0.11483644  0.37802341  1  -0.106638  0.005688  -0.249121  -0.39433  0.004927  3.924114  0.004
C  C146  1  0.06513608  0.28332193  0.63373442  1  0.449303  0.00159  0.044846  0.091751  0.001434  3.957294  -0.001
C  C147  1  0.02728547  0.32013451  0.67983091  1  -0.019063  0.016962  -0.086527  -0.179753  0.013095  3.939485  0.01
C  C148  1  0.94338282  0.37992195  0.67873164  1  0.029081  0.012997  0.001194  0.142889  0.009658  4.045254  0.006
C  C149  1  0.90257772  0.39805995  0.62903027  1  -0.071809  0.012592  -0.08761  -0.180746  0.009806  3.948678  0.007
C  C150  1  0.94404315  0.35731097  0.58466323  1  0.455541  0.002974  0.04037  0.082697  0.002318  3.979832  0.0
C  C151  1  0.89905330  0.42176315  0.72486262  1  -0.099997  0.026887  -0.089104  -0.132096  0.020878  3.992952  0.014
C  C152  1  0.30095329  0.25960009  0.54450482  1  0.498649  0.01403  0.041055  0.094695  0.010995  3.93897  0.005
C  C153  1  0.39066349  0.30353422  0.55257445  1  -0.126229  0.015987  -0.087441  -0.185941  0.012502  3.947488  0.008
C  C154  1  0.39750487  0.40553081  0.55945791  1  -0.008652  0.028004  -0.002002  0.140888  0.021185  4.045871  0.015
C  C155  1  0.30855578  0.45779574  0.55811013  1  -0.045601  0.017246  -0.090946  -0.182505  0.013111  3.956427  0.009
C  C156  1  0.22197294  0.40833896  0.55053675  1  0.447149  0.00637  0.030267  0.059145  0.00511  4.01937  0.001
C  C157  1  0.49173092  0.45103653  0.56426464  1  -0.101395  0.040517  -0.092661  -0.136165  0.031673  3.992437  0.021
C  C158  1  0.32236953  0.53407373  0.05426146  1  1.538831  0.006589  0.207534  0.562617  0.006006  4.105382  0.006
C  C159  1  0.30171155  0.43993944  0.08475026  1  0.32091  -0.001017  -0.022848  0.095473  0.001254  3.976214  -0.004
C  C160  1  0.38494390  0.41448037  0.12200379  1  -0.087441  0.005358  -0.249242  -0.394153  0.00457  3.92303  0.004
C  C161  1  0.21393425  0.43399886  0.86679145  1  0.482212  0.001663  0.044241  0.092042  0.001449  3.957621  -0.001
C  C162  1  0.17930007  0.47298702  0.82048129  1  -0.048523  0.017422  -0.085968  -0.178765  0.013296  3.93965  0.01
C  C163  1  0.12030128  0.55739512  0.82135870  1  0.033596  0.013142  0.002468  0.144566  0.009705  4.044457  0.006
C  C164  1  0.10230991  0.59863782  0.87098919  1  -0.114406  0.014671  -0.088478  -0.182756  0.011411  3.946561  0.008
C  C165  1  0.14085001  0.55592542  0.91558002  1  0.513465  0.00311  0.041041  0.085558  0.002655  3.979368  -0.001
C  C166  1  0.07834285  0.60130170  0.77514839  1  0.009429  0.027953  -0.089567  -0.133398  0.021647  3.993279  0.015
C  C167  1  0.24171697  0.19756750  0.95552247  1  0.507229  0.014589  0.041392  0.093537  0.011435  3.941995  0.006
C  C168  1  0.19735374  0.10808136  0.94741697  1  -0.088364  0.016965  -0.088927  -0.186966  0.013307  3.948569  0.008
C  C169  1  0.09524822  0.10175412  0.94052584  1  -0.040267  0.028894  -0.002153  0.141506  0.021635  4.04557  0.015
C  C170  1  0.04340825  0.19091682  0.94193901  1  0.038186  0.017776  -0.091934  -0.184894  0.01367  3.958335  0.009
C  C171  1  0.09331417  0.27715863  0.94956466  1  0.424865  0.00658  0.029581  0.058184  0.005084  4.020706  0.001
C  C172  1  0.04908194  0.00792613  0.93566913  1  0.016377  0.04173  -0.093265  -0.137134  0.032645  3.992096  0.022
C  C173  1  0.67741892  0.46588804  0.05421997  1  1.537601  0.006609  0.207741  0.56317  0.006026  4.104472  0.006
C  C174  1  0.69815671  0.55996774  0.08474305  1  0.321604  -0.001022  -0.022856  0.095692  0.001253  3.975585  -0.004
C  C175  1  0.61494045  0.58544221  0.12201198  1  -0.088488  0.005366  -0.249063  -0.393584  0.004576  3.923327  0.004
C  C176  1  0.78610575  0.56597059  0.86680597  1  0.480631  0.001666  0.04442  0.092049  0.001451  3.957616  -0.001
C  C177  1  0.82072417  0.52698451  0.82049071  1  -0.048827  0.017409  -0.085861  -0.1786  0.013284  3.939175  0.01
C  C178  1  0.87974481  0.44259172  0.82135921  1  0.03832  0.013139  0.002068  0.144014  0.009712  4.04445  0.006
C  C179  1  0.89776349  0.40135351  0.87098673  1  -0.11405  0.01468  -0.088596  -0.182869  0.011418  3.946596  0.008
C  C180  1  0.85923264  0.44406018  0.91558389  1  0.511434  0.003114  0.041144  0.085908  0.002656  3.979219  -0.001
C  C181  1  0.92170062  0.39870254  0.77514215  1  0.005394  0.027982  -0.089408  -0.132746  0.021654  3.992804  0.015
C  C182  1  0.75832041  0.80247067  0.95551436  1  0.508497  0.014547  0.041297  0.093189  0.011409  3.941493  0.006
C  C183  1  0.80269051  0.89195388  0.94740334  1  -0.089554  0.016995  -0.08851  -0.186514  0.013323  3.94869  0.008
C  C184  1  0.90479848  0.89827454  0.94051736  1  -0.039733  0.028817  -0.002523  0.140946  0.021588  4.046126  0.015
C  C185  1  0.95662965  0.80910966  0.94193577  1  0.038414  0.017794  -0.091791  -0.184399  0.013686  3.958593  0.009
C  C186  1  0.90671833  0.72287151  0.94957053  1  0.452083  0.006541  0.029723  0.058401  0.00506  4.020791  0.001
C  C187  1  0.95097443  0.99210034  0.93566333  1  -0.081339  0.041704  -0.09322  -0.136834  0.032709  3.992212  0.022
C  C188  1  0.82111356  0.96572373  0.55426930  1  1.552549  -0.006325  0.207199  0.562908  -0.005889  4.105896  -0.006
C  C189  1  0.80136726  0.06014244  0.58466509  1  0.310281  0.00069  -0.02305  0.095089  -0.001503  3.978864  0.004
C  C190  1  0.88494195  0.08503640  0.62180748  1  -0.083954  -0.005463  -0.249179  -0.394343  -0.004655  3.92577  -0.004
C  C191  1  0.71490903  0.06565917  0.36644158  1  0.426626  0.0027  0.045281  0.092046  0.001564  3.955747  0.0
C  C192  1  0.67931537  0.02710109  0.32023003  1  0.013928  0.013278  -0.086383  -0.179215  0.01022  3.939322  0.007
C  C193  1  0.62017401  0.94278859  0.32128148  1  0.031433  0.015398  0.002031  0.143729  0.011589  4.04743  0.007
C  C194  1  0.60211147  0.90172813  0.37090489  1  -0.087967  0.007465  -0.087722  -0.181159  0.005813  3.947877  0.003
C  C195  1  0.64165750  0.94397748  0.41538146  1  0.497942  0.004192  0.041793  0.086158  0.002602  3.977961  0.0
C  C196  1  0.57854823  0.89844756  0.27509109  1  -0.097453  0.026308  -0.089361  -0.132443  0.020415  3.991566  0.014
C  C197  1  0.74100665  0.30190788  0.45504283  1  0.467756  -0.014894  0.040606  0.094172  -0.011699  3.940525  -0.006
C  C198  1  0.69692888  0.39143923  0.44684188  1  -0.091929  -0.017012  -0.089339  -0.188201  -0.013385  3.95091  -0.008
C  C199  1  0.59484299  0.39802225  0.43991984  1  -0.008376  -0.029725  -0.002869  0.140432  -0.022324  4.046795  -0.016
C  C200  1  0.54271404  0.30897075  0.44134978  1  0.00042  -0.018077  -0.092714  -0.185245  -0.013844  3.960206  -0.01
C  C201  1  0.59234139  0.22262797  0.44906422  1  0.455597  -0.006576  0.029556  0.058939  -0.00529  4.023011  -0.001
C  C202  1  0.54905113  0.49195393  0.43507336  1  -0.083041  -0.042795  -0.094193  -0.138332  -0.033544  3.996461  -0.023
C  C203  1  0.17881134  0.03427198  0.55424904  1  1.550267  -0.006333  0.207318  0.562917  -0.005897  4.105409  -0.006
C  C204  1  0.19863601  0.93987376  0.58465379  1  0.310976  0.000695  -0.022771  0.095876  -0.001498  3.977777  0.004
C  C205  1  0.11507960  0.91496166  0.62180452  1  -0.083917  -0.005472  -0.249154  -0.394411  -0.004663  3.925468  -0.004
C  C206  1  0.28511197  0.93436384  0.36644420  1  0.42383  0.002705  0.045026  0.091746  0.001568  3.955978  0.0
C  C207  1  0.32068841  0.97292983  0.32023033  1  0.01541  0.013279  -0.086146  -0.178848  0.01022  3.939152  0.007
C  C208  1  0.37982463  0.05724525  0.32127899  1  0.031215  0.015395  0.001882  0.143585  0.01159  4.047213  0.007
C  C209  1  0.39790353  0.09830217  0.37090145  1  -0.087127  0.00746  -0.087699  -0.181079  0.005812  3.947635  0.003
C  C210  1  0.35837259  0.05604855  0.41538078  1  0.497387  0.004196  0.041825  0.086276  0.002604  3.977771  0.0
C  C211  1  0.42143903  0.10158544  0.27508622  1  -0.095343  0.026287  -0.089203  -0.132338  0.020417  3.991072  0.014
C  C212  1  0.25902413  0.69811751  0.45504950  1  0.468046  -0.014875  0.040974  0.094623  -0.011686  3.939926  -0.006
C  C213  1  0.30310585  0.60858542  0.44685311  1  -0.091478  -0.017032  -0.089299  -0.188278  -0.0134  3.950802  -0.008
C  C214  1  0.40519128  0.60200384  0.43992916  1  -0.004573  -0.029615  -0.002859  0.140706  -0.022301  4.046607  -0.016
C  C215  1  0.45731945  0.69105680  0.44136054  1  0.000348  -0.018081  -0.092621  -0.185148  -0.013846  3.959545  -0.01
C  C216  1  0.40768816  0.77739886  0.44906697  1  0.45459  -0.006568  0.029677  0.059231  -0.005285  4.022579  -0.001
C  C217  1  0.45098551  0.50807507  0.43507664  1  0.011465  -0.043057  -0.094212  -0.138609  -0.033571  3.996941  -0.023
C  C218  1  0.53405791  0.67751899  0.94600284  1  1.546707  0.006896  0.207983  0.563011  0.006268  4.105299  0.006
C  C219  1  0.43999059  0.69837449  0.91545946  1  0.317061  -0.001082  -0.022549  0.095124  0.001249  3.974915  -0.005
C  C220  1  0.41444088  0.61520549  0.87819579  1  -0.08782  0.005266  -0.249069  -0.394649  0.004474  3.922226  0.004
C  C221  1  0.43401055  0.78626530  0.13327596  1  0.438116  0.001925  0.044569  0.092314  0.001525  3.958012  -0.001
C  C222  1  0.47326131  0.82057499  0.17959081  1  -0.011202  0.016969  -0.0853  -0.178022  0.013052  3.939064  0.009
C  C223  1  0.55777081  0.87947630  0.17866125  1  0.039219  0.013165  0.002082  0.144341  0.009735  4.04473  0.006
C  C224  1  0.59902428  0.89755782  0.12905844  1  -0.123711  0.014385  -0.087662  -0.181773  0.01119  3.9467  0.008
C  C225  1  0.55602681  0.85935133  0.08446017  1  0.51323  0.003371  0.04187  0.086091  0.002854  3.979209  0.0
C  C226  1  0.60173089  0.92132400  0.22488763  1  0.013104  0.028585  -0.088615  -0.131727  0.022137  3.99183  0.015
C  C227  1  0.19734797  0.75833849  0.04483600  1  0.511818  0.01454  0.041538  0.093977  0.011441  3.942079  0.006
C  C228  1  0.10787154  0.80272934  0.05296062  1  -0.092109  0.016999  -0.089127  -0.187868  0.013317  3.949666  0.008
C  C229  1  0.10167542  0.90478721  0.05982732  1  -0.043147  0.028855  -0.001704  0.141363  0.021611  4.046519  0.015
C  C230  1  0.19094655  0.95655516  0.05838777  1  0.054561  0.017591  -0.091792  -0.183685  0.013557  3.95937  0.009
C  C231  1  0.27716688  0.90662748  0.05074299  1  0.410463  0.006664  0.029572  0.057971  0.005108  4.022373  0.001
C  C232  1  0.00786324  0.95100261  0.06466169  1  -0.080385  0.041624  -0.093551  -0.137557  0.032638  3.993291  0.022
C  C233  1  0.46585876  0.32249071  0.94601680  1  1.546412  0.006926  0.207694  0.56257  0.006294  4.105008  0.006
C  C234  1  0.55989075  0.30160088  0.91545163  1  0.314493  -0.001075  -0.022592  0.095537  0.001247  3.974488  -0.005
C  C235  1  0.58545937  0.38475813  0.87818500  1  -0.088487  0.005263  -0.249267  -0.394938  0.004473  3.922276  0.004
C  C236  1  0.56598570  0.21369669  0.13325666  1  0.43852  0.00193  0.044584  0.092387  0.001528  3.95735  -0.001
C  C237  1  0.52672445  0.17941917  0.17957584  1  -0.011025  0.016968  -0.085343  -0.178154  0.013053  3.939145  0.009
C  C238  1  0.44219384  0.12054847  0.17865616  1  0.03958  0.013159  0.001894  0.144396  0.009731  4.044894  0.006
C  C239  1  0.40091890  0.10248214  0.12905849  1  -0.147238  0.014397  -0.087451  -0.181448  0.011186  3.947157  0.008
C  C240  1  0.44392462  0.14065427  0.08445391  1  0.513492  0.003371  0.041942  0.086329  0.002853  3.97981  0.0
C  C241  1  0.39823274  0.07871910  0.22488495  1  0.011366  0.028575  -0.088662  -0.132085  0.022132  3.992068  0.015
C  C242  1  0.80265164  0.24169036  0.04482118  1  0.511187  0.014511  0.041325  0.093868  0.011419  3.941915  0.006
C  C243  1  0.89214017  0.19732286  0.05295183  1  -0.091271  0.017008  -0.089285  -0.188099  0.013326  3.950012  0.008
C  C244  1  0.89836010  0.09526865  0.05982858  1  -0.044384  0.028816  -0.001636  0.141535  0.021577  4.046343  0.015
C  C245  1  0.80909923  0.04348320  0.05839545  1  0.06069  0.017603  -0.091909  -0.184005  0.013576  3.958826  0.009
C  C246  1  0.72286898  0.09338754  0.05073756  1  0.403742  0.00665  0.029801  0.058499  0.005087  4.022164  0.001
C  C247  1  0.99218085  0.04906711  0.06466385  1  0.016055  0.041804  -0.093372  -0.137092  0.032679  3.99306  0.022
N  N248  1  0.97541411  0.69885509  0.58647248  1  -1.185803  0.055546  -0.353189  -0.236989  0.044273  3.60856  0.047
N  N249  1  0.78318476  0.68929618  0.54411603  1  -1.18334  0.078223  -0.354078  -0.226383  0.061614  3.638477  0.064
N  N250  1  0.85943902  0.77616837  0.45084799  1  -1.005054  0.177391  -0.622496  -0.677299  0.133446  3.026239  0.129
N  N251  1  0.02461899  0.30114727  0.58646620  1  -1.214433  0.055546  -0.353235  -0.237061  0.044289  3.608607  0.047
N  N252  1  0.21684046  0.31069588  0.54411001  1  -1.18261  0.078231  -0.354167  -0.226568  0.061617  3.638668  0.064
N  N253  1  0.14059264  0.22384900  0.45083100  1  -1.005758  0.177358  -0.622616  -0.677515  0.133419  3.025698  0.129
N  N254  1  0.19448683  0.47366389  0.91409405  1  -1.211368  0.05523  -0.35236  -0.239796  0.043913  3.608528  0.046
N  N255  1  0.19104905  0.28186908  0.95596346  1  -1.218943  0.080608  -0.353133  -0.224398  0.063448  3.630353  0.066
N  N256  1  0.27493771  0.35997685  0.04962742  1  -1.041014  0.199635  -0.624716  -0.68117  0.15025  3.033128  0.144
N  N257  1  0.80558639  0.52631660  0.91410873  1  -1.20953  0.05517  -0.352523  -0.240187  0.043867  3.608573  0.046
N  N258  1  0.80898102  0.71816398  0.95597392  1  -1.219534  0.080587  -0.353269  -0.224674  0.063429  3.629808  0.066
N  N259  1  0.72498803  0.63994703  0.04964540  1  -1.039821  0.20014  -0.62465  -0.68111  0.150647  3.033227  0.144
N  N260  1  0.69634780  0.02553240  0.41371363  1  -1.215321  -0.008738  -0.352803  -0.23848  -0.008163  3.608552  -0.009
N  N261  1  0.69005499  0.21770548  0.45554012  1  -1.184276  -0.083403  -0.354627  -0.227329  -0.065789  3.63402  -0.068
N  N262  1  0.77505518  0.14015234  0.54949806  1  -1.040245  -0.198092  -0.627036  -0.684302  -0.148974  3.03602  -0.144
N  N263  1  0.30368454  0.97449144  0.41371529  1  -1.213439  -0.008731  -0.352754  -0.238478  -0.008159  3.60884  -0.009
N  N264  1  0.30997285  0.78231918  0.45553964  1  -1.184278  -0.08345  -0.354845  -0.227629  -0.06583  3.634047  -0.068
N  N265  1  0.22496765  0.85986961  0.54948682  1  -1.040863  -0.198145  -0.627289  -0.684898  -0.14902  3.035808  -0.144
N  N266  1  0.47350138  0.80605225  0.08596583  1  -1.212993  0.05432  -0.353024  -0.240017  0.043202  3.611039  0.046
N  N267  1  0.28174231  0.80893788  0.04435025  1  -1.21922  0.080644  -0.353672  -0.225772  0.063498  3.63038  0.066
N  N268  1  0.35996414  0.72526581  0.95054295  1  -1.04001  0.203825  -0.624353  -0.679991  0.153407  3.033237  0.147
N  N269  1  0.52648062  0.19390525  0.08595204  1  -1.213161  0.054298  -0.353318  -0.240444  0.043185  3.611302  0.046
N  N270  1  0.71826679  0.19107347  0.04433280  1  -1.218477  0.080664  -0.353547  -0.225988  0.063514  3.629825  0.066
N  N271  1  0.63992462  0.27465278  0.95051427  1  -1.040371  0.204114  -0.624329  -0.679979  0.153635  3.032486  0.147
O  O272  1  0.03564047  0.78664920  0.49307223  1  -1.111664  0.080387  -0.336336  -0.540356  0.062541  2.368715  0.074
O  O273  1  0.10628125  0.86168032  0.42533659  1  -1.172344  0.022164  -0.303313  -0.530979  0.016926  2.224641  0.018
O  O274  1  0.96439835  0.21335733  0.49307049  1  -1.112159  0.080349  -0.336459  -0.540477  0.062517  2.368912  0.074
O  O275  1  0.89382063  0.13809426  0.42539271  1  -1.17097  0.022155  -0.303366  -0.531164  0.016925  2.224167  0.018
O  O276  1  0.28902889  0.53515285  0.00621515  1  -1.114329  0.074408  -0.336216  -0.538197  0.05724  2.368588  0.068
O  O277  1  0.36291365  0.60640365  0.07415669  1  -1.175181  0.025063  -0.304662  -0.53315  0.019106  2.227766  0.022
O  O278  1  0.71063375  0.46488460  0.00614903  1  -1.114193  0.074528  -0.336527  -0.538629  0.057314  2.367432  0.068
O  O279  1  0.63691197  0.39352537  0.07411012  1  -1.175114  0.025129  -0.304576  -0.533287  0.019154  2.228086  0.022
O  O280  1  0.78704462  0.96446284  0.50642416  1  -1.120924  -0.081136  -0.336531  -0.53961  -0.063113  2.372663  -0.075
O  O281  1  0.86169732  0.89331972  0.57408191  1  -1.174589  -0.023159  -0.304943  -0.534664  -0.017716  2.229448  -0.019
O  O282  1  0.21297619  0.03557724  0.50642427  1  -1.119997  -0.081135  -0.336709  -0.53991  -0.06311  2.37272  -0.075
O  O283  1  0.13805834  0.10660675  0.57403591  1  -1.173753  -0.02318  -0.305093  -0.534792  -0.017735  2.229423  -0.019
O  O284  1  0.53501570  0.71045489  0.99413113  1  -1.116582  0.073476  -0.335968  -0.537906  0.056399  2.369596  0.067
O  O285  1  0.60647013  0.63713959  0.92610073  1  -1.172912  0.025132  -0.304703  -0.532643  0.019151  2.229217  0.022
O  O286  1  0.46485024  0.28936976  0.99410790  1  -1.115627  0.073483  -0.335772  -0.537668  0.056404  2.368503  0.067
O  O287  1  0.39351004  0.36305231  0.92615856  1  -1.17346  0.025181  -0.304321  -0.532388  0.01919  2.229772  0.022
