# generated using pymatgen
data_Cu3H54C44S2(N4O3)6
_symmetry_space_group_name_H-M   'P 1'
_cell_length_a   12.90606702
_cell_length_b   15.64817013
_cell_length_c   16.18318833
_cell_angle_alpha   89.99975985
_cell_angle_beta   93.15900182
_cell_angle_gamma   89.99992511
_symmetry_Int_Tables_number   1
_chemical_formula_structural   Cu3H54C44S2(N4O3)6
_chemical_formula_sum   'Cu6 H108 C88 S4 N48 O36'
_cell_volume   3263.33102850
_cell_formula_units_Z   2
loop_
 _symmetry_equiv_pos_site_id
 _symmetry_equiv_pos_as_xyz
  1  'x, y, z'
loop_
 _atom_site_type_symbol
 _atom_site_label
 _atom_site_symmetry_multiplicity
 _atom_site_fract_x
 _atom_site_fract_y
 _atom_site_fract_z
 _atom_site_occupancy
 _atom_site_pbe_bader_charge
 _atom_site_pbe_bader_spin_density
 _atom_site_pbe_cm5_charge
 _atom_site_pbe_ddec_charge
 _atom_site_pbe_ddec_spin_density
 _atom_site_pbe_ddec_sum_bond_order
 _atom_site_pbe_magmom
Cu  Cu0  1  0.06249199  0.47016245  0.22045012  1  1.092456  0.582756  0.757085  0.837324  0.733148  2.204851  0.582
Cu  Cu1  1  0.93750898  0.97016152  0.27954812  1  1.092483  0.582754  0.757103  0.837432  0.733146  2.204692  0.582
Cu  Cu2  1  0.93750766  0.52984058  0.77954747  1  1.092429  0.582755  0.757125  0.837401  0.733145  2.204805  0.582
Cu  Cu3  1  0.06249069  0.02983895  0.72045317  1  1.092377  0.582752  0.757057  0.837269  0.733146  2.204928  0.582
Cu  Cu4  1  0.49999889  0.50000043  0.99999820  1  1.093349  0.604488  0.777692  0.736013  0.763924  2.301195  0.603
Cu  Cu5  1  0.50000093  0.99999991  0.50000246  1  1.093314  0.604487  0.777682  0.735952  0.763922  2.301273  0.603
H  H6  1  0.58246701  0.17170215  0.31365459  1  0.133951  -1e-06  0.111881  0.117619  -2.8e-05  1.022048  0.0
H  H7  1  0.41753299  0.67169324  0.18635161  1  0.133786  -1e-06  0.11189  0.117671  -2.8e-05  1.021974  0.0
H  H8  1  0.41753964  0.82830024  0.68634576  1  0.133803  -1e-06  0.111867  0.117627  -2.8e-05  1.022004  0.0
H  H9  1  0.58246361  0.32830339  0.81365759  1  0.13383  -1e-06  0.11185  0.117641  -2.8e-05  1.021925  0.0
H  H10  1  0.66993769  0.43236910  0.26463849  1  0.143462  3e-06  0.112113  0.126366  -3.8e-05  1.002421  0.0
H  H11  1  0.33006645  0.93236136  0.23535756  1  0.143622  3e-06  0.112106  0.126392  -3.8e-05  1.002326  0.0
H  H12  1  0.33006817  0.56763137  0.73535565  1  0.143497  3e-06  0.112136  0.126375  -3.8e-05  1.002328  0.0
H  H13  1  0.66993321  0.06763464  0.76464188  1  0.14356  3e-06  0.112101  0.126363  -3.8e-05  1.002294  0.0
H  H14  1  0.89746790  0.23236158  0.26002497  1  0.121345  0.000891  0.106822  0.117438  0.000787  1.018517  0.0
H  H15  1  0.10253351  0.73235662  0.23997549  1  0.100005  0.000905  0.106848  0.117503  0.000787  1.018454  0.0
H  H16  1  0.10253953  0.76764081  0.73997665  1  0.100106  0.000905  0.106859  0.117467  0.000787  1.018468  0.0
H  H17  1  0.89746228  0.26764257  0.76002503  1  0.099952  0.000905  0.106853  0.117469  0.000787  1.018449  0.0
H  H18  1  0.21238894  0.03266376  0.88375775  1  0.218657  0.000328  0.150206  0.137413  9.2e-05  0.991046  0.0
H  H19  1  0.78760321  0.53266435  0.61624324  1  0.218526  0.000328  0.15023  0.137413  9.2e-05  0.990982  0.0
H  H20  1  0.78760762  0.96733862  0.11624342  1  0.218632  0.000328  0.150214  0.137395  9.2e-05  0.991043  0.0
H  H21  1  0.21239181  0.46733612  0.38375724  1  0.218613  0.000328  0.150198  0.137407  9.2e-05  0.991042  0.0
H  H22  1  0.91847953  0.92059988  0.84235630  1  0.166278  0.000403  0.145935  0.12385  0.000149  0.967434  0.0
H  H23  1  0.08151656  0.42060234  0.65764515  1  0.166447  0.000403  0.145936  0.123851  0.000149  0.967473  0.0
H  H24  1  0.08151781  0.07940187  0.15764305  1  0.166282  0.000403  0.145947  0.123858  0.000148  0.967474  0.0
H  H25  1  0.91848311  0.57940197  0.34235615  1  0.16633  0.000403  0.145924  0.12385  0.000149  0.967475  0.0
H  H26  1  0.25800679  0.96669046  0.02927953  1  0.093792  3.7e-05  0.131278  0.119335  9e-06  0.932864  0.0
H  H27  1  0.74198720  0.46669340  0.47071967  1  0.093668  3.7e-05  0.131248  0.119306  9e-06  0.932847  0.0
H  H28  1  0.74198976  0.03331065  0.97071855  1  0.093795  3.7e-05  0.131263  0.119319  9e-06  0.932884  0.0
H  H29  1  0.25800859  0.53330771  0.52928209  1  0.093698  3.7e-05  0.131274  0.119322  9e-06  0.932883  0.0
H  H30  1  0.14821745  0.93852545  0.08491140  1  0.087825  4.6e-05  0.117407  0.103552  5e-06  0.98893  0.0
H  H31  1  0.85177815  0.43852723  0.41509045  1  0.087905  4.6e-05  0.117419  0.103533  5e-06  0.988956  0.0
H  H32  1  0.85177988  0.06147566  0.91508919  1  0.087857  4.6e-05  0.117425  0.103557  5e-06  0.98894  0.0
H  H33  1  0.14821919  0.56147452  0.58491013  1  0.087887  4.6e-05  0.117415  0.103523  5e-06  0.988951  0.0
H  H34  1  0.15005504  0.79172760  0.01655484  1  0.054278  9.2e-05  0.098509  0.092373  7.2e-05  1.017722  0.0
H  H35  1  0.84994084  0.29173036  0.48344576  1  0.054433  9.2e-05  0.098478  0.092314  7.2e-05  1.017762  0.0
H  H36  1  0.84994462  0.20827287  0.98344460  1  0.054284  9.2e-05  0.098481  0.092323  7.2e-05  1.017756  0.0
H  H37  1  0.15005961  0.70827139  0.51655619  1  0.054374  9.2e-05  0.098464  0.092321  7.2e-05  1.017788  0.0
H  H38  1  0.25448216  0.81291389  0.08887568  1  0.086577  0.000149  0.096125  0.097087  3.8e-05  1.065369  0.0
H  H39  1  0.74551058  0.31291644  0.41112717  1  0.086567  0.000149  0.096076  0.096942  3.8e-05  1.065479  0.0
H  H40  1  0.74551595  0.18708786  0.91112493  1  0.086538  0.000149  0.096085  0.097034  3.8e-05  1.06543  0.0
H  H41  1  0.25448832  0.68708339  0.58887471  1  0.086545  0.000149  0.096124  0.097032  3.8e-05  1.06553  0.0
H  H42  1  0.37260971  0.84142066  0.97775819  1  0.117805  4.9e-05  0.127141  0.122631  1.5e-05  0.956366  0.0
H  H43  1  0.62738577  0.34142119  0.52224973  1  0.11777  4.9e-05  0.127183  0.122721  1.5e-05  0.956237  0.0
H  H44  1  0.62738764  0.15857918  0.02224548  1  0.117808  4.9e-05  0.127148  0.122651  1.5e-05  0.956261  0.0
H  H45  1  0.37261313  0.65857928  0.47775401  1  0.117748  4.9e-05  0.127151  0.122649  1.5e-05  0.956401  0.0
H  H46  1  0.26944444  0.82723647  0.90030378  1  0.073721  0.000173  0.114057  0.096179  7.4e-05  0.979464  0.0
H  H47  1  0.73055648  0.32723401  0.59969948  1  0.073799  0.000173  0.114111  0.096266  7.4e-05  0.979602  0.0
H  H48  1  0.73055911  0.17276591  0.09969706  1  0.073869  0.000173  0.114076  0.0962  7.4e-05  0.979484  0.0
H  H49  1  0.26944474  0.67276519  0.40030250  1  0.073685  0.000173  0.114073  0.096231  7.4e-05  0.979483  0.0
H  H50  1  0.47287504  0.71046425  0.01758714  1  0.215034  0.000116  0.145737  0.133981  -0.000104  1.027139  0.0
H  H51  1  0.52712332  0.21046672  0.48241575  1  0.214686  0.000116  0.14577  0.134033  -0.000104  1.027119  0.0
H  H52  1  0.52712308  0.28953431  0.98241286  1  0.215004  0.000116  0.145777  0.134052  -0.000104  1.027087  0.0
H  H53  1  0.47288022  0.78953438  0.51758447  1  0.214991  0.000116  0.145772  0.134051  -0.000104  1.027079  0.0
H  H54  1  0.25648999  0.52695212  0.92283663  1  0.174623  8.6e-05  0.136897  0.105773  -6.1e-05  1.019954  0.0
H  H55  1  0.74350915  0.02695165  0.57716592  1  0.174618  8.6e-05  0.136891  0.105788  -6.1e-05  1.019919  0.0
H  H56  1  0.74350348  0.47304963  0.07716750  1  0.193959  8.4e-05  0.136947  0.105814  -6.1e-05  1.019869  0.0
H  H57  1  0.25649129  0.97304946  0.42283479  1  0.174588  8.6e-05  0.136902  0.105783  -6.1e-05  1.019947  0.0
H  H58  1  0.99581878  0.31263196  0.09926110  1  0.196386  0.000132  0.14878  0.126237  -3.6e-05  0.982805  0.0
H  H59  1  0.00418404  0.81263025  0.40074033  1  0.19635  0.000132  0.148748  0.126196  -3.6e-05  0.982806  0.0
H  H60  1  0.00418321  0.68736914  0.90073782  1  0.196351  0.000132  0.14875  0.126191  -3.6e-05  0.982801  0.0
H  H61  1  0.99581485  0.18736703  0.59926094  1  0.196397  0.000132  0.148751  0.126175  -3.6e-05  0.982845  0.0
H  H62  1  0.15458705  0.54018181  0.05182133  1  0.144029  0.000135  0.133666  0.097125  -6.6e-05  1.016925  0.0
H  H63  1  0.84541237  0.04018090  0.44817302  1  0.14388  0.000135  0.133641  0.097107  -6.6e-05  1.016896  0.0
H  H64  1  0.84540871  0.45982057  0.94817362  1  0.143864  0.000135  0.133623  0.09707  -6.6e-05  1.016962  0.0
H  H65  1  0.15458497  0.95981573  0.55182756  1  0.143987  0.000135  0.133665  0.097127  -6.6e-05  1.016845  0.0
H  H66  1  0.96334158  0.31905082  0.89264748  1  0.114554  4.9e-05  0.110632  0.100435  6.4e-05  1.00848  0.0
H  H67  1  0.03665702  0.81905353  0.60735447  1  0.11446  4.8e-05  0.110626  0.100409  6.4e-05  1.008462  0.0
H  H68  1  0.03665652  0.68094518  0.10735066  1  0.11457  4.9e-05  0.110625  0.100431  6.4e-05  1.008512  0.0
H  H69  1  0.96334187  0.18094502  0.39264741  1  0.11451  4.9e-05  0.11063  0.100405  6.4e-05  1.00846  0.0
H  H70  1  0.02358681  0.23917028  0.95837517  1  0.076779  5.2e-05  0.113005  0.091344  4.7e-05  1.00065  0.0
H  H71  1  0.97641505  0.73917162  0.54162787  1  0.076834  5.2e-05  0.113028  0.09135  4.7e-05  1.000612  0.0
H  H72  1  0.97641286  0.76082891  0.04162613  1  0.07681  5.2e-05  0.113009  0.091339  4.7e-05  1.000661  0.0
H  H73  1  0.02358384  0.26082629  0.45837401  1  0.076844  5.2e-05  0.112998  0.091267  4.7e-05  1.000697  0.0
H  H74  1  0.13243684  0.35226231  0.83355471  1  0.086613  0.000111  0.105513  0.114816  5.7e-05  0.989559  0.0
H  H75  1  0.86755937  0.85226386  0.66644392  1  0.086562  0.000111  0.1055  0.114844  5.7e-05  0.989463  0.0
H  H76  1  0.86756126  0.64773369  0.16644096  1  0.08653  0.000111  0.105497  0.114797  5.7e-05  0.989535  0.0
H  H77  1  0.13243876  0.14773277  0.33355916  1  0.086532  0.000111  0.105497  0.114818  5.7e-05  0.989483  0.0
H  H78  1  0.08820518  0.24630557  0.81511332  1  0.097716  0.000315  0.109384  0.130355  0.000156  0.96482  0.0
H  H79  1  0.91179045  0.74630636  0.68488758  1  0.09768  0.000315  0.109361  0.130324  0.000156  0.964856  0.0
H  H80  1  0.91179216  0.75368914  0.18488726  1  0.097711  0.000315  0.109291  0.130247  0.000156  0.96491  0.0
H  H81  1  0.08820921  0.25368899  0.31511310  1  0.097757  0.000315  0.109305  0.130261  0.000156  0.964888  0.0
H  H82  1  0.21183582  0.19373553  0.93183998  1  0.074329  0.000415  0.118935  0.102295  0.000239  0.964409  0.0
H  H83  1  0.78816378  0.69373696  0.56815821  1  0.074344  0.000415  0.118957  0.102339  0.000238  0.964357  0.0
H  H84  1  0.78816771  0.80626239  0.06815716  1  0.074335  0.000415  0.118934  0.102306  0.000238  0.964346  0.0
H  H85  1  0.21183511  0.30626159  0.43184120  1  0.074391  0.000415  0.118956  0.102315  0.000238  0.964377  0.0
H  H86  1  0.27135972  0.23683401  0.84476657  1  0.101815  9e-06  0.120767  0.113865  2e-06  1.007298  0.0
H  H87  1  0.72863592  0.73683577  0.65523004  1  0.101888  9e-06  0.12077  0.113862  2e-06  1.007312  0.0
H  H88  1  0.72863916  0.76316582  0.15522976  1  0.10191  9e-06  0.120762  0.113845  2e-06  1.007303  0.0
H  H89  1  0.27136220  0.26316086  0.34477119  1  0.101913  9e-06  0.12073  0.113792  2e-06  1.007284  0.0
H  H90  1  0.36759362  0.38763430  0.86532774  1  0.210601  0.000367  0.152301  0.143135  0.000105  0.971533  0.0
H  H91  1  0.63240483  0.88763625  0.63466713  1  0.210702  0.000367  0.152298  0.143145  0.000105  0.971549  0.0
H  H92  1  0.63240060  0.61236553  0.13466776  1  0.210625  0.000367  0.15231  0.143176  0.000105  0.971459  0.0
H  H93  1  0.36759950  0.11236422  0.36533559  1  0.210687  0.000367  0.152267  0.143125  0.000105  0.971702  0.0
H  H94  1  0.36763589  0.37835239  0.12532674  1  0.198106  0.000252  0.138718  0.114301  5.4e-05  1.003431  0.0
H  H95  1  0.63236835  0.87835841  0.37467078  1  0.198011  0.000253  0.138701  0.114251  5.4e-05  1.00351  0.0
H  H96  1  0.63236919  0.62164488  0.87467046  1  0.198013  0.000252  0.138685  0.114252  5.4e-05  1.00351  0.0
H  H97  1  0.36763366  0.12164397  0.62533371  1  0.197969  0.000253  0.138691  0.114287  5.4e-05  1.003385  0.0
H  H98  1  0.26473680  0.45078114  0.23089548  1  0.652672  -4.6e-05  0.273771  0.358654  -0.000149  1.001157  0.0
H  H99  1  0.73526344  0.95078111  0.26910466  1  0.65264  -4.6e-05  0.273782  0.358662  -0.000149  1.001138  0.0
H  H100  1  0.73526986  0.54922381  0.76910735  1  0.65274  -4.6e-05  0.273745  0.35863  -0.000149  1.001224  0.0
H  H101  1  0.26473157  0.04922064  0.73089397  1  0.652711  -4.6e-05  0.273749  0.35865  -0.000149  1.001177  0.0
H  H102  1  0.28911990  0.35726342  0.25800070  1  0.621068  -4.4e-05  0.280923  0.383256  1.8e-05  0.952195  0.0
H  H103  1  0.71088284  0.85726162  0.24200116  1  0.621401  -4.4e-05  0.28093  0.383254  1.9e-05  0.952198  0.0
H  H104  1  0.71088676  0.64274216  0.74200212  1  0.621052  -4.4e-05  0.280909  0.383247  1.9e-05  0.952207  0.0
H  H105  1  0.28911294  0.14273949  0.75799689  1  0.621072  -4.4e-05  0.280901  0.38325  1.8e-05  0.952218  0.0
H  H106  1  0.41999954  0.53972515  0.16094626  1  0.632484  -3.5e-05  0.27826  0.375107  -6e-05  0.974318  0.0
H  H107  1  0.58000068  0.03972755  0.33905307  1  0.632507  -3.5e-05  0.278223  0.375056  -6e-05  0.974393  0.0
H  H108  1  0.58000322  0.46027660  0.83905208  1  0.632465  -3.5e-05  0.278291  0.375142  -6e-05  0.974252  0.0
H  H109  1  0.41999977  0.96026908  0.66094764  1  0.632566  -3.5e-05  0.278244  0.375056  -6e-05  0.974407  0.0
H  H110  1  0.50529404  0.48562731  0.20362745  1  0.635476  -8.7e-05  0.281661  0.390034  -3.5e-05  0.940149  0.0
H  H111  1  0.49470459  0.98562935  0.29637680  1  0.635537  -8.7e-05  0.281631  0.389969  -3.5e-05  0.940252  0.0
H  H112  1  0.49470563  0.51437316  0.79637323  1  0.63548  -8.7e-05  0.281661  0.390065  -3.5e-05  0.940104  0.0
H  H113  1  0.50529818  0.01436537  0.70362339  1  0.635732  -8.7e-05  0.28167  0.389984  -3.5e-05  0.940216  0.0
C  C114  1  0.74354464  0.19248601  0.28817349  1  -0.096984  0.008277  -0.024634  -0.051272  0.005563  4.001103  0.006
C  C115  1  0.25645686  0.69247909  0.21183022  1  -0.097129  0.008276  -0.024567  -0.051134  0.005563  4.001041  0.006
C  C116  1  0.25646356  0.80751701  0.71182631  1  -0.096986  0.008276  -0.02457  -0.051262  0.005563  4.001005  0.006
C  C117  1  0.74354127  0.30751882  0.78817349  1  -0.096946  0.008277  -0.02456  -0.051166  0.005564  4.000767  0.006
C  C118  1  0.64099524  0.21835553  0.29809064  1  -0.042254  0.000457  -0.07312  -0.0959  -6.2e-05  3.924231  0.0
C  C119  1  0.35900698  0.71834662  0.20191114  1  -0.042243  0.000457  -0.073219  -0.096069  -6.2e-05  3.924247  0.0
C  C120  1  0.35901295  0.78164494  0.70190607  1  -0.042294  0.000457  -0.073119  -0.095891  -6.2e-05  3.924401  0.0
C  C121  1  0.64099115  0.28164810  0.79809565  1  -0.042329  0.000457  -0.073167  -0.09597  -6.2e-05  3.924246  0.0
C  C122  1  0.61495849  0.30480528  0.28971926  1  -0.129809  0.001639  -0.019212  -0.079328  0.001047  3.954722  0.001
C  C123  1  0.38504435  0.80479823  0.21028343  1  -0.129683  0.001639  -0.019153  -0.079247  0.001047  3.954793  0.001
C  C124  1  0.38504660  0.69519710  0.71027855  1  -0.130181  0.001639  -0.019216  -0.07939  0.001047  3.955069  0.001
C  C125  1  0.61495611  0.19519905  0.78972223  1  -0.129822  0.001639  -0.019163  -0.079416  0.001047  3.955028  0.001
C  C126  1  0.68941674  0.36480399  0.26944109  1  -0.036624  0.000828  -0.075226  -0.101865  0.000331  3.934708  0.001
C  C127  1  0.31058597  0.86479629  0.23055765  1  -0.036681  0.000829  -0.075284  -0.101966  0.000331  3.93475  0.001
C  C128  1  0.31058756  0.63519839  0.73055360  1  -0.036566  0.000828  -0.075283  -0.101865  0.000331  3.934555  0.001
C  C129  1  0.68941448  0.13520034  0.76944492  1  -0.03661  0.000828  -0.07526  -0.101804  0.000331  3.934622  0.001
C  C130  1  0.79151938  0.33876258  0.25843503  1  3e-05  0.011084  -0.019452  -0.025259  0.007605  3.989008  0.009
C  C131  1  0.20848417  0.83875558  0.24156570  1  0.000185  0.011087  -0.019333  -0.025074  0.007607  3.988942  0.009
C  C132  1  0.20848648  0.66124045  0.74156096  1  2.7e-05  0.011086  -0.019422  -0.025228  0.007606  3.98879  0.009
C  C133  1  0.79151395  0.16124233  0.75843615  1  0.000179  0.011087  -0.019412  -0.025275  0.007607  3.988987  0.009
C  C134  1  0.81810041  0.25281703  0.26782339  1  -0.046464  0.000434  -0.081563  -0.11555  0.000162  3.942692  0.0
C  C135  1  0.18190175  0.75281138  0.23217949  1  -0.025112  0.000419  -0.08166  -0.115774  0.000162  3.942707  0.0
C  C136  1  0.18190701  0.74718599  0.73217576  1  -0.025112  0.00042  -0.081659  -0.115674  0.000162  3.942673  0.0
C  C137  1  0.81809560  0.24718653  0.76782418  1  -0.025009  0.00042  -0.081642  -0.115639  0.000162  3.942626  0.0
C  C138  1  0.87251076  0.40453320  0.24135812  1  1.54436  -0.001373  0.191452  0.548419  -0.002128  4.248629  -0.004
C  C139  1  0.12749265  0.90453005  0.25863987  1  1.544315  -0.001373  0.191405  0.548449  -0.002127  4.248624  -0.004
C  C140  1  0.12749509  0.59546982  0.75863787  1  1.544655  -0.001372  0.191347  0.548437  -0.002127  4.248556  -0.004
C  C141  1  0.87250700  0.09547106  0.74135587  1  1.544292  -0.001373  0.191455  0.54846  -0.002128  4.248406  -0.004
C  C142  1  0.77541100  0.10111682  0.30161751  1  1.550421  0.000532  0.209343  0.569065  0.000474  4.1981  -0.001
C  C143  1  0.22458600  0.60111254  0.19838329  1  1.550007  0.000532  0.209308  0.568903  0.000474  4.198219  -0.001
C  C144  1  0.22459255  0.89888493  0.69838456  1  1.549849  0.000532  0.209347  0.569095  0.000474  4.198158  -0.001
C  C145  1  0.77541288  0.39888729  0.80161550  1  1.549819  0.000532  0.209371  0.568966  0.000473  4.19827  -0.001
C  C146  1  0.14219498  0.99609081  0.89252699  1  0.977498  4.8e-05  0.168073  0.082405  -0.000287  3.869054  0.001
C  C147  1  0.85779787  0.49609136  0.60747401  1  0.977791  4.8e-05  0.168044  0.082451  -0.000286  3.869061  0.001
C  C148  1  0.85780158  0.00391222  0.10747294  1  0.977505  4.7e-05  0.168096  0.082465  -0.000287  3.869051  0.001
C  C149  1  0.14219947  0.50391102  0.39252657  1  0.977445  4.8e-05  0.168111  0.082425  -0.000286  3.869097  0.001
C  C150  1  0.99305056  0.93741260  0.87219746  1  0.968166  -0.000652  0.149696  0.138849  -0.000992  3.983567  0.0
C  C151  1  0.00694550  0.43741463  0.62780392  1  0.968059  -0.000653  0.14975  0.138891  -0.000993  3.983575  0.0
C  C152  1  0.00694755  0.06258978  0.12780068  1  0.968241  -0.000652  0.149675  0.138859  -0.000992  3.983517  0.0
C  C153  1  0.99305340  0.56258839  0.37219797  1  0.96828  -0.000652  0.149744  0.138905  -0.000992  3.983498  0.0
C  C154  1  0.19013423  0.92429577  0.02937630  1  0.304762  0.000869  -0.037946  -0.080501  0.000644  3.863998  0.001
C  C155  1  0.80985908  0.42429799  0.47062490  1  0.305267  0.000869  -0.037875  -0.080311  0.000644  3.864147  0.001
C  C156  1  0.80986311  0.07570534  0.97062305  1  0.305123  0.000869  -0.037915  -0.080404  0.000644  3.864073  0.001
C  C157  1  0.19013982  0.57570184  0.52937575  1  0.305004  0.000869  -0.037849  -0.080276  0.000644  3.86403  0.001
C  C158  1  0.22044477  0.83029243  0.02783053  1  -0.031475  0.000261  -0.163408  -0.198106  0.000186  3.947008  0.0
C  C159  1  0.77954948  0.33029468  0.47217171  1  -0.032011  0.000261  -0.163353  -0.197862  0.000186  3.947253  0.0
C  C160  1  0.77955411  0.16970804  0.97216888  1  -0.031415  0.000261  -0.163341  -0.198011  0.000186  3.947017  0.0
C  C161  1  0.22044864  0.66970515  0.52783076  1  -0.031677  0.000261  -0.163424  -0.198031  0.000186  3.94731  0.0
C  C162  1  0.29806697  0.80945149  0.96319403  1  0.287071  0.000855  -0.043254  -0.088096  0.000618  3.866309  0.001
C  C163  1  0.70193243  0.30945125  0.53681110  1  0.286938  0.000855  -0.043332  -0.088355  0.000618  3.866691  0.001
C  C164  1  0.70193502  0.19055025  0.03680675  1  0.286951  0.000855  -0.043288  -0.088159  0.000618  3.866253  0.001
C  C165  1  0.29806957  0.69054794  0.46319153  1  0.287138  0.000855  -0.043288  -0.088213  0.000618  3.866444  0.001
C  C166  1  0.40619477  0.67739824  0.98894766  1  0.999518  -0.000842  0.167354  0.088529  -0.001307  3.848782  0.0
C  C167  1  0.59380641  0.17740078  0.51105189  1  0.999883  -0.000841  0.167333  0.088466  -0.001307  3.848888  0.0
C  C168  1  0.59380489  0.32260031  0.01105178  1  0.999563  -0.000841  0.167299  0.088437  -0.001307  3.848817  0.0
C  C169  1  0.40619481  0.82259905  0.48894885  1  0.999532  -0.000841  0.167305  0.088412  -0.001307  3.848948  0.0
C  C170  1  0.29338922  0.58640821  0.94255864  1  0.949593  -0.000348  0.149043  0.150645  -0.000625  3.955763  0.001
C  C171  1  0.70660671  0.08640723  0.55744291  1  0.950159  -0.000349  0.149018  0.150647  -0.000625  3.955591  0.001
C  C172  1  0.70660735  0.41359418  0.05744315  1  0.930209  -0.000346  0.148988  0.150644  -0.000625  3.955568  0.001
C  C173  1  0.29339140  0.91359324  0.44255647  1  0.949602  -0.000348  0.148985  0.150597  -0.000625  3.95566  0.001
C  C174  1  0.03729613  0.36304100  0.06929762  1  1.011128  -0.001064  0.17147  0.097157  -0.001497  3.876213  0.0
C  C175  1  0.96270581  0.86304067  0.43070109  1  1.011111  -0.001064  0.171542  0.097255  -0.001498  3.876224  0.0
C  C176  1  0.96270352  0.63696075  0.93069997  1  1.011126  -0.001064  0.171563  0.097259  -0.001498  3.876158  0.0
C  C177  1  0.03729386  0.13695789  0.56930020  1  1.011087  -0.001064  0.171559  0.097326  -0.001498  3.8761  0.0
C  C178  1  0.11736872  0.47866987  0.04336193  1  0.983643  -0.000386  0.14419  0.136231  -0.000577  4.011615  0.001
C  C179  1  0.88262989  0.97866823  0.45663432  1  0.983745  -0.000386  0.144295  0.136345  -0.000577  4.011591  0.001
C  C180  1  0.88262627  0.52133252  0.95663361  1  0.983749  -0.000386  0.144225  0.136259  -0.000577  4.011667  0.001
C  C181  1  0.11736666  0.02132968  0.54336437  1  0.983621  -0.000386  0.144229  0.136282  -0.000577  4.011703  0.001
C  C182  1  0.03621815  0.29956782  0.92571692  1  0.259813  0.00089  -0.047298  -0.086149  0.000615  3.85805  0.001
C  C183  1  0.96378126  0.79957031  0.57428329  1  0.259893  0.00089  -0.047326  -0.086153  0.000615  3.858047  0.001
C  C184  1  0.96378151  0.70043009  0.07428190  1  0.259807  0.00089  -0.047301  -0.086135  0.000615  3.858181  0.001
C  C185  1  0.03621686  0.20042824  0.42571794  1  0.259788  0.00089  -0.047269  -0.086008  0.000615  3.858074  0.001
C  C186  1  0.11972968  0.29024030  0.86333643  1  -0.048035  0.000326  -0.15408  -0.190821  0.000204  3.903424  0.0
C  C187  1  0.88026819  0.79024134  0.63666315  1  -0.047944  0.000327  -0.154056  -0.190864  0.000204  3.903344  0.0
C  C188  1  0.88026920  0.70975506  0.13666236  1  -0.047955  0.000326  -0.153991  -0.190721  0.000204  3.903501  0.0
C  C189  1  0.11973070  0.20975594  0.36333874  1  -0.047989  0.000326  -0.15403  -0.190808  0.000204  3.903532  0.0
C  C190  1  0.22307916  0.25234820  0.89625533  1  0.306931  0.000939  -0.04494  -0.085624  0.000658  3.852946  0.001
C  C191  1  0.77692111  0.75234949  0.60374388  1  0.306887  0.000939  -0.044979  -0.085643  0.000658  3.852874  0.001
C  C192  1  0.77692283  0.74764971  0.10374421  1  0.30691  0.000939  -0.044934  -0.085587  0.000658  3.852886  0.001
C  C193  1  0.22307778  0.24764778  0.39625677  1  0.306921  0.000939  -0.044901  -0.085485  0.000658  3.852821  0.001
C  C194  1  0.34902014  0.37156520  0.92802044  1  0.983337  -0.000756  0.168522  0.087523  -0.001106  3.862664  0.0
C  C195  1  0.65097990  0.87156676  0.57197457  1  0.983164  -0.000757  0.168526  0.087637  -0.001107  3.862496  0.0
C  C196  1  0.65097718  0.62843527  0.07197396  1  0.983272  -0.000758  0.168521  0.087582  -0.001107  3.862343  0.0
C  C197  1  0.34902210  0.12843371  0.42802868  1  0.982967  -0.000758  0.168555  0.087625  -0.001107  3.86266  0.0
C  C198  1  0.34821431  0.36573573  0.06050493  1  0.92989  -0.000305  0.146576  0.143529  -0.000516  3.963626  0.001
C  C199  1  0.65178762  0.86574081  0.43949130  1  0.929528  -0.0003  0.146482  0.143421  -0.000515  3.963748  0.001
C  C200  1  0.65178689  0.63426346  0.93949087  1  0.930048  -0.000304  0.146573  0.143466  -0.000515  3.963857  0.001
C  C201  1  0.34821128  0.13426094  0.56051244  1  0.929983  -0.000304  0.146556  0.143384  -0.000515  3.963657  0.001
S  S202  1  0.48914226  0.34087341  0.31705455  1  3.202294  0.000414  0.48922  1.152302  0.000287  6.259104  0.0
S  S203  1  0.51085974  0.84086825  0.18294734  1  3.202113  0.000414  0.489054  1.152034  0.000287  6.259272  0.0
S  S204  1  0.51086284  0.65912579  0.68294512  1  3.202689  0.000414  0.489102  1.152111  0.000287  6.259395  0.0
S  S205  1  0.48913916  0.15912711  0.81705392  1  3.202357  0.000414  0.489087  1.152106  0.000287  6.259616  0.0
N  N206  1  0.07199989  0.43550688  0.10496682  1  -1.201088  0.075978  -0.372427  -0.327241  0.049758  3.657146  0.066
N  N207  1  0.92800269  0.93550547  0.39503163  1  -1.201115  0.075977  -0.372518  -0.327395  0.049757  3.65727  0.066
N  N208  1  0.92799821  0.56449486  0.89503009  1  -1.201113  0.075973  -0.372453  -0.327311  0.049755  3.657155  0.066
N  N209  1  0.07199620  0.06449181  0.60496963  1  -1.201165  0.075976  -0.372476  -0.327366  0.049756  3.657173  0.066
N  N210  1  0.11182256  0.43734481  0.97186116  1  -0.669735  0.00743  -0.215693  -0.252281  0.00466  3.135878  0.006
N  N211  1  0.88817736  0.93734503  0.52813544  1  -0.66952  0.00743  -0.215738  -0.252378  0.00466  3.136125  0.006
N  N212  1  0.88817477  0.56265630  0.02813572  1  -0.669508  0.007429  -0.215612  -0.252161  0.004659  3.135964  0.006
N  N213  1  0.11181998  0.06265225  0.47186514  1  -0.669559  0.007429  -0.215682  -0.252237  0.004659  3.136178  0.006
N  N214  1  0.06113234  0.36388190  0.98966075  1  -0.816984  0.002389  -0.129574  0.167878  0.001368  3.719644  0.002
N  N215  1  0.93886772  0.86388214  0.51033861  1  -0.817055  0.002389  -0.129513  0.167968  0.001368  3.719588  0.002
N  N216  1  0.93886421  0.63611794  0.01033547  1  -0.817105  0.002388  -0.129656  0.167775  0.001368  3.719852  0.002
N  N217  1  0.06113117  0.13611514  0.48966265  1  -0.816952  0.002388  -0.129601  0.167833  0.001368  3.719645  0.002
N  N218  1  0.28537268  0.30917578  0.95040999  1  -0.799034  0.002581  -0.13051  0.175428  0.001481  3.747579  0.002
N  N219  1  0.71462748  0.80917674  0.54958589  1  -0.798946  0.002581  -0.130467  0.175433  0.001481  3.747393  0.002
N  N220  1  0.71462620  0.69082469  0.04958633  1  -0.798961  0.002581  -0.130476  0.175414  0.00148  3.7474  0.002
N  N221  1  0.28537220  0.19082182  0.45041664  1  -0.798912  0.002581  -0.130386  0.175488  0.001481  3.747356  0.002
N  N222  1  0.28382628  0.30412351  0.03432163  1  -0.673819  0.009962  -0.227737  -0.267625  0.006335  3.078358  0.007
N  N223  1  0.71617421  0.80412585  0.46567417  1  -0.673949  0.009963  -0.227689  -0.267595  0.006335  3.078266  0.007
N  N224  1  0.71617415  0.69587568  0.96567475  1  -0.674  0.009963  -0.227726  -0.267581  0.006335  3.078331  0.007
N  N225  1  0.28382236  0.19587334  0.53432823  1  -0.67411  0.009963  -0.227781  -0.267617  0.006335  3.078202  0.007
N  N226  1  0.38985515  0.40919499  0.99678436  1  -1.212777  0.087314  -0.36694  -0.326912  0.057164  3.616703  0.076
N  N227  1  0.61014559  0.90919753  0.50320991  1  -1.212278  0.087307  -0.366899  -0.326888  0.057161  3.616893  0.076
N  N228  1  0.61014139  0.59080676  0.00321001  1  -1.212728  0.087313  -0.366951  -0.326949  0.057162  3.61694  0.076
N  N229  1  0.38985642  0.09080421  0.49679396  1  -1.212384  0.087312  -0.366968  -0.326948  0.057161  3.616995  0.076
N  N230  1  0.06096946  0.99200423  0.83765672  1  -1.198446  0.06874  -0.366089  -0.302371  0.045211  3.600137  0.059
N  N231  1  0.93902494  0.49200510  0.66234374  1  -1.198319  0.068746  -0.36607  -0.302415  0.045214  3.60012  0.059
N  N232  1  0.93902711  0.00800007  0.16234382  1  -1.19833  0.068742  -0.36602  -0.302372  0.045212  3.599925  0.059
N  N233  1  0.06097317  0.50799793  0.33765687  1  -1.198381  0.068744  -0.3661  -0.302438  0.045214  3.600003  0.059
N  N234  1  0.12265212  0.94604713  0.95716837  1  -0.829811  0.002434  -0.13407  0.164725  0.001366  3.761153  0.002
N  N235  1  0.87734237  0.44604858  0.54283291  1  -0.829876  0.002434  -0.134059  0.164595  0.001367  3.761371  0.002
N  N236  1  0.87734366  0.05395462  0.04283153  1  -0.830282  0.002434  -0.134173  0.164554  0.001366  3.761391  0.002
N  N237  1  0.12265575  0.55395317  0.45716709  1  -0.829898  0.002434  -0.134136  0.164612  0.001366  3.761286  0.002
N  N238  1  0.02790815  0.90796735  0.94553275  1  -0.685581  0.005835  -0.226695  -0.276458  0.003689  3.10049  0.004
N  N239  1  0.97208641  0.40796801  0.55446868  1  -0.685839  0.005836  -0.226791  -0.276492  0.00369  3.100545  0.004
N  N240  1  0.97208841  0.09203440  0.05446594  1  -0.685677  0.005835  -0.226721  -0.27645  0.003689  3.100465  0.004
N  N241  1  0.02791326  0.59203373  0.44553262  1  -0.685657  0.005835  -0.22672  -0.276469  0.003689  3.100491  0.004
N  N242  1  0.31911917  0.71802674  0.96267159  1  -0.833971  0.002311  -0.130901  0.182255  0.001278  3.725895  0.002
N  N243  1  0.68088118  0.21802779  0.53733209  1  -0.834022  0.002311  -0.130925  0.18231  0.001278  3.726193  0.002
N  N244  1  0.68087972  0.28197437  0.03732906  1  -0.833973  0.002311  -0.130859  0.182331  0.001278  3.725933  0.002
N  N245  1  0.31912082  0.78197332  0.46266993  1  -0.833994  0.002311  -0.130864  0.182318  0.001278  3.726159  0.002
N  N246  1  0.24575304  0.66126301  0.93370763  1  -0.686029  0.008699  -0.222812  -0.269153  0.005489  3.091204  0.006
N  N247  1  0.75424741  0.16126258  0.56629442  1  -0.685974  0.008699  -0.222837  -0.26926  0.005489  3.091103  0.006
N  N248  1  0.75424586  0.33873937  0.06629363  1  -0.685933  0.008699  -0.222842  -0.269225  0.005489  3.091083  0.006
N  N249  1  0.24575381  0.83873725  0.43370756  1  -0.685951  0.0087  -0.22283  -0.269214  0.005489  3.091222  0.006
N  N250  1  0.39240146  0.59326320  0.97685344  1  -1.193282  0.087231  -0.356698  -0.309018  0.057366  3.554713  0.076
N  N251  1  0.60759679  0.09326567  0.52314941  1  -1.193864  0.087232  -0.35667  -0.308962  0.057366  3.554735  0.076
N  N252  1  0.60759510  0.40673727  0.02314587  1  -1.193381  0.08723  -0.356668  -0.309015  0.057365  3.554583  0.076
N  N253  1  0.39240366  0.90673544  0.47685253  1  -1.193291  0.087233  -0.356644  -0.308924  0.057367  3.554604  0.076
O  O254  1  0.96619827  0.37425038  0.23834317  1  -1.102869  0.135865  -0.330447  -0.549648  0.084343  2.306494  0.122
O  O255  1  0.03380520  0.87425052  0.26165556  1  -1.103003  0.135863  -0.330433  -0.549658  0.084342  2.306673  0.122
O  O256  1  0.03380759  0.62574817  0.76165406  1  -1.102827  0.135863  -0.330382  -0.549606  0.084342  2.306543  0.122
O  O257  1  0.96619524  0.12575251  0.73834453  1  -1.102897  0.135873  -0.330421  -0.549616  0.084348  2.306637  0.122
O  O258  1  0.84849256  0.48165727  0.23334051  1  -1.16872  0.000754  -0.331214  -0.573442  -0.000956  2.129053  0.001
O  O259  1  0.15151457  0.98165405  0.26665238  1  -1.168567  0.000755  -0.331191  -0.573507  -0.000955  2.129004  0.001
O  O260  1  0.15151173  0.51834640  0.76665171  1  -1.16881  0.000754  -0.331176  -0.57347  -0.000955  2.129019  0.001
O  O261  1  0.84848737  0.01834833  0.73333233  1  -1.168599  0.000755  -0.331229  -0.57349  -0.000955  2.128916  0.001
O  O262  1  0.87303817  0.08564340  0.29805773  1  -1.126868  0.090093  -0.325393  -0.556709  0.056626  2.36391  0.082
O  O263  1  0.12695963  0.58564241  0.20194193  1  -1.126886  0.090089  -0.325364  -0.556628  0.056623  2.363912  0.082
O  O264  1  0.12696617  0.91435771  0.70194809  1  -1.126568  0.090092  -0.325374  -0.556642  0.056627  2.363846  0.082
O  O265  1  0.87303847  0.41435550  0.79805374  1  -1.126726  0.090092  -0.325438  -0.556712  0.056625  2.363977  0.082
O  O266  1  0.70793905  0.04549754  0.31605090  1  -1.196229  0.002403  -0.301047  -0.536584  0.000931  2.263211  0.002
O  O267  1  0.29205416  0.54549262  0.18394441  1  -1.195852  0.002404  -0.301124  -0.536564  0.000931  2.263255  0.002
O  O268  1  0.29205984  0.95450549  0.68394851  1  -1.195919  0.002403  -0.301098  -0.536633  0.00093  2.263294  0.002
O  O269  1  0.70794393  0.45450721  0.81605002  1  -1.195838  0.002403  -0.301095  -0.53654  0.000931  2.263267  0.002
O  O270  1  0.48972984  0.43350152  0.30242538  1  -1.343212  0.000326  -0.356668  -0.60955  0.000209  2.18316  0.0
O  O271  1  0.51026888  0.93349694  0.19757539  1  -1.343027  0.000326  -0.356631  -0.609506  0.00021  2.18327  0.0
O  O272  1  0.51027294  0.56649895  0.69757728  1  -1.343277  0.000326  -0.356643  -0.609528  0.000209  2.183293  0.0
O  O273  1  0.48972999  0.06650097  0.80241908  1  -1.343191  0.000326  -0.356602  -0.609488  0.000209  2.183319  0.0
O  O274  1  0.48415176  0.31760980  0.40471047  1  -1.331358  0.000427  -0.364214  -0.62037  0.000261  2.152865  0.0
O  O275  1  0.51585182  0.81760565  0.09529035  1  -1.331411  0.000427  -0.364133  -0.62026  0.000261  2.152842  0.0
O  O276  1  0.51585643  0.68238556  0.59528871  1  -1.331444  0.000427  -0.364168  -0.620268  0.000261  2.152918  0.0
O  O277  1  0.48414241  0.18238395  0.90471010  1  -1.331395  0.000427  -0.364175  -0.620267  0.000261  2.153058  0.0
O  O278  1  0.41242353  0.29436717  0.26274278  1  -1.339954  0.000108  -0.358393  -0.615475  5.9e-05  2.139259  0.0
O  O279  1  0.58758165  0.79436297  0.23725758  1  -1.339935  0.000108  -0.358325  -0.615356  5.9e-05  2.139245  0.0
O  O280  1  0.58758311  0.70563330  0.73725633  1  -1.340065  0.000108  -0.358325  -0.615374  5.9e-05  2.139298  0.0
O  O281  1  0.41241880  0.20563430  0.76274313  1  -1.340076  0.000108  -0.358336  -0.615371  5.9e-05  2.139308  0.0
O  O282  1  0.23509569  0.40163413  0.26043999  1  -1.302359  -0.000344  -0.618068  -0.822199  -0.000576  2.014261  0.001
O  O283  1  0.76490775  0.90163292  0.23956419  1  -1.302697  -0.000343  -0.618095  -0.822217  -0.000576  2.014245  0.001
O  O284  1  0.76491486  0.59837273  0.73956856  1  -1.302442  -0.000342  -0.618032  -0.822176  -0.000575  2.014274  0.001
O  O285  1  0.23508725  0.09837010  0.76043321  1  -1.302416  -0.000343  -0.618013  -0.82218  -0.000576  2.014247  0.001
O  O286  1  0.49289606  0.52235952  0.15427897  1  -1.283825  -0.001661  -0.611554  -0.8113  -0.001874  1.980666  -0.001
O  O287  1  0.50710497  0.02236133  0.34572356  1  -1.283875  -0.001661  -0.611509  -0.811199  -0.001874  1.98077  -0.001
O  O288  1  0.50710593  0.47764159  0.84572243  1  -1.28382  -0.001661  -0.611593  -0.811356  -0.001874  1.980667  -0.001
O  O289  1  0.49289625  0.97763147  0.65427595  1  -1.284162  -0.001661  -0.611571  -0.811229  -0.001874  1.980853  -0.001
