# generated using pymatgen
data_AgH16C13S(NO)3
_symmetry_space_group_name_H-M   'P 1'
_cell_length_a   7.94556407
_cell_length_b   12.49554727
_cell_length_c   14.22512332
_cell_angle_alpha   89.99970152
_cell_angle_beta   89.99875284
_cell_angle_gamma   90.00046844
_symmetry_Int_Tables_number   1
_chemical_formula_structural   AgH16C13S(NO)3
_chemical_formula_sum   'Ag4 H64 C52 S4 N12 O12'
_cell_volume   1412.32958134
_cell_formula_units_Z   4
loop_
 _symmetry_equiv_pos_site_id
 _symmetry_equiv_pos_as_xyz
  1  'x, y, z'
loop_
 _atom_site_type_symbol
 _atom_site_label
 _atom_site_symmetry_multiplicity
 _atom_site_fract_x
 _atom_site_fract_y
 _atom_site_fract_z
 _atom_site_occupancy
 _atom_site_hle17_bader_spin_density
 _atom_site_hle17_ddec_charge
 _atom_site_hle17_ddec_spin_density
 _atom_site_hle17_ddec_sum_bond_order
 _atom_site_hle17_magmom
 _atom_site_hse06_10hf_bader_spin_density
 _atom_site_hse06_10hf_ddec_charge
 _atom_site_hse06_10hf_ddec_spin_density
 _atom_site_hse06_10hf_ddec_sum_bond_order
 _atom_site_hse06_10hf_magmom
 _atom_site_hse06_bader_spin_density
 _atom_site_hse06_ddec_charge
 _atom_site_hse06_ddec_spin_density
 _atom_site_hse06_ddec_sum_bond_order
 _atom_site_hse06_magmom
 _atom_site_pbe_bader_spin_density
 _atom_site_pbe_cm5_charge
 _atom_site_pbe_ddec_charge
 _atom_site_pbe_ddec_spin_density
 _atom_site_pbe_ddec_sum_bond_order
 _atom_site_pbe_magmom
Ag  Ag0  1  0.28474988  0.67946612  0.49082340  1  0  0.527788  0  1.411895  0  0  0.382533  0  1.83828  0  0  0.408182  0  1.796164  0  0  0.494829  0.365905  0  1.866849  0
Ag  Ag1  1  0.71525200  0.17946430  0.50917956  1  0  0.527862  0  1.411942  0  0  0.382604  0  1.83833  0  0  0.408249  0  1.79621  0  0  0.494844  0.365973  0  1.866906  0
Ag  Ag2  1  0.78473567  0.17946038  0.00917504  1  0  0.527851  0  1.411959  0  0  0.382539  0  1.838372  0  0  0.408193  0  1.796255  0  0  0.494819  0.365908  0  1.866944  0
Ag  Ag3  1  0.21527879  0.67946683  0.99082441  1  0  0.527883  0  1.411989  0  0  0.382579  0  1.83841  0  0  0.408236  0  1.796291  0  0  0.494855  0.365949  0  1.866987  0
H  H4  1  0.44694247  0.99135675  0.25705924  1  0  0.09682  0  0.989953  0  0  0.107963  0  1.053213  0  0  0.110896  0  1.051561  0  0  0.097496  0.105838  0  1.05437  0
H  H5  1  0.55301173  0.49134946  0.74294373  1  0  0.096963  0  0.989936  0  0  0.108075  0  1.053205  0  0  0.111005  0  1.051549  0  0  0.097507  0.105925  0  1.05439  0
H  H6  1  0.94695066  0.49135841  0.24293581  1  0  0.096839  0  0.99015  0  0  0.108023  0  1.053338  0  0  0.110992  0  1.051628  0  0  0.097474  0.105867  0  1.054521  0
H  H7  1  0.05300354  0.99135501  0.75706012  1  0  0.096933  0  0.99023  0  0  0.108047  0  1.05346  0  0  0.11097  0  1.05181  0  0  0.097515  0.105913  0  1.05463  0
H  H8  1  0.76105453  0.72235718  0.18580722  1  0  0.106219  0  0.966026  0  0  0.118778  0  1.02703  0  0  0.121822  0  1.025247  0  0  0.096851  0.116564  0  1.028345  0
H  H9  1  0.23893656  0.22232378  0.81418641  1  0  0.106041  0  0.966031  0  0  0.118545  0  1.027171  0  0  0.121598  0  1.025367  0  0  0.096721  0.116336  0  1.028475  0
H  H10  1  0.26105292  0.22236056  0.31419483  1  0  0.106164  0  0.965988  0  0  0.118725  0  1.027016  0  0  0.121765  0  1.025231  0  0  0.096808  0.116509  0  1.028334  0
H  H11  1  0.73896082  0.72232520  0.68581357  1  0  0.106135  0  0.965888  0  0  0.118679  0  1.026988  0  0  0.121759  0  1.025121  0  0  0.096765  0.116467  0  1.028294  0
H  H12  1  0.63116880  0.82622541  0.05953471  1  0  0.105294  0  0.959784  0  0  0.127216  0  1.01924  0  0  0.129065  0  1.018556  0  0  0.086416  0.125803  0  1.01979  0
H  H13  1  0.36880723  0.32622876  0.94046689  1  0  0.105299  0  0.959851  0  0  0.127166  0  1.019349  0  0  0.129028  0  1.01865  0  0  0.086379  0.125747  0  1.019904  0
H  H14  1  0.13116105  0.32622963  0.44046635  1  0  0.105349  0  0.959694  0  0  0.127259  0  1.019175  0  0  0.12911  0  1.018485  0  0  0.08644  0.12584  0  1.019731  0
H  H15  1  0.86880870  0.82623894  0.55954228  1  0  0.105336  0  0.959827  0  0  0.127213  0  1.019327  0  0  0.12906  0  1.018645  0  0  0.086428  0.125819  0  1.019853  0
H  H16  1  0.66817842  0.96169928  0.08857083  1  0  0.092692  0  0.988079  0  0  0.107796  0  1.067141  0  0  0.109614  0  1.065525  0  0  0.079548  0.106421  0  1.068352  0
H  H17  1  0.33179051  0.46168900  0.91140344  1  0  0.09271  0  0.988186  0  0  0.107804  0  1.067221  0  0  0.109618  0  1.065609  0  0  0.079519  0.106436  0  1.068425  0
H  H18  1  0.16818689  0.46170368  0.41142143  1  0  0.092749  0  0.987982  0  0  0.107871  0  1.067028  0  0  0.109691  0  1.065407  0  0  0.079578  0.106496  0  1.068237  0
H  H19  1  0.83181098  0.96170381  0.58859995  1  0  0.092761  0  0.988119  0  0  0.107799  0  1.067257  0  0  0.109617  0  1.065639  0  0  0.079517  0.106427  0  1.068463  0
H  H20  1  0.45996387  0.91127598  0.08547488  1  0  0.12627  0  0.963892  0  0  0.147047  0  1.021821  0  0  0.148829  0  1.021722  0  0  0.089429  0.145727  0  1.021911  0
H  H21  1  0.54000065  0.41127959  0.91451719  1  0  0.126257  0  0.964121  0  0  0.147  0  1.022047  0  0  0.14878  0  1.021949  0  0  0.089397  0.145667  0  1.02215  0
H  H22  1  0.95996038  0.41128941  0.41453232  1  0  0.126271  0  0.963903  0  0  0.147052  0  1.021805  0  0  0.148834  0  1.021703  0  0  0.089415  0.145731  0  1.021897  0
H  H23  1  0.04001169  0.91128216  0.58548225  1  0  0.126195  0  0.96411  0  0  0.146999  0  1.021965  0  0  0.148783  0  1.02186  0  0  0.08939  0.145653  0  1.022082  0
H  H24  1  0.87011034  0.65398359  0.42400289  1  0  0.100377  0  0.946674  0  0  0.1193  0  1.017137  0  0  0.121828  0  1.014312  0  0  0.08839  0.117412  0  1.019192  0
H  H25  1  0.12988996  0.15394225  0.57600371  1  0  0.100549  0  0.94664  0  0  0.119499  0  1.017049  0  0  0.122031  0  1.014216  0  0  0.088473  0.117603  0  1.019117  0
H  H26  1  0.37011041  0.15398841  0.07600025  1  0  0.100336  0  0.946863  0  0  0.119286  0  1.01726  0  0  0.121813  0  1.014436  0  0  0.088393  0.117398  0  1.019314  0
H  H27  1  0.62989995  0.65393424  0.92399229  1  0  0.10059  0  0.946746  0  0  0.119555  0  1.017105  0  0  0.122083  0  1.014277  0  0  0.088497  0.117664  0  1.019166  0
H  H28  1  0.88471935  0.61974700  0.30332905  1  0  0.101944  0  0.983304  0  0  0.123815  0  1.04403  0  0  0.124825  0  1.0447  0  0  0.087734  0.123108  0  1.043554  0
H  H29  1  0.11529687  0.11973526  0.69668262  1  0  0.101978  0  0.983406  0  0  0.123922  0  1.044021  0  0  0.124939  0  1.044679  0  0  0.087823  0.123213  0  1.043547  0
H  H30  1  0.38471727  0.11975429  0.19667124  1  0  0.102049  0  0.983286  0  0  0.123877  0  1.04404  0  0  0.12489  0  1.044703  0  0  0.087734  0.123166  0  1.04357  0
H  H31  1  0.61532916  0.61972958  0.80331512  1  0  0.101962  0  0.983701  0  0  0.123924  0  1.044266  0  0  0.124939  0  1.044926  0  0  0.08784  0.123218  0  1.043789  0
H  H32  1  0.71525836  0.57102258  0.37298162  1  0  0.117875  0  0.954666  0  0  0.137894  0  1.01708  0  0  0.139728  0  1.016263  0  0  0.090935  0.136511  0  1.017715  0
H  H33  1  0.28475222  0.07101137  0.62703660  1  0  0.117804  0  0.95489  0  0  0.13782  0  1.01734  0  0  0.139651  0  1.016524  0  0  0.090904  0.136435  0  1.017979  0
H  H34  1  0.21526275  0.07103029  0.12702449  1  0  0.117803  0  0.9548  0  0  0.137814  0  1.01722  0  0  0.139647  0  1.016403  0  0  0.090855  0.136431  0  1.017856  0
H  H35  1  0.78477300  0.57101246  0.87296280  1  0  0.117855  0  0.954743  0  0  0.137791  0  1.017313  0  0  0.139622  0  1.016495  0  0  0.090855  0.136406  0  1.017952  0
H  H36  1  0.39821547  0.53390786  0.32602939  1  0  0.113894  0  0.945113  0  0  0.125338  0  1.001757  0  0  0.127805  0  1.000237  0  0  0.125514  0.123455  0  1.003071  0
H  H37  1  0.60177702  0.03391325  0.67397002  1  0  0.113798  0  0.94518  0  0  0.125331  0  1.001714  0  0  0.127794  0  1.000195  0  0  0.12551  0.123448  0  1.003027  0
H  H38  1  0.89818732  0.03391314  0.17397254  1  0  0.113938  0  0.945301  0  0  0.125374  0  1.001903  0  0  0.127834  0  1.000385  0  0  0.125566  0.123501  0  1.00321  0
H  H39  1  0.10180517  0.53392718  0.82603178  1  0  0.113901  0  0.945279  0  0  0.125307  0  1.001958  0  0  0.127767  0  1.000441  0  0  0.125567  0.123439  0  1.003258  0
H  H40  1  0.11940239  0.81432219  0.33357837  1  0  0.100659  0  0.947827  0  0  0.111106  0  1.007469  0  0  0.113617  0  1.006281  0  0  0.124992  0.109217  0  1.008521  0
H  H41  1  0.88061125  0.31432190  0.66642188  1  0  0.100714  0  0.947686  0  0  0.111074  0  1.007429  0  0  0.113586  0  1.006239  0  0  0.124987  0.109184  0  1.008481  0
H  H42  1  0.61939845  0.31433391  0.16642429  1  0  0.10066  0  0.947638  0  0  0.111022  0  1.007394  0  0  0.113534  0  1.006202  0  0  0.124962  0.109132  0  1.008447  0
H  H43  1  0.38061645  0.81434379  0.83357596  1  0  0.100859  0  0.947848  0  0  0.111153  0  1.007656  0  0  0.113666  0  1.006465  0  0  0.125008  0.109264  0  1.008707  0
H  H44  1  0.11933414  0.82039769  0.15578166  1  0  0.096262  0  0.934593  0  0  0.105782  0  0.995232  0  0  0.108429  0  0.993463  0  0  0.125502  0.103755  0  0.996789  0
H  H45  1  0.88069091  0.32039553  0.84421997  1  0  0.096219  0  0.934582  0  0  0.105824  0  0.995122  0  0  0.108466  0  0.993368  0  0  0.125542  0.103799  0  0.996673  0
H  H46  1  0.61931576  0.32040674  0.34422379  1  0  0.096174  0  0.934661  0  0  0.105851  0  0.995123  0  0  0.108491  0  0.99338  0  0  0.125494  0.103824  0  0.996676  0
H  H47  1  0.38070174  0.82041769  0.65577573  1  0  0.096082  0  0.934498  0  0  0.105785  0  0.994959  0  0  0.108422  0  0.993224  0  0  0.125452  0.103761  0  0.996511  0
H  H48  1  0.38092781  0.51382866  0.06072498  1  0  0.115889  0  0.976599  0  0  0.133307  0  1.051224  0  0  0.135952  0  1.04796  0  0  0.091204  0.131199  0  1.053724  0
H  H49  1  0.61907953  0.01382694  0.93927100  1  0  0.115811  0  0.976705  0  0  0.133216  0  1.051367  0  0  0.135862  0  1.048102  0  0  0.09116  0.131108  0  1.053868  0
H  H50  1  0.88092085  0.01382674  0.43926811  1  0  0.11589  0  0.976573  0  0  0.1333  0  1.051192  0  0  0.135946  0  1.047928  0  0  0.091216  0.131194  0  1.053692  0
H  H51  1  0.11907517  0.51386328  0.56072436  1  0  0.115939  0  0.97666  0  0  0.13337  0  1.051224  0  0  0.136019  0  1.047951  0  0  0.091254  0.131256  0  1.053732  0
H  H52  1  0.39842689  0.43461218  0.16446265  1  0  0.122512  0  0.958797  0  0  0.142025  0  1.021375  0  0  0.142039  0  1.024049  0  0  0.096701  0.141928  0  1.019582  0
H  H53  1  0.60158449  0.93461441  0.83554057  1  0  0.122499  0  0.958866  0  0  0.142004  0  1.021455  0  0  0.142018  0  1.024127  0  0  0.096696  0.141907  0  1.019663  0
H  H54  1  0.89840759  0.93462631  0.33552271  1  0  0.122489  0  0.958798  0  0  0.141994  0  1.021368  0  0  0.142007  0  1.024042  0  0  0.096692  0.141897  0  1.019574  0
H  H55  1  0.10156855  0.43463630  0.66445450  1  0  0.1222  0  0.958557  0  0  0.141699  0  1.021231  0  0  0.141716  0  1.023895  0  0  0.096542  0.141602  0  1.019439  0
H  H56  1  0.55979484  0.52827246  0.13444695  1  0  0.150017  0  0.94279  0  0  0.169646  0  1.00138  0  0  0.171334  0  1.000847  0  0  0.103097  0.168272  0  1.001862  0
H  H57  1  0.44021520  0.02826143  0.86555389  1  0  0.150003  0  0.942881  0  0  0.169647  0  1.001448  0  0  0.171341  0  1.000905  0  0  0.103082  0.168273  0  1.001931  0
H  H58  1  0.05980131  0.02826193  0.36554649  1  0  0.149958  0  0.942804  0  0  0.169583  0  1.001392  0  0  0.171284  0  1.000843  0  0  0.103028  0.168211  0  1.001877  0
H  H59  1  0.94020496  0.52829838  0.63445013  1  0  0.149999  0  0.942874  0  0  0.169599  0  1.001496  0  0  0.17128  0  1.00097  0  0  0.103104  0.168235  0  1.001971  0
H  H60  1  0.65090229  0.69178422  0.51124346  1  0  0.318296  0  0.930548  0  0  0.303657  0  0.991341  0  0  0.310096  0  0.986656  0  0  0.292243  0.299107  0  0.994588  0
H  H61  1  0.34909470  0.19177657  0.48875172  1  0  0.318487  0  0.930177  0  0  0.303839  0  0.991005  0  0  0.31028  0  0.986315  0  0  0.292311  0.299287  0  0.994252  0
H  H62  1  0.15090273  0.19178415  0.98875703  1  0  0.318283  0  0.930574  0  0  0.303639  0  0.991379  0  0  0.310078  0  0.986692  0  0  0.292239  0.299089  0  0.994625  0
H  H63  1  0.84911063  0.69176864  0.01124588  1  0  0.31835  0  0.930337  0  0  0.303722  0  0.991144  0  0  0.310162  0  0.986457  0  0  0.292249  0.299174  0  0.994399  0
H  H64  1  0.57687758  0.81667082  0.53947888  1  0  0.305853  0  0.926523  0  0  0.294545  0  0.983489  0  0  0.300231  0  0.979784  0  0  0.295369  0.290514  0  0.986107  0
H  H65  1  0.42312099  0.31666374  0.46051714  1  0  0.305909  0  0.926397  0  0  0.294638  0  0.983328  0  0  0.300325  0  0.97962  0  0  0.29539  0.290607  0  0.985943  0
H  H66  1  0.07687534  0.31666932  0.96052616  1  0  0.305807  0  0.926628  0  0  0.294552  0  0.983513  0  0  0.300238  0  0.979808  0  0  0.295368  0.290521  0  0.986131  0
H  H67  1  0.92311820  0.81665804  0.03948321  1  0  0.305739  0  0.926767  0  0  0.294636  0  0.98348  0  0  0.300332  0  0.979746  0  0  0.295374  0.290604  0  0.986097  0
C  C68  1  0.51951976  0.88933386  0.36999231  1  0  -0.234765  0  3.765968  0  0  -0.207324  0  4.01761  0  0  -0.217057  0  4.039454  0  0  -0.039852  -0.200986  0  4.002958  0
C  C69  1  0.48047595  0.38933407  0.63000338  1  0  -0.234542  0  3.765796  0  0  -0.207393  0  4.017705  0  0  -0.217141  0  4.039568  0  0  -0.039908  -0.20105  0  4.00304  0
C  C70  1  0.01951145  0.38933195  0.13001334  1  0  -0.234727  0  3.76605  0  0  -0.207397  0  4.017927  0  0  -0.217124  0  4.039766  0  0  -0.039935  -0.201057  0  4.003262  0
C  C71  1  0.98047671  0.88933598  0.86998868  1  0  -0.234433  0  3.76602  0  0  -0.207197  0  4.017843  0  0  -0.216927  0  4.039678  0  0  -0.039821  -0.200854  0  4.003179  0
C  C72  1  0.51906114  0.92061649  0.27613295  1  0  -0.134372  0  3.791286  0  0  -0.17166  0  4.044894  0  0  -0.171174  0  4.066054  0  0  -0.104817  -0.171486  0  4.030282  0
C  C73  1  0.48092238  0.42060893  0.72386260  1  0  -0.134714  0  3.791564  0  0  -0.171926  0  4.045244  0  0  -0.171434  0  4.066403  0  0  -0.104929  -0.17173  0  4.030642  0
C  C74  1  0.01904919  0.42062281  0.22386553  1  0  -0.134378  0  3.791851  0  0  -0.171775  0  4.045322  0  0  -0.171313  0  4.066451  0  0  -0.10478  -0.171569  0  4.03073  0
C  C75  1  0.98092929  0.92062341  0.77613845  1  0  -0.134773  0  3.792524  0  0  -0.172109  0  4.046139  0  0  -0.171618  0  4.067289  0  0  -0.10501  -0.171923  0  4.03153  0
C  C76  1  0.60257159  0.86086363  0.20721367  1  0  0.121763  0  3.804249  0  0  0.147015  0  4.052107  0  0  0.145646  0  4.077525  0  0  -0.030869  0.14781  0  4.034597  0
C  C77  1  0.39743005  0.36085281  0.79278496  1  0  0.121891  0  3.803881  0  0  0.147174  0  4.051685  0  0  0.145805  0  4.077103  0  0  -0.030773  0.14797  0  4.034169  0
C  C78  1  0.10254564  0.36087514  0.29278477  1  0  0.121738  0  3.804369  0  0  0.147253  0  4.051851  0  0  0.145886  0  4.07727  0  0  -0.030782  0.148047  0  4.034334  0
C  C79  1  0.89744845  0.86087571  0.70722159  1  0  0.121878  0  3.804244  0  0  0.147399  0  4.051721  0  0  0.14603  0  4.077143  0  0  -0.030752  0.14819  0  4.034212  0
C  C80  1  0.69348532  0.77105019  0.23725313  1  0  -0.185065  0  3.72317  0  0  -0.216156  0  3.969345  0  0  -0.21633  0  3.988758  0  0  -0.104159  -0.215676  0  3.955981  0
C  C81  1  0.30651267  0.27103027  0.76273748  1  0  -0.184969  0  3.722758  0  0  -0.216186  0  3.968927  0  0  -0.21636  0  3.988327  0  0  -0.104125  -0.215701  0  3.955559  0
C  C82  1  0.19347438  0.27105468  0.26274180  1  0  -0.185106  0  3.722914  0  0  -0.216293  0  3.968987  0  0  -0.216459  0  3.988402  0  0  -0.104194  -0.215811  0  3.955625  0
C  C83  1  0.80653368  0.77104338  0.73726708  1  0  -0.18512  0  3.72235  0  0  -0.216461  0  3.968386  0  0  -0.21664  0  3.987799  0  0  -0.104141  -0.215972  0  3.955016  0
C  C84  1  0.69769570  0.73794132  0.33133742  1  0  0.034719  0  3.754574  0  0  0.064026  0  3.996003  0  0  0.06027  0  4.021034  0  0  -0.026737  0.066459  0  3.978947  0
C  C85  1  0.30230188  0.23791874  0.66864982  1  0  0.034865  0  3.754584  0  0  0.064483  0  3.995511  0  0  0.060727  0  4.020544  0  0  -0.026542  0.066916  0  3.978455  0
C  C86  1  0.19769093  0.23794078  0.16865830  1  0  0.034827  0  3.754664  0  0  0.064168  0  3.995983  0  0  0.060414  0  4.021012  0  0  -0.026742  0.0666  0  3.978926  0
C  C87  1  0.80231546  0.73791609  0.83135564  1  0  0.035009  0  3.75422  0  0  0.064711  0  3.995057  0  0  0.060956  0  4.020095  0  0  -0.026483  0.06714  0  3.978001  0
C  C88  1  0.60426275  0.79549898  0.39899211  1  0  0.238417  0  3.808492  0  0  0.216305  0  4.055982  0  0  0.225807  0  4.078046  0  0  0.084993  0.209852  0  4.040867  0
C  C89  1  0.39573430  0.29549650  0.60099909  1  0  0.238045  0  3.808501  0  0  0.216064  0  4.05576  0  0  0.225568  0  4.07783  0  0  0.08492  0.209611  0  4.040646  0
C  C90  1  0.10425053  0.29550044  0.10100942  1  0  0.238418  0  3.80838  0  0  0.216343  0  4.055783  0  0  0.225842  0  4.077846  0  0  0.085073  0.209891  0  4.04067  0
C  C91  1  0.89574526  0.79549825  0.89900216  1  0  0.238076  0  3.808647  0  0  0.216028  0  4.055886  0  0  0.225525  0  4.077962  0  0  0.084928  0.209578  0  4.040768  0
C  C92  1  0.58975276  0.89159245  0.10541843  1  0  -0.338839  0  3.716397  0  0  -0.415826  0  3.948415  0  0  -0.418566  0  3.95825  0  0  -0.252121  -0.413504  0  3.941584  0
C  C93  1  0.41022409  0.39158909  0.89458218  1  0  -0.33881  0  3.716742  0  0  -0.415697  0  3.948691  0  0  -0.418441  0  3.958516  0  0  -0.252049  -0.413378  0  3.941895  0
C  C94  1  0.08974553  0.39160015  0.39458074  1  0  -0.338926  0  3.716435  0  0  -0.416008  0  3.948349  0  0  -0.41876  0  3.958202  0  0  -0.252163  -0.41368  0  3.941525  0
C  C95  1  0.91023637  0.89160140  0.60542479  1  0  -0.338842  0  3.716674  0  0  -0.415835  0  3.948556  0  0  -0.418576  0  3.958384  0  0  -0.2521  -0.413529  0  3.941776  0
C  C96  1  0.79648300  0.64074448  0.35939655  1  0  -0.323869  0  3.729867  0  0  -0.405562  0  3.965027  0  0  -0.407531  0  3.975003  0  0  -0.2455  -0.403887  0  3.958161  0
C  C97  1  0.20351335  0.14071594  0.64060519  1  0  -0.324137  0  3.730233  0  0  -0.405999  0  3.965161  0  0  -0.407975  0  3.975139  0  0  -0.245811  -0.404317  0  3.958309  0
C  C98  1  0.29648561  0.14074570  0.14060333  1  0  -0.32389  0  3.730257  0  0  -0.405578  0  3.965345  0  0  -0.40755  0  3.975327  0  0  -0.245442  -0.403903  0  3.958483  0
C  C99  1  0.70352333  0.64071152  0.85939629  1  0  -0.324212  0  3.730598  0  0  -0.40607  0  3.96547  0  0  -0.408046  0  3.975452  0  0  -0.245806  -0.404394  0  3.958616  0
C  C100  1  0.33329737  0.59671018  0.28714562  1  0  0.030419  0  3.603772  0  0  -0.002075  0  3.843926  0  0  -0.000493  0  3.861911  0  0  0.062787  -0.003534  0  3.832545  0
C  C101  1  0.66670094  0.09671568  0.71285420  1  0  0.030526  0  3.603675  0  0  -0.001995  0  3.843787  0  0  -0.000412  0  3.86177  0  0  0.06282  -0.003454  0  3.832402  0
C  C102  1  0.83330170  0.09671922  0.21285330  1  0  0.030323  0  3.603939  0  0  -0.002065  0  3.844005  0  0  -0.000467  0  3.861989  0  0  0.062724  -0.003533  0  3.832629  0
C  C103  1  0.16671298  0.59672664  0.78714582  1  0  0.030468  0  3.604025  0  0  -0.002025  0  3.844385  0  0  -0.000428  0  3.862377  0  0  0.062729  -0.003497  0  3.833014  0
C  C104  1  0.17829228  0.75204509  0.29144284  1  0  0.065837  0  3.676613  0  0  0.032805  0  3.930265  0  0  0.034024  0  3.949796  0  0  0.050662  0.031617  0  3.917834  0
C  C105  1  0.82171680  0.25204263  0.70855417  1  0  0.065899  0  3.676225  0  0  0.032918  0  3.929894  0  0  0.034135  0  3.949421  0  0  0.050809  0.03173  0  3.917463  0
C  C106  1  0.67829552  0.25205496  0.20855798  1  0  0.065749  0  3.676582  0  0  0.032797  0  3.930217  0  0  0.034026  0  3.949751  0  0  0.050631  0.03161  0  3.917782  0
C  C107  1  0.32172741  0.75206397  0.79144466  1  0  0.065679  0  3.676157  0  0  0.032733  0  3.929849  0  0  0.033964  0  3.949381  0  0  0.050695  0.031545  0  3.917416  0
C  C108  1  0.17854842  0.75484798  0.19412206  1  0  0.090561  0  3.663623  0  0  0.061773  0  3.913024  0  0  0.064377  0  3.932165  0  0  0.056819  0.059411  0  3.901277  0
C  C109  1  0.82147077  0.25484494  0.80587775  1  0  0.090585  0  3.663328  0  0  0.061741  0  3.912707  0  0  0.064343  0  3.931846  0  0  0.056698  0.059376  0  3.900968  0
C  C110  1  0.67854914  0.25485807  0.30587945  1  0  0.090612  0  3.663624  0  0  0.061727  0  3.913005  0  0  0.064328  0  3.93214  0  0  0.056769  0.059369  0  3.901254  0
C  C111  1  0.32146879  0.75486046  0.69411966  1  0  0.090525  0  3.663359  0  0  0.061668  0  3.912782  0  0  0.064268  0  3.931919  0  0  0.056712  0.059301  0  3.901045  0
C  C112  1  0.33353716  0.59808137  0.18847652  1  0  0.283638  0  3.699296  0  0  0.291607  0  3.939909  0  0  0.296939  0  3.961109  0  0  0.139156  0.287642  0  3.925991  0
C  C113  1  0.66646620  0.09807426  0.81152751  1  0  0.283547  0  3.699299  0  0  0.29146  0  3.940007  0  0  0.29679  0  3.961211  0  0  0.139113  0.287497  0  3.926084  0
C  C114  1  0.83354018  0.09808741  0.31151958  1  0  0.283634  0  3.699422  0  0  0.291515  0  3.940119  0  0  0.296845  0  3.961319  0  0  0.139169  0.287548  0  3.926205  0
C  C115  1  0.16647199  0.59809703  0.68848446  1  0  0.283526  0  3.699294  0  0  0.291383  0  3.940172  0  0  0.296711  0  3.961373  0  0  0.139215  0.28742  0  3.926258  0
C  C116  1  0.42293977  0.51392059  0.13416170  1  0  -0.381119  0  3.695694  0  0  -0.462814  0  3.925357  0  0  -0.466372  0  3.934213  0  0  -0.239129  -0.459876  0  3.91949  0
C  C117  1  0.57706379  0.01391188  0.86584131  1  0  -0.380882  0  3.695861  0  0  -0.462565  0  3.925475  0  0  -0.466125  0  3.93433  0  0  -0.23902  -0.459632  0  3.919608  0
C  C118  1  0.92293817  0.01392471  0.36583088  1  0  -0.380952  0  3.69545  0  0  -0.462632  0  3.925162  0  0  -0.466206  0  3.934024  0  0  -0.23907  -0.459685  0  3.919271  0
C  C119  1  0.07706036  0.51394698  0.63416089  1  0  -0.380734  0  3.695261  0  0  -0.462319  0  3.9249  0  0  -0.465881  0  3.933782  0  0  -0.239021  -0.459385  0  3.919021  0
S  S120  1  0.39518761  0.96232329  0.45229589  1  0  1.295992  0  5.664948  0  0  1.202394  0  6.180327  0  0  1.250571  0  6.156141  0  0  0.494845  1.169134  0  6.195916  0
S  S121  1  0.60479643  0.46231744  0.54770018  1  0  1.295995  0  5.665231  0  0  1.20253  0  6.180579  0  0  1.250709  0  6.1564  0  0  0.494953  1.169269  0  6.196166  0
S  S122  1  0.89519708  0.46231972  0.04769852  1  0  1.295876  0  5.66462  0  0  1.202361  0  6.179938  0  0  1.250532  0  6.155758  0  0  0.494869  1.169102  0  6.195524  0
S  S123  1  0.10479954  0.96231621  0.95230598  1  0  1.295847  0  5.664684  0  0  1.202323  0  6.180079  0  0  1.250495  0  6.155902  0  0  0.494841  1.169064  0  6.195667  0
N  N124  1  0.58421811  0.75749551  0.49027307  1  0  -0.673473  0  3.215118  0  0  -0.622887  0  3.455846  0  0  -0.64348  0  3.454971  0  0  -0.612359  -0.608172  0  3.455881  0
N  N125  1  0.41578475  0.25748649  0.50972532  1  0  -0.673433  0  3.214951  0  0  -0.622967  0  3.45564  0  0  -0.64356  0  3.454751  0  0  -0.612284  -0.608249  0  3.455679  0
N  N126  1  0.08421446  0.25749112  0.00972887  1  0  -0.67341  0  3.215081  0  0  -0.622868  0  3.45575  0  0  -0.643458  0  3.454869  0  0  -0.612378  -0.608154  0  3.455786  0
N  N127  1  0.91579217  0.75748688  0.99027444  1  0  -0.673242  0  3.215331  0  0  -0.622931  0  3.455833  0  0  -0.643525  0  3.454953  0  0  -0.612295  -0.608223  0  3.455872  0
N  N128  1  0.25511739  0.67172054  0.33818169  1  0  -0.235591  0  3.32973  0  0  -0.1543  0  3.609278  0  0  -0.166858  0  3.625107  0  0  -0.324912  -0.146067  0  3.598958  0
N  N129  1  0.74488691  0.17172116  0.66181147  1  0  -0.235622  0  3.329764  0  0  -0.154331  0  3.609322  0  0  -0.166878  0  3.625134  0  0  -0.324975  -0.146098  0  3.599004  0
N  N130  1  0.75510985  0.17172829  0.16181644  1  0  -0.235636  0  3.329774  0  0  -0.154379  0  3.609256  0  0  -0.16696  0  3.625104  0  0  -0.324942  -0.146146  0  3.598939  0
N  N131  1  0.24489948  0.67173101  0.83818796  1  0  -0.235788  0  3.329577  0  0  -0.154442  0  3.609096  0  0  -0.167029  0  3.624946  0  0  -0.325041  -0.146208  0  3.598784  0
N  N132  1  0.25366128  0.67780009  0.14267266  1  0  -0.29069  0  3.251039  0  0  -0.213562  0  3.521491  0  0  -0.228308  0  3.536071  0  0  -0.321697  -0.203784  0  3.511944  0
N  N133  1  0.74634687  0.17779474  0.85733031  1  0  -0.290821  0  3.250983  0  0  -0.213675  0  3.521455  0  0  -0.22842  0  3.536035  0  0  -0.321757  -0.203895  0  3.511906  0
N  N134  1  0.75368014  0.17780906  0.35732687  1  0  -0.290612  0  3.250939  0  0  -0.213558  0  3.521529  0  0  -0.228301  0  3.536109  0  0  -0.32158  -0.203782  0  3.511984  0
N  N135  1  0.24634688  0.67781297  0.64267189  1  0  -0.290381  0  3.25102  0  0  -0.213319  0  3.521617  0  0  -0.228062  0  3.536204  0  0  -0.321567  -0.20354  0  3.512065  0
O  O136  1  0.34562816  0.06247635  0.40559282  1  0  -0.672411  0  1.953928  0  0  -0.620842  0  2.200104  0  0  -0.641436  0  2.186572  0  0  -0.345523  -0.606187  0  2.208833  0
O  O137  1  0.65435463  0.56247471  0.59439028  1  0  -0.672323  0  1.953984  0  0  -0.62087  0  2.200256  0  0  -0.64146  0  2.186707  0  0  -0.345578  -0.606217  0  2.208988  0
O  O138  1  0.84563834  0.56247992  0.09439415  1  0  -0.672282  0  1.953644  0  0  -0.620814  0  2.199873  0  0  -0.641404  0  2.186338  0  0  -0.34554  -0.606161  0  2.208605  0
O  O139  1  0.15436710  0.06247674  0.90561286  1  0  -0.672352  0  1.953748  0  0  -0.620844  0  2.199979  0  0  -0.641432  0  2.186436  0  0  -0.345552  -0.606191  0  2.208712  0
O  O140  1  0.25010579  0.89323342  0.47465245  1  0  -0.685557  0  1.981608  0  0  -0.627724  0  2.244335  0  0  -0.650483  0  2.229595  0  0  -0.350768  -0.611489  0  2.25377  0
O  O141  1  0.74987990  0.39323169  0.52534604  1  0  -0.685605  0  1.981691  0  0  -0.627716  0  2.24425  0  0  -0.650474  0  2.229508  0  0  -0.350783  -0.611485  0  2.253694  0
O  O142  1  0.75010858  0.39323159  0.02534264  1  0  -0.685543  0  1.981646  0  0  -0.627678  0  2.244284  0  0  -0.650438  0  2.229542  0  0  -0.350718  -0.611442  0  2.253721  0
O  O143  1  0.24988844  0.89322632  0.97465725  1  0  -0.685581  0  1.981642  0  0  -0.627677  0  2.244266  0  0  -0.650438  0  2.229523  0  0  -0.350717  -0.611444  0  2.253711  0
O  O144  1  0.50491148  0.97903808  0.53532433  1  0  -0.704298  0  1.949725  0  0  -0.652928  0  2.209131  0  0  -0.673831  0  2.192931  0  0  -0.357012  -0.63799  0  2.219783  0
O  O145  1  0.49507654  0.47902255  0.46466884  1  0  -0.704316  0  1.949755  0  0  -0.652958  0  2.209114  0  0  -0.673863  0  2.192919  0  0  -0.357043  -0.638024  0  2.219767  0
O  O146  1  0.00493551  0.47902215  0.96466750  1  0  -0.704361  0  1.949635  0  0  -0.652944  0  2.208933  0  0  -0.673848  0  2.192734  0  0  -0.357067  -0.638012  0  2.219587  0
O  O147  1  0.99506511  0.97902008  0.03533833  1  0  -0.704275  0  1.949636  0  0  -0.652923  0  2.209024  0  0  -0.67383  0  2.192829  0  0  -0.357051  -0.637992  0  2.219677  0
