# generated using pymatgen
data_ZnH11C20(NO2)2
_symmetry_space_group_name_H-M   'P 1'
_cell_length_a   15.26125781
_cell_length_b   14.83392147
_cell_length_c   16.21917860
_cell_angle_alpha   89.99203395
_cell_angle_beta   89.58444105
_cell_angle_gamma   90.12403927
_symmetry_Int_Tables_number   1
_chemical_formula_structural   ZnH11C20(NO2)2
_chemical_formula_sum   'Zn2 H22 C40 N4 O8'
_cell_volume   3671.66216976
_cell_formula_units_Z   2
loop_
 _symmetry_equiv_pos_site_id
 _symmetry_equiv_pos_as_xyz
  1  'x, y, z'
loop_
 _atom_site_type_symbol
 _atom_site_label
 _atom_site_symmetry_multiplicity
 _atom_site_fract_x
 _atom_site_fract_y
 _atom_site_fract_z
 _atom_site_occupancy
 _atom_site_pbe_bader_charge
 _atom_site_pbe_bader_spin_density
 _atom_site_pbe_cm5_charge
 _atom_site_pbe_ddec_charge
 _atom_site_pbe_ddec_spin_density
 _atom_site_pbe_ddec_sum_bond_order
 _atom_site_pbe_magmom
Zn  Zn0  1  0.50046799  0.40654106  0.49926281  1  1.316734  0  0.676875  0.882799  0  2.430031  0
Zn  Zn1  1  0.49953572  0.59345524  0.50073461  1  1.30425  0  0.676859  0.882814  0  2.43009  0
H  H2  1  0.77636215  0.36139350  0.47077979  1  0.084423  0  0.099273  0.107818  0  1.010289  0
H  H3  1  0.22364086  0.63860146  0.52923182  1  0.084843  0  0.099216  0.107802  0  1.010438  0
H  H4  1  0.77865750  0.64490808  0.52059191  1  0.13209  0  0.102875  0.110441  0  1.028493  0
H  H5  1  0.22134486  0.35508822  0.47941662  1  0.131984  0  0.102822  0.110418  0  1.028411  0
H  H6  1  0.08471283  0.72448854  0.53423838  1  0.045798  0  0.094702  0.101372  0  1.016207  0
H  H7  1  0.91529007  0.27550170  0.46579789  1  0.045171  0  0.09473  0.101426  0  1.016131  0
H  H8  1  0.51543653  0.35618395  0.07769730  1  0.086985  0  0.10961  0.113084  0  0.983729  0
H  H9  1  0.48456981  0.64381708  0.92230197  1  0.086948  0  0.109608  0.113088  0  0.983723  0
H  H10  1  0.51520640  0.35501816  0.92394693  1  0.087348  0  0.109185  0.112479  0  0.984389  0
H  H11  1  0.48479535  0.64498353  0.07605173  1  0.087394  0  0.109187  0.112488  0  0.984383  0
H  H12  1  0.35789228  0.91666004  0.50737810  1  0.102574  0  0.130694  0.134812  0  0.958709  0
H  H13  1  0.64211274  0.08333492  0.49261932  1  0.102504  0  0.130702  0.13478  0  0.958692  0
H  H14  1  0.64074292  0.91467305  0.49291028  1  0.145672  0  0.129645  0.1336  0  0.964817  0
H  H15  1  0.35926144  0.08532124  0.50708776  1  0.145208  0  0.129657  0.1336  0  0.964833  0
H  H16  1  0.95367321  0.79711311  0.55105156  1  0.391039  0  0.295478  0.235271  0  0.951779  0
H  H17  1  0.92128790  0.80183548  0.40304090  1  -0.00145  0  0.084443  0.079847  0  1.000052  0
H  H18  1  0.83466480  0.84581462  0.46629538  1  0.029404  0  0.090402  0.090976  0  0.999226  0
H  H19  1  0.82745261  0.73475283  0.42570859  1  0.074792  0  0.105031  0.11779  0  1.00035  0
H  H20  1  0.04632698  0.20287173  0.44900877  1  0.391043  0  0.295509  0.235187  0  0.951656  0
H  H21  1  0.07873527  0.19817973  0.59701380  1  -0.001951  0  0.084375  0.079745  0  0.999911  0
H  H22  1  0.17256343  0.26525833  0.57432394  1  0.074759  0  0.104921  0.117777  0  1.000421  0
H  H23  1  0.16534920  0.15419114  0.53375627  1  0.029225  0  0.090491  0.090989  0  0.999151  0
C  C24  1  0.49995049  0.50036767  0.33860862  1  1.650419  0  0.21549  0.66771  0  4.242032  0
C  C25  1  0.50005190  0.49962527  0.66139128  1  1.650525  0  0.21557  0.667807  0  4.24188  0
C  C26  1  0.04696951  0.66247806  0.52563677  1  -0.066448  0  -0.111709  -0.266042  0  4.013917  0
C  C27  1  0.95303211  0.33751622  0.47439519  1  -0.065916  0  -0.111725  -0.266159  0  4.014112  0
C  C28  1  0.50857637  0.41819977  0.95770209  1  -0.113317  0  -0.078057  -0.118668  0  3.960313  0
C  C29  1  0.49142539  0.58180193  0.04229596  1  -0.113214  0  -0.078035  -0.118663  0  3.960267  0
C  C30  1  0.50871847  0.41883738  0.04320476  1  0.030879  0  -0.079048  -0.120168  0  3.961034  0
C  C31  1  0.49128525  0.58116432  0.95679328  1  0.030809  0  -0.0791  -0.120202  0  3.961008  0
C  C32  1  0.49986769  0.49934482  0.91296488  1  0.066058  0  0.003065  0.134387  0  4.109068  0
C  C33  1  0.50013210  0.50065553  0.08703194  1  0.065838  0  0.002936  0.134248  0  4.109121  0
C  C34  1  0.49980151  0.49883961  0.82569260  1  -0.384651  0  -0.037138  -0.063792  0  4.112929  0
C  C35  1  0.50019697  0.50116073  0.17430422  1  -0.384665  0  -0.037177  -0.063738  0  4.112761  0
C  C36  1  0.50017030  0.50114514  0.24945843  1  0.143055  0  -0.046662  -0.176006  0  3.965994  0
C  C37  1  0.49982817  0.49885318  0.75054087  1  0.142993  0  -0.046736  -0.175994  0  3.966101  0
C  C38  1  0.42020010  0.04734665  0.50404692  1  0.068695  0  -0.050846  -0.086845  0  3.918958  0
C  C39  1  0.57980558  0.95264899  0.49595111  1  0.068136  0  -0.050779  -0.086867  0  3.919034  0
C  C40  1  0.58055958  0.04619630  0.49580905  1  -0.036954  0  -0.051713  -0.088746  0  3.921932  0
C  C41  1  0.41944479  0.95379933  0.50418837  1  -0.03725  0  -0.051677  -0.08884  0  3.921724  0
C  C42  1  0.50078851  0.09339967  0.49987295  1  0.068643  0  0.02732  0.064952  0  4.079613  0
C  C43  1  0.49921587  0.90659597  0.50012448  1  0.06896  0  0.027376  0.065123  0  4.079377  0
C  C44  1  0.50169224  0.18923068  0.49977834  1  0.85047  0  0.244864  0.284557  0  3.909192  0
C  C45  1  0.49831344  0.81076091  0.50021908  1  0.85066  0  0.244833  0.284578  0  3.909367  0
C  C46  1  0.32910889  0.49660917  0.50244299  1  1.491033  0  0.215705  0.601202  0  4.152056  0
C  C47  1  0.67089351  0.50338646  0.49755629  1  1.491517  0  0.215782  0.601307  0  4.152362  0
C  C48  1  0.81404468  0.42282542  0.48111235  1  -1.9e-05  0  -0.087197  -0.148043  0  3.938622  0
C  C49  1  0.18596028  0.57716954  0.51890233  1  -0.000595  0  -0.08727  -0.148189  0  3.938817  0
C  C50  1  0.76911926  0.50337438  0.49520996  1  -0.058094  0  -0.021435  -0.026221  0  4.004637  0
C  C51  1  0.23088441  0.49662327  0.50479918  1  -0.058104  0  -0.021389  -0.02614  0  4.004377  0
C  C52  1  0.81541322  0.58362075  0.50802173  1  -0.023217  0  -0.087464  -0.143547  0  3.949397  0
C  C53  1  0.18458978  0.41637488  0.49199172  1  -0.023223  0  -0.087399  -0.14347  0  3.949212  0
C  C54  1  0.90729706  0.58479003  0.50752699  1  -0.039109  0  -0.009241  0.003653  0  3.986991  0
C  C55  1  0.09270787  0.41520426  0.49249509  1  -0.039325  0  -0.009286  0.003449  0  3.987198  0
C  C56  1  0.95357881  0.50171353  0.49722175  1  -0.011831  0  -0.000576  0.000518  0  3.934222  0
C  C57  1  0.04642547  0.49828075  0.50279849  1  0.061464  0  -0.000668  0.000531  0  3.934311  0
C  C58  1  0.90586958  0.42023964  0.48243888  1  -0.004485  0  -0.011759  0.092475  0  4.073205  0
C  C59  1  0.09413406  0.57975667  0.51757889  1  -0.004582  0  -0.011548  0.092591  0  4.073137  0
C  C60  1  0.95736826  0.66687682  0.51958761  1  0.384802  0  0.085214  0.180016  0  4.061687  0
C  C61  1  0.04263337  0.33311746  0.48044066  1  0.384979  0  0.085285  0.180142  0  4.06161  0
C  C62  1  0.87245650  0.78488412  0.45139719  1  0.256179  0  -0.144524  -0.214405  0  3.997517  0
C  C63  1  0.12755688  0.21512433  0.54864767  1  0.256316  0  -0.144448  -0.214342  0  3.997541  0
N  N64  1  0.49748140  0.73256189  0.50027285  1  -1.108176  0  -0.252628  -0.251533  0  3.080525  0
N  N65  1  0.50252429  0.26743778  0.49972396  1  -1.107838  0  -0.252602  -0.251472  0  3.080343  0
N  N66  1  0.91260111  0.74988683  0.52689550  1  -1.093538  0  -0.467902  -0.335869  0  3.474093  0
N  N67  1  0.08740112  0.25010610  0.47314755  1  -1.092937  0  -0.467971  -0.335772  0  3.473952  0
O  O68  1  0.50005374  0.42302287  0.37278435  1  -1.136132  0  -0.319209  -0.54933  0  2.248239  0
O  O69  1  0.49995391  0.57697547  0.62721306  1  -1.136151  0  -0.319275  -0.549433  0  2.248061  0
O  O70  1  0.50029930  0.42301466  0.62580043  1  -1.143788  0  -0.320141  -0.552518  0  2.248523  0
O  O71  1  0.49970244  0.57698300  0.37419885  1  -1.143672  0  -0.320142  -0.552515  0  2.24845  0
O  O72  1  0.36722617  0.42023704  0.50010143  1  -1.158293  0  -0.320928  -0.551563  0  2.311566  0
O  O73  1  0.63277887  0.57976196  0.49989353  1  -1.158702  0  -0.321043  -0.551754  0  2.311705  0
O  O74  1  0.63289510  0.42672443  0.49707707  1  -1.157491  0  -0.321618  -0.556362  0  2.321205  0
O  O75  1  0.36710729  0.57327794  0.50292529  1  -1.157505  0  -0.321668  -0.556442  0  2.320971  0
