# generated using pymatgen
data_SnH14C7O2
_symmetry_space_group_name_H-M   'P 1'
_cell_length_a   9.25922724
_cell_length_b   10.00239668
_cell_length_c   12.02528220
_cell_angle_alpha   67.46965525
_cell_angle_beta   77.65072569
_cell_angle_gamma   65.29149123
_symmetry_Int_Tables_number   1
_chemical_formula_structural   SnH14C7O2
_chemical_formula_sum   'Sn4 H56 C28 O8'
_cell_volume   932.61411775
_cell_formula_units_Z   4
loop_
 _symmetry_equiv_pos_site_id
 _symmetry_equiv_pos_as_xyz
  1  'x, y, z'
loop_
 _atom_site_type_symbol
 _atom_site_label
 _atom_site_symmetry_multiplicity
 _atom_site_fract_x
 _atom_site_fract_y
 _atom_site_fract_z
 _atom_site_occupancy
 _atom_site_pbe_bader_spin_density
 _atom_site_pbe_cm5_charge
 _atom_site_pbe_ddec_charge
 _atom_site_pbe_ddec_spin_density
 _atom_site_pbe_ddec_sum_bond_order
 _atom_site_pbe_magmom
Sn  Sn0  1  0.59394148  0.97265738  0.27290167  1  0  0.514439  1.201172  0  3.389736  0
Sn  Sn1  1  0.40605518  0.02734428  0.72709240  1  0  0.514429  1.201111  0  3.389845  0
Sn  Sn2  1  0.77318551  0.42753609  0.21616094  1  0  0.518332  1.201235  0  3.398956  0
Sn  Sn3  1  0.22683271  0.57246947  0.78385013  1  0  0.518347  1.201251  0  3.39861  0
H  H4  1  0.41858895  0.54618056  0.24814044  1  0  0.098618  0.071431  0  1.005565  0
H  H5  1  0.58141306  0.45381228  0.75187706  1  0  0.098591  0.071396  0  1.005693  0
H  H6  1  0.33523331  0.59254458  0.05055641  1  0  0.090083  0.087429  0  1.009762  0
H  H7  1  0.66478260  0.40743792  0.94945533  1  0  0.090075  0.087433  0  1.009752  0
H  H8  1  0.19662155  0.50078761  0.12317795  1  0  0.093973  0.097961  0  1.015803  0
H  H9  1  0.80338547  0.49920118  0.87681918  1  0  0.093986  0.097963  0  1.015828  0
H  H10  1  0.05917901  0.78826810  0.05902136  1  0  0.090241  0.082836  0  1.009059  0
H  H11  1  0.94083776  0.21171819  0.94097913  1  0  0.090247  0.082811  0  1.008999  0
H  H12  1  0.19069549  0.80340904  0.13578250  1  0  0.091285  0.089172  0  0.990803  0
H  H13  1  0.80931710  0.19658539  0.86421703  1  0  0.091284  0.089159  0  0.990845  0
H  H14  1  0.95190467  0.83326350  0.25870261  1  0  0.09844  0.06814  0  1.02381  0
H  H15  1  0.04810324  0.16672885  0.74129080  1  0  0.098467  0.068127  0  1.023843  0
H  H16  1  0.04075041  0.60466743  0.44902038  1  0  0.092234  0.090442  0  0.993974  0
H  H17  1  0.95923250  0.39532958  0.55097896  1  0  0.092181  0.090424  0  0.994025  0
H  H18  1  0.18363991  0.68757564  0.37052380  1  0  0.09149  0.088278  0  1.001393  0
H  H19  1  0.81635273  0.31240709  0.62948744  1  0  0.091466  0.08822  0  1.001396  0
H  H20  1  0.30845088  0.39833934  0.44082183  1  0  0.089973  0.086276  0  1.004938  0
H  H21  1  0.69153202  0.60165176  0.55918263  1  0  0.089993  0.086305  0  1.004936  0
H  H22  1  0.17752972  0.38727281  0.36026927  1  0  0.094458  0.097074  0  1.007838  0
H  H23  1  0.82246052  0.61272513  0.63973527  1  0  0.094448  0.097109  0  1.007804  0
H  H24  1  0.65002689  0.89554413  0.50789720  1  0  0.086739  0.172633  0  1.068302  0
H  H25  1  0.34998861  0.10445122  0.49210908  1  0  0.086725  0.172621  0  1.068346  0
H  H26  1  0.68021874  0.07345682  0.41874596  1  0  0.085506  0.168707  0  1.062569  0
H  H27  1  0.31979923  0.92655262  0.58125152  1  0  0.085477  0.168683  0  1.062531  0
H  H28  1  0.82986246  0.88964214  0.41699495  1  0  0.084445  0.170166  0  1.051817  0
H  H29  1  0.17016230  0.11034642  0.58300441  1  0  0.08444  0.170184  0  1.051889  0
H  H30  1  0.79914851  0.05912919  0.08763706  1  0  0.085434  0.16653  0  1.064338  0
H  H31  1  0.20083575  0.94088199  0.91235113  1  0  0.085392  0.16644  0  1.064374  0
H  H32  1  0.60586056  0.13387721  0.03475196  1  0  0.084941  0.173858  0  1.063471  0
H  H33  1  0.39412462  0.86611931  0.96526297  1  0  0.084941  0.173882  0  1.063274  0
H  H34  1  0.73078640  0.93340499  0.05773681  1  0  0.083054  0.167932  0  1.045988  0
H  H35  1  0.26919282  0.06661054  0.94226170  1  0  0.083077  0.167942  0  1.045945  0
H  H36  1  0.33295817  0.90469137  0.38800766  1  0  0.081367  0.164926  0  1.066989  0
H  H37  1  0.66704318  0.09531232  0.61199420  1  0  0.081346  0.16491  0  1.066997  0
H  H38  1  0.43628153  0.78748075  0.29343649  1  0  0.084133  0.168941  0  1.052685  0
H  H39  1  0.56372665  0.21251358  0.70656793  1  0  0.084131  0.168935  0  1.052739  0
H  H40  1  0.31123456  0.98882936  0.22926243  1  0  0.084252  0.169015  0  1.049053  0
H  H41  1  0.68877472  0.01117098  0.77073335  1  0  0.084248  0.169056  0  1.049065  0
H  H42  1  0.00797360  0.28597045  0.07232434  1  0  0.084492  0.166189  0  1.058564  0
H  H43  1  0.99203590  0.71402640  0.92767246  1  0  0.08446  0.166184  0  1.058577  0
H  H44  1  0.94843133  0.14186760  0.19307051  1  0  0.08367  0.170561  0  1.04505  0
H  H45  1  0.05156007  0.85814185  0.80693453  1  0  0.083627  0.170529  0  1.045068  0
H  H46  1  0.07611613  0.22023396  0.21928321  1  0  0.089624  0.179191  0  1.037411  0
H  H47  1  0.92387790  0.77977460  0.78071253  1  0  0.089674  0.179277  0  1.037288  0
H  H48  1  0.74291343  0.66147918  0.00109445  1  0  0.088655  0.174249  0  1.046405  0
H  H49  1  0.25703507  0.33855628  0.99890296  1  0  0.088674  0.174279  0  1.04624  0
H  H50  1  0.60225798  0.73515575  0.11101792  1  0  0.085948  0.168011  0  1.060904  0
H  H51  1  0.39773178  0.26484981  0.88896360  1  0  0.086019  0.168041  0  1.060818  0
H  H52  1  0.56320860  0.62426102  0.04199910  1  0  0.085106  0.166219  0  1.070067  0
H  H53  1  0.43679419  0.37576802  0.95800321  1  0  0.08517  0.166439  0  1.069821  0
H  H54  1  0.78160106  0.27260290  0.45645500  1  0  0.085935  0.166566  0  1.046173  0
H  H55  1  0.21839954  0.72739429  0.54353313  1  0  0.085983  0.16665  0  1.046147  0
H  H56  1  0.57791788  0.37033063  0.42071970  1  0  0.085224  0.169816  0  1.05695  0
H  H57  1  0.42207435  0.62968297  0.57926234  1  0  0.085215  0.169798  0  1.057014  0
H  H58  1  0.68518965  0.47795244  0.43044294  1  0  0.086099  0.176559  0  1.062552  0
H  H59  1  0.31482077  0.52205364  0.56955342  1  0  0.086044  0.176476  0  1.062548  0
C  C60  1  0.35076570  0.47962741  0.24532812  1  0  -0.088887  -0.119451  0  3.886735  0
C  C61  1  0.64923716  0.52036939  0.75467226  1  0  -0.088838  -0.11939  0  3.886877  0
C  C62  1  0.25490321  0.57169503  0.13159290  1  0  -0.164224  -0.164739  0  3.888182  0
C  C63  1  0.74510185  0.42829586  0.86841139  1  0  -0.164242  -0.164791  0  3.888068  0
C  C64  1  0.13002758  0.72780338  0.13877371  1  0  -0.161557  -0.14814  0  3.909958  0
C  C65  1  0.86998213  0.27218990  0.86122663  1  0  -0.16153  -0.148039  0  3.909842  0
C  C66  1  0.01943688  0.71513291  0.25428584  1  0  -0.08903  -0.129158  0  3.890896  0
C  C67  1  0.98056704  0.28485826  0.74570940  1  0  -0.089055  -0.129137  0  3.890766  0
C  C68  1  0.11923531  0.61894553  0.36603792  1  0  -0.159118  -0.152383  0  3.901004  0
C  C69  1  0.88076505  0.38103739  0.63396454  1  0  -0.159136  -0.152416  0  3.901209  0
C  C70  1  0.23914519  0.46036563  0.36002828  1  0  -0.168397  -0.173888  0  3.923256  0
C  C71  1  0.76085011  0.53962189  0.63997610  1  0  -0.168325  -0.17387  0  3.923331  0
C  C72  1  0.47001995  0.32385418  0.23518860  1  0  0.233143  0.592783  0  4.110962  0
C  C73  1  0.52996536  0.67613354  0.76481232  1  0  0.232947  0.59245  0  4.111225  0
C  C74  1  0.89695744  0.64839218  0.25869430  1  0  0.236173  0.605783  0  4.081104  0
C  C75  1  0.10305779  0.35160717  0.74129417  1  0  0.236122  0.605685  0  4.081309  0
C  C76  1  0.70134383  0.95569491  0.42249674  1  0  -0.334192  -0.748225  0  3.732756  0
C  C77  1  0.29867589  0.04430397  0.57750613  1  0  -0.334061  -0.748081  0  3.733019  0
C  C78  1  0.69561434  0.03125223  0.09099794  1  0  -0.338346  -0.750556  0  3.753088  0
C  C79  1  0.30437284  0.96875375  0.90900882  1  0  -0.338335  -0.750504  0  3.752742  0
C  C80  1  0.39417906  0.90459867  0.29939585  1  0  -0.338443  -0.738175  0  3.733058  0
C  C81  1  0.60582071  0.09540040  0.70060683  1  0  -0.33844  -0.738202  0  3.733132  0
C  C82  1  0.97611441  0.24621655  0.16936835  1  0  -0.334621  -0.740126  0  3.728147  0
C  C83  1  0.02387521  0.75379785  0.83062634  1  0  -0.33464  -0.740234  0  3.727996  0
C  C84  1  0.65532603  0.63795575  0.07549753  1  0  -0.333997  -0.753235  0  3.755125  0
C  C85  1  0.34468658  0.36202653  0.92452229  1  0  -0.334034  -0.753415  0  3.754624  0
C  C86  1  0.69383013  0.38174403  0.40383070  1  0  -0.337438  -0.750321  0  3.741477  0
C  C87  1  0.30616790  0.61826563  0.59616574  1  0  -0.337487  -0.750376  0  3.741416  0
O  O88  1  0.41656594  0.21569895  0.25984166  1  0  -0.276523  -0.513766  0  2.244079  0
O  O89  1  0.58344088  0.78428731  0.74016292  1  0  -0.276441  -0.513625  0  2.243696  0
O  O90  1  0.61562899  0.30351836  0.20141506  1  0  -0.283235  -0.560811  0  2.293022  0
O  O91  1  0.38436681  0.69649143  0.79857753  1  0  -0.283114  -0.560532  0  2.293488  0
O  O92  1  0.75297545  0.71032656  0.29495529  1  0  -0.285467  -0.56782  0  2.29902  0
O  O93  1  0.24702430  0.28967271  0.70504068  1  0  -0.285441  -0.567768  0  2.29951  0
O  O94  1  0.94580821  0.52620665  0.22809164  1  0  -0.27405  -0.509315  0  2.253443  0
O  O95  1  0.05419511  0.47380680  0.77189199  1  0  -0.274083  -0.509366  0  2.253231  0
