# generated using pymatgen
data_TbH19C24S(NO2)4
_symmetry_space_group_name_H-M   'P 1'
_cell_length_a   8.82461748
_cell_length_b   8.97051692
_cell_length_c   14.55188497
_cell_angle_alpha   95.68957076
_cell_angle_beta   90.81629074
_cell_angle_gamma   98.86045440
_symmetry_Int_Tables_number   1
_chemical_formula_structural   TbH19C24S(NO2)4
_chemical_formula_sum   'Tb2 H38 C48 S2 N8 O16'
_cell_volume   1132.08274631
_cell_formula_units_Z   2
loop_
 _symmetry_equiv_pos_site_id
 _symmetry_equiv_pos_as_xyz
  1  'x, y, z'
loop_
 _atom_site_type_symbol
 _atom_site_label
 _atom_site_symmetry_multiplicity
 _atom_site_fract_x
 _atom_site_fract_y
 _atom_site_fract_z
 _atom_site_occupancy
 _atom_site_pbe_bader_spin_density
 _atom_site_pbe_cm5_charge
 _atom_site_pbe_ddec_charge
 _atom_site_pbe_ddec_spin_density
 _atom_site_pbe_ddec_sum_bond_order
 _atom_site_pbe_magmom
Tb  Tb0  1  0.55243256  0.06090900  0.15542541  1  0  1.52474  1.978982  0  2.220577  0
Tb  Tb1  1  0.44756686  0.93909112  0.84457424  1  0  1.524759  1.979097  0  2.22041  0
H  H2  1  0.10546322  0.94627437  0.60310092  1  0  0.30983  0.288793  0  1.002275  0
H  H3  1  0.89453698  0.05372348  0.39689861  1  0  0.309842  0.288798  0  1.002246  0
H  H4  1  0.40839549  0.33700364  0.28303521  1  0  0.124457  0.091051  0  1.008214  0
H  H5  1  0.59160087  0.66299876  0.71696591  1  0  0.124486  0.091053  0  1.008229  0
H  H6  1  0.25488298  0.39167208  0.42311912  1  0  0.106912  0.11196  0  1.031753  0
H  H7  1  0.74511548  0.60832919  0.57688195  1  0  0.106919  0.111999  0  1.031709  0
H  H8  1  0.18075779  0.18579662  0.52525991  1  0  0.112277  0.115537  0  0.974423  0
H  H9  1  0.81924407  0.81420468  0.47474258  1  0  0.112298  0.115566  0  0.974435  0
H  H10  1  0.49614309  0.53307936  0.42778127  1  0  0.107051  0.104829  0  1.032396  0
H  H11  1  0.50385555  0.46692300  0.57221713  1  0  0.107025  0.104816  0  1.032395  0
H  H12  1  0.66175181  0.52360306  0.28955282  1  0  0.109423  0.129839  0  1.038825  0
H  H13  1  0.33824665  0.47639818  0.71044620  1  0  0.109418  0.129837  0  1.038885  0
H  H14  1  0.68876193  0.74128225  0.19284367  1  0  0.120036  0.078538  0  1.039606  0
H  H15  1  0.31123444  0.25872012  0.80715607  1  0  0.120044  0.078555  0  1.039613  0
H  H16  1  0.10144968  0.43998421  0.58099421  1  0  0.10379  0.103976  0  1.02328  0
H  H17  1  0.89855261  0.56001254  0.41900666  1  0  0.103807  0.104  0  1.023281  0
H  H18  1  0.92294018  0.28123068  0.67694320  1  0  0.102299  0.110529  0  1.008646  0
H  H19  1  0.07706263  0.71876949  0.32305923  1  0  0.102261  0.110523  0  1.008592  0
H  H20  1  0.77918030  0.40760184  0.80049494  1  0  0.105125  0.108594  0  0.995518  0
H  H21  1  0.22082120  0.59239717  0.19950604  1  0  0.105117  0.10858  0  0.995527  0
H  H22  1  0.82749629  0.69030753  0.83140088  1  0  0.106754  0.111281  0  1.071228  0
H  H23  1  0.17250409  0.30969146  0.16859871  1  0  0.106744  0.111231  0  1.07125  0
H  H24  1  0.91461194  0.45098856  0.04286563  1  0  0.098331  0.113215  0  0.995989  0
H  H25  1  0.08539183  0.54901046  0.95713537  1  0  0.098326  0.113169  0  0.995964  0
H  H26  1  0.86373265  0.54403374  0.14907701  1  0  0.097625  0.11395  0  1.002107  0
H  H27  1  0.13626772  0.45596526  0.85092327  1  0  0.097652  0.113943  0  1.002092  0
H  H28  1  0.60561330  0.56246821  0.07288998  1  0  0.094328  0.081433  0  0.999032  0
H  H29  1  0.39438935  0.43753075  0.92710757  1  0  0.094345  0.081444  0  0.999054  0
H  H30  1  0.67408981  0.49367083  0.96627075  1  0  0.095995  0.09108  0  0.977488  0
H  H31  1  0.32591301  0.50632929  0.03372824  1  0  0.09601  0.091085  0  0.977486  0
H  H32  1  0.83569518  0.78092713  0.08364037  1  0  0.102468  0.119389  0  0.996615  0
H  H33  1  0.16430877  0.21907300  0.91635864  1  0  0.102455  0.119388  0  0.996581  0
H  H34  1  0.87694639  0.71907043  0.96893207  1  0  0.102618  0.125297  0  0.996693  0
H  H35  1  0.12305513  0.28092854  0.03106616  1  0  0.102602  0.125299  0  0.996752  0
H  H36  1  0.29096846  0.84871394  0.06435186  1  0  0.301038  0.410842  0  0.915015  0
H  H37  1  0.70903305  0.15128504  0.93564706  1  0  0.301053  0.41086  0  0.91499  0
H  H38  1  0.21446276  0.94976862  0.14045552  1  0  0.30123  0.408305  0  0.915195  0
H  H39  1  0.78553744  0.05022922  0.85954264  1  0  0.301251  0.408317  0  0.915173  0
C  C40  1  0.37711189  0.25120891  0.33031707  1  0  0.062926  0.123803  0  3.941222  0
C  C41  1  0.62288543  0.74879237  0.66968468  1  0  0.062862  0.123763  0  3.941192  0
C  C42  1  0.29022551  0.28081742  0.40834508  1  0  -0.082587  -0.128977  0  3.978892  0
C  C43  1  0.70977425  0.71918499  0.59165607  1  0  -0.082549  -0.12897  0  3.97884  0
C  C44  1  0.24981431  0.16714752  0.46484055  1  0  -0.06478  -0.057495  0  3.929598  0
C  C45  1  0.75018302  0.83285376  0.53516121  1  0  -0.064844  -0.05755  0  3.929768  0
C  C46  1  0.30032740  0.02641946  0.44435092  1  0  0.00219  -0.011224  0  4.017848  0
C  C47  1  0.69967315  0.97358069  0.55565080  1  0  0.002171  -0.011304  0  4.017821  0
C  C48  1  0.26721122  0.89908467  0.49595380  1  0  0.094192  0.090886  0  4.031326  0
C  C49  1  0.73279039  0.10092226  0.50404625  1  0  0.094209  0.090814  0  4.031352  0
C  C50  1  0.32871385  0.76436249  0.47694236  1  0  0.086597  0.086691  0  4.106673  0
C  C51  1  0.67128086  0.23563649  0.52305787  1  0  0.08658  0.086768  0  4.106734  0
C  C52  1  0.43106869  0.74879989  0.40250665  1  0  0.001404  -0.013483  0  4.010467  0
C  C53  1  0.56892863  0.25120137  0.59749372  1  0  0.001405  -0.013557  0  4.010404  0
C  C54  1  0.50841097  0.62402071  0.38295906  1  0  -0.064727  -0.066621  0  3.943287  0
C  C55  1  0.49158295  0.37598051  0.61703922  1  0  -0.064689  -0.06657  0  3.943287  0
C  C56  1  0.60184831  0.61938531  0.30765116  1  0  -0.083404  -0.13077  0  3.953501  0
C  C57  1  0.39814788  0.38061589  0.69234577  1  0  -0.083416  -0.130794  0  3.953746  0
C  C58  1  0.61580569  0.74008929  0.25246975  1  0  0.056252  0.118179  0  3.950317  0
C  C59  1  0.38419068  0.25991307  0.74752862  1  0  0.056224  0.118137  0  3.950425  0
C  C60  1  0.45603314  0.86856176  0.34453138  1  0  0.120645  0.127723  0  3.986596  0
C  C61  1  0.54396418  0.13143949  0.65546899  1  0  0.120669  0.127756  0  3.986553  0
C  C62  1  0.39185081  0.00728413  0.36549963  1  0  0.124009  0.142256  0  3.972298  0
C  C63  1  0.60814991  0.99271714  0.63450078  1  0  0.124038  0.142385  0  3.972201  0
C  C64  1  0.17555883  0.72875986  0.58961167  1  0  0.222948  0.297365  0  3.990276  0
C  C65  1  0.82444119  0.27123685  0.41038711  1  0  0.222899  0.297323  0  3.990196  0
C  C66  1  0.07267614  0.65186193  0.65427275  1  0  0.004516  0.012899  0  3.971853  0
C  C67  1  0.92732406  0.34813592  0.34572609  1  0  0.004541  0.012924  0  3.971816  0
C  C68  1  0.04260810  0.49243575  0.63784525  1  0  -0.080991  -0.104063  0  3.946844  0
C  C69  1  0.95739323  0.50756212  0.36215566  1  0  -0.081008  -0.10411  0  3.946817  0
C  C70  1  0.94085386  0.40454691  0.69047542  1  0  -0.085105  -0.072364  0  3.990057  0
C  C71  1  0.05914782  0.59545325  0.30952631  1  0  -0.085066  -0.07233  0  3.989833  0
C  C72  1  0.86154696  0.47538750  0.76008704  1  0  -0.085065  -0.069474  0  3.970427  0
C  C73  1  0.13845228  0.52461150  0.23991323  1  0  -0.085051  -0.069483  0  3.970299  0
C  C74  1  0.88996012  0.63305818  0.77833605  1  0  -0.086732  -0.105172  0  4.003381  0
C  C75  1  0.11003912  0.36694081  0.22166354  1  0  -0.08668  -0.105024  0  4.003374  0
C  C76  1  0.99619617  0.72158662  0.72788140  1  0  -0.013607  -0.127343  0  3.896946  0
C  C77  1  0.00380421  0.27841235  0.27211682  1  0  -0.013655  -0.127438  0  3.897132  0
C  C78  1  0.73117562  0.32637301  0.11125022  1  0  0.197324  0.641496  0  4.137202  0
C  C79  1  0.26882476  0.67362596  0.88874800  1  0  0.197336  0.641484  0  4.137234  0
C  C80  1  0.81779853  0.47412825  0.08569749  1  0  -0.164082  -0.291407  0  3.906148  0
C  C81  1  0.18220428  0.52587188  0.91430219  1  0  -0.164128  -0.291336  0  3.906004  0
C  C82  1  0.71052230  0.55776924  0.03334349  1  0  -0.154378  -0.096145  0  3.915551  0
C  C83  1  0.28948165  0.44223088  0.96665552  1  0  -0.154422  -0.096193  0  3.915525  0
C  C84  1  0.78473931  0.71975038  0.01865488  1  0  -0.161259  -0.308068  0  3.879638  0
C  C85  1  0.21526482  0.28025088  0.98134419  1  0  -0.161215  -0.308066  0  3.879646  0
C  C86  1  0.66249668  0.80392104  0.98467181  1  0  0.240023  0.719071  0  4.067986  0
C  C87  1  0.33750614  0.19607910  0.01532856  1  0  0.240049  0.719101  0  4.067913  0
S  S88  1  0.03292853  0.92166506  0.76597638  1  0  0.531871  1.208757  0  6.124849  0
S  S89  1  0.96706940  0.07833283  0.23402588  1  0  0.531898  1.208795  0  6.124691  0
N  N90  1  0.42587664  0.11886152  0.30887871  1  0  -0.378531  -0.371798  0  3.467874  0
N  N91  1  0.57412217  0.88114200  0.69112181  1  0  -0.378551  -0.371828  0  3.467874  0
N  N92  1  0.54509551  0.86047836  0.26958682  1  0  -0.380178  -0.361143  0  3.522367  0
N  N93  1  0.45490199  0.13952402  0.73041294  1  0  -0.380153  -0.361136  0  3.522389  0
N  N94  1  0.17181172  0.87421192  0.56800199  1  0  -0.373687  -0.296738  0  3.58999  0
N  N95  1  0.82818525  0.12578707  0.43199894  1  0  -0.373677  -0.296671  0  3.58995  0
N  N96  1  0.27155631  0.65995195  0.53548351  1  0  -0.331937  -0.39361  0  3.200412  0
N  N97  1  0.72844048  0.34004588  0.46451530  1  0  -0.331935  -0.393649  0  3.200442  0
O  O98  1  0.19953225  0.95334890  0.78746846  1  0  -0.414418  -0.721358  0  2.451298  0
O  O99  1  0.80046812  0.04665009  0.21253113  1  0  -0.414415  -0.721315  0  2.451326  0
O  O100  1  0.99301008  0.00473410  0.68875530  1  0  -0.341479  -0.600597  0  2.187527  0
O  O101  1  0.00699143  0.99526489  0.31124431  1  0  -0.34153  -0.600635  0  2.187558  0
O  O102  1  0.94104657  0.94600598  0.84697643  1  0  -0.312637  -0.559441  0  2.202125  0
O  O103  1  0.05895494  0.05399300  0.15302249  1  0  -0.312612  -0.559459  0  2.201866  0
O  O104  1  0.66922824  0.32050507  0.18977063  1  0  -0.383704  -0.633191  0  2.237089  0
O  O105  1  0.33077326  0.67949391  0.81022829  1  0  -0.383677  -0.633166  0  2.237138  0
O  O106  1  0.71488198  0.20788736  0.05267427  1  0  -0.372651  -0.634937  0  2.244026  0
O  O107  1  0.28511858  0.79211276  0.94732470  1  0  -0.372657  -0.63496  0  2.244034  0
O  O108  1  0.62267685  0.78688435  0.89971264  1  0  -0.378723  -0.639861  0  2.247769  0
O  O109  1  0.37732274  0.21311692  0.10028845  1  0  -0.37873  -0.639833  0  2.247747  0
O  O110  1  0.59723145  0.88391693  0.04492215  1  0  -0.437051  -0.718407  0  2.369677  0
O  O111  1  0.40276988  0.11608096  0.95507945  1  0  -0.4371  -0.718498  0  2.369663  0
O  O112  1  0.30513766  0.89837507  0.12895466  1  0  -0.639513  -0.852873  0  2.019886  0
O  O113  1  0.69486176  0.10162504  0.87104431  1  0  -0.639535  -0.85292  0  2.019822  0
