# generated using pymatgen
data_CuPH25C31BrN3
_symmetry_space_group_name_H-M   'P 1'
_cell_length_a   13.11312979
_cell_length_b   14.34765731
_cell_length_c   20.07122477
_cell_angle_alpha   81.60371083
_cell_angle_beta   71.37529798
_cell_angle_gamma   62.78126386
_symmetry_Int_Tables_number   1
_chemical_formula_structural   CuPH25C31BrN3
_chemical_formula_sum   'Cu4 P4 H100 C124 Br4 N12'
_cell_volume   3182.23687503
_cell_formula_units_Z   4
loop_
 _symmetry_equiv_pos_site_id
 _symmetry_equiv_pos_as_xyz
  1  'x, y, z'
loop_
 _atom_site_type_symbol
 _atom_site_label
 _atom_site_symmetry_multiplicity
 _atom_site_fract_x
 _atom_site_fract_y
 _atom_site_fract_z
 _atom_site_occupancy
 _atom_site_pbe_bader_charge
 _atom_site_pbe_bader_spin_density
 _atom_site_pbe_cm5_charge
 _atom_site_pbe_ddec_charge
 _atom_site_pbe_ddec_spin_density
 _atom_site_pbe_ddec_sum_bond_order
 _atom_site_pbe_magmom
Cu  Cu0  1  0.06821526  0.54837043  0.46029082  1  0.461283  0  0.372022  0.134578  0  2.791747  0
Cu  Cu1  1  0.38338693  0.54834808  0.03974061  1  0.460011  0  0.372965  0.134674  0  2.792017  0
Cu  Cu2  1  0.93178076  0.45164361  0.53971277  1  0.461439  0  0.372083  0.134661  0  2.791739  0
Cu  Cu3  1  0.61661091  0.45164480  0.96026076  1  0.459963  0  0.372903  0.134594  0  2.792045  0
P  P4  1  0.23576012  0.53460455  0.47061531  1  1.40955  0  -0.042061  0.215811  0  4.243332  0
P  P5  1  0.22968886  0.53447676  0.02937374  1  1.402992  0  -0.041554  0.217575  0  4.242178  0
P  P6  1  0.76424277  0.46540556  0.52938332  1  1.409573  0  -0.042116  0.21562  0  4.243559  0
P  P7  1  0.77030331  0.46552082  0.97063278  1  1.402129  0  -0.041576  0.217509  0  4.242072  0
H  H8  1  0.13673444  0.55423842  0.30650965  1  0.095907  0  0.107216  0.0746  0  1.035226  0
H  H9  1  0.30922691  0.55432901  0.19350642  1  0.097235  0  0.107537  0.075047  0  1.033585  0
H  H10  1  0.86326066  0.44576308  0.69349290  1  0.095822  0  0.107242  0.074664  0  1.035167  0
H  H11  1  0.69078384  0.44566544  0.80649121  1  0.097233  0  0.107545  0.07507  0  1.033616  0
H  H12  1  0.04470731  0.65334597  0.21165219  1  0.099574  0  0.103629  0.11187  0  1.025207  0
H  H13  1  0.30194357  0.65368534  0.28827780  1  0.114628  0  0.10341  0.110738  0  1.025903  0
H  H14  1  0.95528701  0.34665709  0.78835036  1  0.099482  0  0.103602  0.111849  0  1.025192  0
H  H15  1  0.69806518  0.34630989  0.71172015  1  0.114586  0  0.103436  0.110767  0  1.02583  0
H  H16  1  0.73075507  0.84128435  0.37355738  1  0.102595  0  0.110168  0.115948  0  1.017176  0
H  H17  1  0.42718588  0.84178916  0.12622162  1  0.098799  0  0.110044  0.115955  0  1.017108  0
H  H18  1  0.26924132  0.15872107  0.62644302  1  0.102694  0  0.110181  0.115964  0  1.017108  0
H  H19  1  0.57281059  0.15821470  0.87377394  1  0.098793  0  0.110001  0.115839  0  1.017223  0
H  H20  1  0.83858592  0.73494481  0.46287591  1  0.101071  0  0.101112  0.082822  0  1.048073  0
H  H21  1  0.42581009  0.73526310  0.03700629  1  0.144609  0  0.100716  0.082344  0  1.04863  0
H  H22  1  0.16141209  0.26506217  0.53712451  1  0.101356  0  0.101058  0.08269  0  1.04809  0
H  H23  1  0.57419590  0.26473134  0.96298930  1  0.144692  0  0.100695  0.082291  0  1.048753  0
H  H24  1  0.65807021  0.98084365  0.07565999  1  0.104672  0  0.099321  0.092488  0  1.043386  0
H  H25  1  0.36097716  0.98017546  0.42461375  1  0.083247  0  0.099916  0.09246  0  1.043525  0
H  H26  1  0.34193672  0.01915550  0.92433095  1  0.104618  0  0.099362  0.092556  0  1.043325  0
H  H27  1  0.63901624  0.01983153  0.57537713  1  0.083197  0  0.099931  0.092497  0  1.043469  0
H  H28  1  0.34866783  0.20081483  0.01096061  1  0.086317  0  0.094906  0.091973  0  1.047029  0
H  H29  1  0.44945386  0.20034145  0.48982482  1  0.077527  0  0.096253  0.092699  0  1.044928  0
H  H30  1  0.65132967  0.79916630  0.98903154  1  0.086494  0  0.094853  0.091987  0  1.047112  0
H  H31  1  0.55054413  0.79965770  0.51017241  1  0.077359  0  0.096259  0.092772  0  1.04496  0
H  H32  1  0.22213025  0.21833104  0.13551298  1  0.084806  0  0.095586  0.090491  0  1.030505  0
H  H33  1  0.55874327  0.21797396  0.36537605  1  0.0472  0  0.095752  0.090975  0  1.031105  0
H  H34  1  0.77787407  0.78165557  0.86448174  1  0.08467  0  0.095592  0.090529  0  1.030451  0
H  H35  1  0.44127262  0.78201499  0.63462209  1  0.0474  0  0.095757  0.09106  0  1.031062  0
H  H36  1  0.46999319  0.54773011  0.41492735  1  0.08552  0  0.094996  0.094214  0  1.050507  0
H  H37  1  0.98217176  0.54713417  0.08545741  1  0.056225  0  0.095477  0.093851  0  1.04878  0
H  H38  1  0.53000699  0.45228393  0.58506893  1  0.084955  0  0.095062  0.094186  0  1.050532  0
H  H39  1  0.01782583  0.45285557  0.91455429  1  0.05635  0  0.095474  0.093927  0  1.048887  0
H  H40  1  0.63928050  0.47399897  0.30851134  1  0.060312  0  0.097661  0.095441  0  1.023221  0
H  H41  1  0.88731287  0.47351069  0.19218301  1  0.053427  0  0.097031  0.094815  0  1.022957  0
H  H42  1  0.36072312  0.52600488  0.69148777  1  0.060425  0  0.097689  0.095514  0  1.02321  0
H  H43  1  0.11268710  0.52647749  0.80782886  1  0.053557  0  0.097122  0.094925  0  1.022943  0
H  H44  1  0.62571222  0.37594019  0.22047561  1  0.076596  0  0.101999  0.102899  0  1.001731  0
H  H45  1  0.99952148  0.37607900  0.28011490  1  0.074581  0  0.102014  0.102835  0  1.002261  0
H  H46  1  0.37429087  0.62405817  0.77952665  1  0.076253  0  0.10204  0.10295  0  1.001733  0
H  H47  1  0.00049135  0.62390603  0.71989372  1  0.074879  0  0.101977  0.102878  0  1.002174  0
H  H48  1  0.44423057  0.34947808  0.24190256  1  0.072461  0  0.09853  0.104476  0  1.00233  0
H  H49  1  0.20747309  0.34998865  0.25817334  1  0.106202  0  0.097693  0.102121  0  1.000477  0
H  H50  1  0.55576895  0.65052577  0.75810086  1  0.072543  0  0.098519  0.104449  0  1.002237  0
H  H51  1  0.79253707  0.65000658  0.74183379  1  0.10623  0  0.09765  0.102012  0  1.00063  0
H  H52  1  0.27703010  0.41599000  0.35290756  1  0.098299  0  0.08364  0.089086  0  1.083996  0
H  H53  1  0.30750623  0.41628544  0.14686148  1  0.074505  0  0.083504  0.088901  0  1.085237  0
H  H54  1  0.72296749  0.58401934  0.64709520  1  0.098978  0  0.083649  0.089031  0  1.08407  0
H  H55  1  0.69249561  0.58371371  0.85314344  1  0.074547  0  0.083562  0.088954  0  1.085197  0
H  H56  1  0.47563600  0.36382530  0.47681453  1  0.079842  0  0.09545  0.091542  0  1.052366  0
H  H57  1  0.16058464  0.36396002  0.02324344  1  0.077631  0  0.094856  0.091401  0  1.052909  0
H  H58  1  0.52436510  0.63618168  0.52319175  1  0.082017  0  0.095391  0.0915  0  1.052503  0
H  H59  1  0.83941025  0.63602894  0.97676290  1  0.077788  0  0.094915  0.091514  0  1.052972  0
H  H60  1  0.54356372  0.25140551  0.57491611  1  0.090021  0  0.096957  0.092342  0  1.034868  0
H  H61  1  0.20511999  0.25138890  0.92522912  1  0.069363  0  0.096397  0.092212  0  1.036301  0
H  H62  1  0.45642328  0.74861010  0.42509811  1  0.089783  0  0.096992  0.092431  0  1.034815  0
H  H63  1  0.79488135  0.74859849  0.07477459  1  0.069926  0  0.096404  0.092172  0  1.036476  0
H  H64  1  0.40204990  0.27551240  0.69467327  1  0.064184  0  0.09607  0.091606  0  1.042295  0
H  H65  1  0.32248355  0.27532539  0.80544681  1  0.057623  0  0.09594  0.091025  0  1.044661  0
H  H66  1  0.59792366  0.72450948  0.30533554  1  0.063739  0  0.096037  0.091596  0  1.042401  0
H  H67  1  0.67752139  0.72466436  0.19455793  1  0.057761  0  0.095974  0.091051  0  1.04462  0
H  H68  1  0.19095769  0.41285763  0.71624472  1  0.074048  0  0.09348  0.086602  0  1.052955  0
H  H69  1  0.39622972  0.41260266  0.78371493  1  0.072777  0  0.093156  0.085371  0  1.052856  0
H  H70  1  0.80901400  0.58715877  0.28375456  1  0.073837  0  0.093507  0.086619  0  1.053016  0
H  H71  1  0.60377287  0.58739178  0.21629031  1  0.072332  0  0.093191  0.085377  0  1.052877  0
H  H72  1  0.12067446  0.52167941  0.61729715  1  0.116865  0  0.089347  0.094672  0  1.058032  0
H  H73  1  0.35776208  0.52149717  0.88259597  1  0.098385  0  0.089496  0.093696  0  1.059466  0
H  H74  1  0.87930937  0.47833542  0.38269586  1  0.116861  0  0.089316  0.094561  0  1.058261  0
H  H75  1  0.64223483  0.47849571  0.11741157  1  0.098374  0  0.089469  0.093718  0  1.059412  0
H  H76  1  0.12645238  0.73994058  0.41298565  1  0.064732  0  0.095837  0.093419  0  1.021749  0
H  H77  1  0.13360452  0.73975932  0.08696102  1  0.054904  0  0.097181  0.095782  0  1.021942  0
H  H78  1  0.87354817  0.26007111  0.58701080  1  0.064638  0  0.09584  0.09349  0  1.021682  0
H  H79  1  0.86637808  0.26023983  0.91304428  1  0.05528  0  0.097191  0.09584  0  1.02184  0
H  H80  1  0.11195930  0.91429293  0.43048418  1  0.064225  0  0.103881  0.101078  0  0.989952  0
H  H81  1  0.97384321  0.91418721  0.06931351  1  0.059446  0  0.10382  0.101788  0  0.990497  0
H  H82  1  0.88804279  0.08571719  0.56951460  1  0.064371  0  0.103926  0.10115  0  0.989929  0
H  H83  1  0.02614358  0.08581351  0.93068381  1  0.059368  0  0.103789  0.101735  0  0.990544  0
H  H84  1  0.19885829  0.93515577  0.51783576  1  0.055512  0  0.103622  0.102049  0  0.991014  0
H  H85  1  0.86609928  0.93506419  0.98194070  1  0.049745  0  0.103769  0.102199  0  0.991104  0
H  H86  1  0.80113616  0.06485513  0.48216448  1  0.055691  0  0.103694  0.102153  0  0.990945  0
H  H87  1  0.13389839  0.06492948  0.01804966  1  0.050076  0  0.103819  0.102247  0  0.991224  0
H  H88  1  0.30209122  0.78050920  0.58659831  1  0.057322  0  0.098467  0.092177  0  1.018015  0
H  H89  1  0.91733687  0.78033061  0.91336157  1  0.03566  0  0.099363  0.093442  0  1.018241  0
H  H90  1  0.69789801  0.21950249  0.41340290  1  0.057416  0  0.098505  0.092166  0  1.017932  0
H  H91  1  0.08266745  0.21965600  0.08663265  1  0.035726  0  0.099298  0.093282  0  1.01826  0
H  H92  1  0.32160402  0.60604611  0.56679865  1  0.060941  0  0.095106  0.090883  0  1.050149  0
H  H93  1  0.07227001  0.60581751  0.93328294  1  0.050558  0  0.095294  0.091561  0  1.050417  0
H  H94  1  0.67839039  0.39396323  0.43320275  1  0.061086  0  0.095104  0.090872  0  1.050318  0
H  H95  1  0.92773141  0.39417302  0.06671844  1  0.050334  0  0.0953  0.091636  0  1.050376  0
H  H96  1  0.31276984  0.11590817  0.22923595  1  0.056117  0  0.10369  0.106838  0  0.999082  0
H  H97  1  0.57111903  0.11558746  0.27145807  1  0.080926  0  0.102989  0.106331  0  0.999475  0
H  H98  1  0.68724103  0.88409097  0.77075819  1  0.055959  0  0.10367  0.106862  0  0.998986  0
H  H99  1  0.42890644  0.88439679  0.72853962  1  0.081191  0  0.103006  0.10632  0  0.9994  0
H  H100  1  0.56647181  0.08195340  0.98114705  1  0.074167  0  0.099388  0.095696  0  1.011236  0
H  H101  1  0.35111841  0.08105088  0.51935862  1  0.053021  0  0.099689  0.09519  0  1.011436  0
H  H102  1  0.43352741  0.91804026  0.01884600  1  0.074333  0  0.099441  0.095724  0  1.01127  0
H  H103  1  0.64887252  0.91895297  0.48063356  1  0.052752  0  0.09964  0.095183  0  1.011425  0
H  H104  1  0.87084165  0.79854194  0.17628661  1  0.115798  0  0.112048  0.078474  0  1.013795  0
H  H105  1  0.33007493  0.79895123  0.32355733  1  0.105746  0  0.112258  0.078129  0  1.013731  0
H  H106  1  0.12916623  0.20145329  0.82371450  1  0.115811  0  0.112038  0.078455  0  1.013784  0
H  H107  1  0.66993708  0.20104399  0.67643797  1  0.105393  0  0.112228  0.078086  0  1.013673  0
C  C108  1  0.04782212  0.61983808  0.31910784  1  0.410081  0  0.036188  0.081823  0  3.946343  0
C  C109  1  0.33231237  0.62003071  0.18084383  1  0.427695  0  0.035359  0.081537  0  3.944554  0
C  C110  1  0.95217416  0.38016420  0.68089639  1  0.40989  0  0.036159  0.081754  0  3.946119  0
C  C111  1  0.66769877  0.37996138  0.81915345  1  0.427809  0  0.035324  0.081445  0  3.944905  0
C  C112  1  0.99600326  0.67528575  0.26655427  1  0.03829  0  -0.083244  -0.168064  0  3.940374  0
C  C113  1  0.32856817  0.67559903  0.23335762  1  0.011944  0  -0.082643  -0.166545  0  3.938876  0
C  C114  1  0.00399387  0.32471653  0.73344779  1  0.038602  0  -0.083187  -0.167959  0  3.940393  0
C  C115  1  0.67144221  0.32439463  0.76663816  1  0.011782  0  -0.082709  -0.16663  0  3.9389  0
C  C116  1  0.87943678  0.75668259  0.28536449  1  -0.01897  0  0.005054  0.099385  0  4.035373  0
C  C117  1  0.36350416  0.75707995  0.21448238  1  -0.062569  0  0.003016  0.099152  0  4.03576  0
C  C118  1  0.12056084  0.24332204  0.71463425  1  -0.029661  0  0.005021  0.099299  0  4.035414  0
C  C119  1  0.63650549  0.24291527  0.78551090  1  -0.062718  0  0.002937  0.09911  0  4.0357  0
C  C120  1  0.82184900  0.77950247  0.35737897  1  -0.002132  0  -0.0776  -0.153545  0  3.932683  0
C  C121  1  0.39810457  0.77990747  0.14246231  1  -0.037253  0  -0.077855  -0.15476  0  3.933971  0
C  C122  1  0.17814734  0.22050138  0.64262309  1  -0.001956  0  -0.077549  -0.153554  0  3.932771  0
C  C123  1  0.60190303  0.22008854  0.85753330  1  -0.037222  0  -0.077814  -0.154536  0  3.933961  0
C  C124  1  0.88034735  0.72124723  0.40642158  1  0.450138  0  0.035924  0.08184  0  3.924121  0
C  C125  1  0.39791795  0.72154213  0.09347448  1  0.441014  0  0.037513  0.082822  0  3.923367  0
C  C126  1  0.11964817  0.27875819  0.59358198  1  0.449846  0  0.035938  0.082041  0  3.923979  0
C  C127  1  0.60209040  0.27845074  0.90652229  1  0.441131  0  0.03747  0.082721  0  3.923525  0
C  C128  1  0.81985886  0.81285303  0.23219877  1  0.582792  0  0.068563  0.039821  0  3.909223  0
C  C129  1  0.36690223  0.81321860  0.26767395  1  0.607452  0  0.070219  0.040604  0  3.9105  0
C  C130  1  0.18014589  0.18714690  0.76780150  1  0.592767  0  0.068541  0.039821  0  3.909006  0
C  C131  1  0.63310864  0.18677741  0.73231901  1  0.607983  0  0.070258  0.040666  0  3.910498  0
C  C132  1  0.56284084  0.03348338  0.08789299  1  -0.049358  0  -0.082128  -0.099703  0  3.944677  0
C  C133  1  0.40341177  0.03290949  0.41250975  1  0.024653  0  -0.081929  -0.097945  0  3.942549  0
C  C134  1  0.43716486  0.96651498  0.91209878  1  -0.049415  0  -0.082142  -0.099733  0  3.944782  0
C  C135  1  0.59658756  0.96709515  0.58748366  1  0.024363  0  -0.081973  -0.098053  0  3.942625  0
C  C136  1  0.38848120  0.15650769  0.05228706  1  0.007987  0  -0.086108  -0.065725  0  3.973873  0
C  C137  1  0.45421296  0.15601079  0.44840321  1  -0.027238  0  -0.087201  -0.065477  0  3.972003  0
C  C138  1  0.61151873  0.84347971  0.94770697  1  0.008669  0  -0.086175  -0.065876  0  3.974067  0
C  C139  1  0.54579073  0.84398836  0.55158937  1  -0.026995  0  -0.087168  -0.065445  0  3.972134  0
C  C140  1  0.31752536  0.16560801  0.12194872  1  -0.07079  0  -0.094197  -0.083829  0  4.020734  0
C  C141  1  0.51618880  0.16521216  0.37879801  1  -0.048172  0  -0.094879  -0.086218  0  4.02071  0
C  C142  1  0.68247705  0.83438252  0.87804350  1  -0.070832  0  -0.094097  -0.083788  0  4.02052  0
C  C143  1  0.48382194  0.83478072  0.62119978  1  -0.048529  0  -0.094941  -0.086503  0  4.020837  0
C  C144  1  0.36198980  0.48673128  0.39092001  1  -0.456658  0  -0.028697  -0.045659  0  3.964133  0
C  C145  1  0.15152290  0.48655253  0.10911740  1  -0.533417  0  -0.029029  -0.046298  0  3.968281  0
C  C146  1  0.63801426  0.51327492  0.60907827  1  -0.456863  0  -0.028686  -0.045549  0  3.963705  0
C  C147  1  0.84847722  0.51344191  0.89089033  1  -0.533619  0  -0.029028  -0.046367  0  3.968158  0
C  C148  1  0.46445278  0.50287888  0.37790336  1  -0.09208  0  -0.090505  -0.102319  0  3.986165  0
C  C149  1  0.03290162  0.50248138  0.12238561  1  -0.071513  0  -0.090187  -0.10174  0  3.984853  0
C  C150  1  0.53554528  0.49713124  0.62209623  1  -0.091057  0  -0.090549  -0.102301  0  3.985989  0
C  C151  1  0.96709565  0.49751072  0.87762343  1  -0.073298  0  -0.090157  -0.101945  0  3.984988  0
C  C152  1  0.55973495  0.46178180  0.31739833  1  -0.093292  0  -0.094954  -0.091456  0  4.010962  0
C  C153  1  0.97905876  0.46147889  0.18307907  1  -0.100774  0  -0.095087  -0.090656  0  4.011084  0
C  C154  1  0.44026705  0.53822205  0.68260160  1  -0.092804  0  -0.095042  -0.09165  0  4.010892  0
C  C155  1  0.02094371  0.53851398  0.81693084  1  -0.099153  0  -0.09516  -0.090598  0  4.011098  0
C  C156  1  0.55245630  0.40664061  0.26842388  1  -0.041408  0  -0.08725  -0.076494  0  3.988475  0
C  C157  1  0.04180045  0.40668716  0.23200413  1  -0.006356  0  -0.087623  -0.078165  0  3.98922  0
C  C158  1  0.44754844  0.59336245  0.73157857  1  -0.04174  0  -0.087275  -0.076491  0  3.98834  0
C  C159  1  0.95820758  0.59330102  0.76800563  1  -0.00592  0  -0.087713  -0.078419  0  3.989275  0
C  C160  1  0.44998504  0.39173598  0.28051867  1  -0.061654  0  -0.090502  -0.078578  0  4.001209  0
C  C161  1  0.15915654  0.39198970  0.21964060  1  -0.109225  0  -0.088518  -0.073611  0  3.996712  0
C  C162  1  0.55001730  0.60826709  0.71948376  1  -0.061757  0  -0.090442  -0.07849  0  4.001055  0
C  C163  1  0.84084803  0.60800709  0.78036650  1  -0.109405  0  -0.088426  -0.073454  0  3.996914  0
C  C164  1  0.35571117  0.43057579  0.34179930  1  -0.080543  0  -0.089303  -0.102366  0  3.971299  0
C  C165  1  0.21424749  0.43071470  0.15816649  1  0.029843  0  -0.090117  -0.103316  0  3.975568  0
C  C166  1  0.64429003  0.56943120  0.65820197  1  -0.081351  0  -0.089361  -0.10242  0  3.971203  0
C  C167  1  0.78575439  0.56928445  0.84183643  1  0.029559  0  -0.090082  -0.103161  0  3.975437  0
C  C168  1  0.29413686  0.45113790  0.54052149  1  -0.506483  0  -0.022931  -0.031278  0  3.948934  0
C  C169  1  0.25486530  0.45105547  0.95944878  1  -0.519619  0  -0.024183  -0.033394  0  3.953712  0
C  C170  1  0.70585673  0.54887301  0.45948191  1  -0.50646  0  -0.02289  -0.031098  0  3.948874  0
C  C171  1  0.74512720  0.54893663  0.04055822  1  -0.519157  0  -0.024179  -0.033178  0  3.953223  0
C  C172  1  0.41278711  0.37456355  0.52919454  1  -0.11289  0  -0.092662  -0.10935  0  3.98752  0
C  C173  1  0.21271978  0.37458053  0.97084313  1  -0.081852  0  -0.090505  -0.108372  0  3.987455  0
C  C174  1  0.58720715  0.62544422  0.47081353  1  -0.114259  0  -0.092475  -0.109179  0  3.9874  0
C  C175  1  0.78728125  0.62541548  0.02916077  1  -0.081323  0  -0.09044  -0.108453  0  3.987518  0
C  C176  1  0.45127561  0.31146013  0.58454044  1  -0.03857  0  -0.093531  -0.084072  0  4.007669  0
C  C177  1  0.23733259  0.31142697  0.91553407  1  -0.015161  0  -0.093735  -0.084321  0  4.006915  0
C  C178  1  0.54871071  0.68855705  0.41546878  1  -0.039725  0  -0.093726  -0.08444  0  4.007829  0
C  C179  1  0.76266715  0.68856356  0.08447114  1  -0.015807  0  -0.093854  -0.084413  0  4.00736  0
C  C180  1  0.37188784  0.32556089  0.65191745  1  -0.089863  0  -0.091691  -0.078584  0  3.990361  0
C  C181  1  0.30261298  0.32542427  0.84814071  1  -0.08033  0  -0.091266  -0.078095  0  3.990635  0
C  C182  1  0.62809054  0.67445629  0.34808838  1  -0.088421  0  -0.091651  -0.078567  0  3.99044  0
C  C183  1  0.69739076  0.67456469  0.15186386  1  -0.080977  0  -0.091151  -0.077946  0  3.990712  0
C  C184  1  0.25363691  0.40253006  0.66383960  1  -0.047359  0  -0.094637  -0.083311  0  4.00683  0
C  C185  1  0.34390154  0.40234379  0.83615427  1  -0.021475  0  -0.095537  -0.083414  0  4.004872  0
C  C186  1  0.74634513  0.59748476  0.33616224  1  -0.047376  0  -0.094683  -0.083237  0  4.006678  0
C  C187  1  0.65609700  0.59765222  0.16385362  1  -0.020469  0  -0.095635  -0.083399  0  4.005003  0
C  C188  1  0.21423013  0.46429205  0.60858205  1  -0.045101  0  -0.089098  -0.098698  0  3.953217  0
C  C189  1  0.32160381  0.46414106  0.89137389  1  -0.073753  0  -0.088075  -0.095369  0  3.952878  0
C  C190  1  0.78575954  0.53571729  0.39141582  1  -0.045355  0  -0.088981  -0.098598  0  3.953398  0
C  C191  1  0.67839062  0.53585026  0.10863629  1  -0.074329  0  -0.088175  -0.095728  0  3.952812  0
C  C192  1  0.22780579  0.66049695  0.48735725  1  -0.522935  0  -0.024304  -0.032699  0  3.9505  0
C  C193  1  0.11163109  0.66032717  0.01266209  1  -0.506413  0  -0.025244  -0.033708  0  3.952099  0
C  C194  1  0.77219551  0.33951317  0.51264120  1  -0.523353  0  -0.024377  -0.032645  0  3.950587  0
C  C195  1  0.88836668  0.33965944  0.98733893  1  -0.506135  0  -0.025266  -0.033674  0  3.952227  0
C  C196  1  0.16759898  0.74856274  0.44978386  1  -0.039545  0  -0.087718  -0.099583  0  3.982673  0
C  C197  1  0.08381940  0.74841060  0.05017023  1  -0.060325  0  -0.089791  -0.103903  0  3.986519  0
C  C198  1  0.83240238  0.25145208  0.55021411  1  -0.039591  0  -0.087651  -0.09962  0  3.982378  0
C  C199  1  0.91616884  0.25158855  0.94983343  1  -0.060499  0  -0.089689  -0.103897  0  3.986733  0
C  C200  1  0.15817219  0.84656420  0.46022253  1  -0.048571  0  -0.090576  -0.084174  0  4.022528  0
C  C201  1  0.99527584  0.84644186  0.03965054  1  -0.032803  0  -0.089675  -0.083083  0  4.023421  0
C  C202  1  0.84182789  0.15344514  0.53977624  1  -0.048272  0  -0.090715  -0.084378  0  4.022365  0
C  C203  1  0.00471844  0.15355180  0.96034897  1  -0.033131  0  -0.089679  -0.083043  0  4.023431  0
C  C204  1  0.20671488  0.85843442  0.50941930  1  -0.036721  0  -0.091187  -0.08789  0  4.014052  0
C  C205  1  0.93488533  0.85830913  0.99044524  1  -0.033722  0  -0.091313  -0.088484  0  4.01296  0
C  C206  1  0.79328113  0.14157649  0.49058312  1  -0.037148  0  -0.091195  -0.087889  0  4.014092  0
C  C207  1  0.06511221  0.14168297  0.00955029  1  -0.034078  0  -0.091443  -0.088558  0  4.013293  0
C  C208  1  0.26455519  0.77175230  0.54790637  1  -0.084348  0  -0.092483  -0.080903  0  4.01553  0
C  C209  1  0.96363770  0.77157737  0.95205297  1  -0.039523  0  -0.09411  -0.083126  0  4.014371  0
C  C210  1  0.73544045  0.22826095  0.45209589  1  -0.084067  0  -0.092467  -0.080881  0  4.015527  0
C  C211  1  0.03636145  0.22841473  0.04794224  1  -0.039681  0  -0.093962  -0.082978  0  4.014449  0
C  C212  1  0.27567014  0.67323092  0.53672257  1  -0.000382  0  -0.08761  -0.097097  0  3.973212  0
C  C213  1  0.05101521  0.67304086  0.96329496  1  -0.006966  0  -0.086857  -0.095916  0  3.972666  0
C  C214  1  0.72432478  0.32678390  0.46327669  1  -0.000585  0  -0.087666  -0.097173  0  3.973538  0
C  C215  1  0.94898545  0.32695280  0.03670576  1  -0.006433  0  -0.086893  -0.095969  0  3.972681  0
C  C216  1  0.54745247  0.98155714  0.21299259  1  0.619675  0  0.156742  0.142194  0  3.947275  0
C  C217  1  0.47081411  0.98140723  0.28728296  1  0.574856  0  0.156071  0.144362  0  3.945915  0
C  C218  1  0.45255607  0.01844201  0.78699853  1  0.61955  0  0.156798  0.142232  0  3.947412  0
C  C219  1  0.52919515  0.01858878  0.71271032  1  0.573603  0  0.155966  0.144291  0  3.946234  0
C  C220  1  0.49186457  0.04185092  0.15833388  1  -0.045181  0  -0.007934  0.032712  0  4.012309  0
C  C221  1  0.46603085  0.04146109  0.34211916  1  -0.06439  0  -0.009984  0.027909  0  4.015418  0
C  C222  1  0.50814341  0.95814431  0.84166273  1  -0.045126  0  -0.007966  0.032644  0  4.012558  0
C  C223  1  0.53397841  0.95853492  0.65787412  1  -0.064873  0  -0.010052  0.02789  0  4.01538  0
C  C224  1  0.36848528  0.10869202  0.17486363  1  0.021768  0  -0.085838  -0.111763  0  3.953872  0
C  C225  1  0.52244959  0.10831025  0.32577885  1  -0.046552  0  -0.08375  -0.10833  0  3.953123  0
C  C226  1  0.63152157  0.89130556  0.82513048  1  0.021714  0  -0.085842  -0.11175  0  3.953889  0
C  C227  1  0.47756595  0.89167792  0.67421645  1  -0.046295  0  -0.083691  -0.10814  0  3.952897  0
C  C228  1  0.51124638  0.09037989  0.03560370  1  -0.140236  0  -0.089201  -0.077885  0  4.023728  0
C  C229  1  0.39784426  0.08972193  0.46493134  1  -0.041161  0  -0.090011  -0.078078  0  4.02213  0
C  C230  1  0.48876084  0.90960907  0.96438771  1  -0.140566  0  -0.0892  -0.077865  0  4.023802  0
C  C231  1  0.60214941  0.91027957  0.53506253  1  -0.040594  0  -0.089951  -0.078078  0  4.022386  0
Br  Br232  1  0.90875347  0.62472175  0.57449737  1  -0.588486  0  -0.285893  -0.427858  0  1.510553  0
Br  Br233  1  0.46647509  0.62473217  0.92554542  1  -0.587065  0  -0.285388  -0.427522  0  1.51184  0
Br  Br234  1  0.09123595  0.37530091  0.42550071  1  -0.588423  0  -0.285891  -0.427863  0  1.51057  0
Br  Br235  1  0.53352358  0.37525600  0.07445177  1  -0.586993  0  -0.285362  -0.427472  0  1.511877  0
N  N236  1  0.99191055  0.64136090  0.38814180  1  -1.231517  0  -0.358771  -0.172381  0  3.633533  0
N  N237  1  0.36655456  0.64151568  0.11179885  1  -1.203068  0  -0.359713  -0.172848  0  3.634218  0
N  N238  1  0.00808468  0.35864687  0.61185810  1  -1.231401  0  -0.358791  -0.172499  0  3.633169  0
N  N239  1  0.63345901  0.35847485  0.88819611  1  -1.203001  0  -0.359579  -0.172715  0  3.634307  0
N  N240  1  0.70733065  0.87815224  0.25110202  1  -0.761883  0  -0.202424  -0.148657  0  3.379967  0
N  N241  1  0.41431983  0.87832797  0.24888235  1  -0.760631  0  -0.203163  -0.14863  0  3.381121  0
N  N242  1  0.29267544  0.12185317  0.74889444  1  -0.760953  0  -0.202435  -0.148655  0  3.379827  0
N  N243  1  0.58569181  0.12166804  0.75111195  1  -0.760908  0  -0.203066  -0.148548  0  3.381217  0
N  N244  1  0.66394166  0.92880664  0.19541489  1  -0.738142  0  -0.211288  -0.218084  0  3.300814  0
N  N245  1  0.40706574  0.92873091  0.30469272  1  -0.701624  0  -0.210081  -0.217988  0  3.300322  0
N  N246  1  0.33606767  0.07119721  0.80457909  1  -0.738565  0  -0.211299  -0.218081  0  3.301003  0
N  N247  1  0.59294755  0.07126353  0.69529892  1  -0.70055  0  -0.209978  -0.217906  0  3.300272  0
