# generated using pymatgen
data_CuH12C12(BrN)2
_symmetry_space_group_name_H-M   'P 1'
_cell_length_a   7.32634987
_cell_length_b   9.82318635
_cell_length_c   10.17412245
_cell_angle_alpha   118.86827331
_cell_angle_beta   103.99423430
_cell_angle_gamma   90.00100084
_symmetry_Int_Tables_number   1
_chemical_formula_structural   CuH12C12(BrN)2
_chemical_formula_sum   'Cu2 H24 C24 Br4 N4'
_cell_volume   616.28766447
_cell_formula_units_Z   2
loop_
 _symmetry_equiv_pos_site_id
 _symmetry_equiv_pos_as_xyz
  1  'x, y, z'
loop_
 _atom_site_type_symbol
 _atom_site_label
 _atom_site_symmetry_multiplicity
 _atom_site_fract_x
 _atom_site_fract_y
 _atom_site_fract_z
 _atom_site_occupancy
 _atom_site_pbe_cm5_charge
 _atom_site_pbe_ddec_charge
 _atom_site_pbe_ddec_spin_density
 _atom_site_pbe_ddec_sum_bond_order
 _atom_site_pbe_magmom
Cu  Cu0  1  0.75009681  0.07151022  0.99996837  1  0.520028  0.571627  0.639544  2.39979  0.483
Cu  Cu1  1  0.24989107  0.92849114  0.00002432  1  0.520078  0.571718  -0.639545  2.399744  -0.483
H  H2  1  0.84531640  0.63026831  0.11255576  1  0.105455  0.125438  0.000631  1.015494  0.001
H  H3  1  0.34523686  0.48225146  0.11249704  1  0.105575  0.125545  -0.00063  1.01541  -0.001
H  H4  1  0.15470979  0.36974215  0.88744028  1  0.105473  0.125487  -0.000631  1.015422  -0.001
H  H5  1  0.65476116  0.51774402  0.88749878  1  0.105571  0.125591  0.00063  1.015432  0.001
H  H6  1  0.19767984  0.55474911  0.47026233  1  0.108637  0.124943  0.000899  1.002463  0.001
H  H7  1  0.69752099  0.91553809  0.47024813  1  0.108543  0.124765  -0.000899  1.00253  -0.001
H  H8  1  0.80231179  0.44525815  0.52973768  1  0.108603  0.124895  -0.000899  1.002443  -0.001
H  H9  1  0.30247371  0.08446336  0.52975668  1  0.108521  0.124745  0.000899  1.002668  0.001
H  H10  1  0.05846249  0.26966217  0.30650765  1  0.097432  0.077267  0.000813  1.070403  0.002
H  H11  1  0.55836616  0.03684376  0.30646388  1  0.097444  0.077134  -0.000811  1.070649  -0.002
H  H12  1  0.94153296  0.73034402  0.69350339  1  0.097449  0.077283  -0.000813  1.070376  -0.002
H  H13  1  0.44163169  0.96315052  0.69352940  1  0.097465  0.07717  0.000812  1.070613  0.002
H  H14  1  0.25435215  0.80787654  0.44633630  1  0.090763  0.131491  -5e-06  1.032703  0.0
H  H15  1  0.75429749  0.63846952  0.44624941  1  0.090863  0.13168  5e-06  1.03218  0.0
H  H16  1  0.74565363  0.19213319  0.55368416  1  0.090807  0.13155  5e-06  1.032572  0.0
H  H17  1  0.24568985  0.36152134  0.55374429  1  0.090804  0.131582  -4e-06  1.032363  0.0
H  H18  1  0.04620108  0.84040452  0.50769772  1  0.085396  0.136836  -0.000656  1.03381  0.0
H  H19  1  0.54615353  0.66729011  0.50767389  1  0.085338  0.136784  0.000658  1.033923  0.0
H  H20  1  0.95379847  0.15959349  0.49231526  1  0.085444  0.136895  0.000656  1.033865  0.0
H  H21  1  0.45384207  0.33270774  0.49232354  1  0.085338  0.136784  -0.000658  1.034033  0.0
H  H22  1  0.05419336  0.85011058  0.33820617  1  0.077979  0.140104  0.002565  1.049446  0.001
H  H23  1  0.55411177  0.48808056  0.33813357  1  0.077921  0.140256  -0.002564  1.049411  -0.001
H  H24  1  0.94581369  0.14991441  0.66182049  1  0.077942  0.140182  -0.002564  1.049468  -0.001
H  H25  1  0.44587619  0.51191381  0.66186087  1  0.077908  0.140255  0.002565  1.04937  0.001
C  C26  1  0.82233356  0.39371385  0.07602649  1  0.118451  0.178366  0.001408  3.97439  0.001
C  C27  1  0.32226996  0.68229468  0.07597131  1  0.118765  0.178417  -0.001405  3.974871  -0.001
C  C28  1  0.17766617  0.60629097  0.92396996  1  0.118436  0.178375  -0.001408  3.974439  -0.001
C  C29  1  0.67773183  0.31769846  0.92402609  1  0.118836  0.178611  0.001404  3.974836  0.001
C  C30  1  0.89454996  0.55319602  0.15903463  1  -0.080668  -0.215371  0.002425  3.872219  0.002
C  C31  1  0.39448212  0.60579313  0.15895661  1  -0.08081  -0.215187  -0.002428  3.87154  -0.002
C  C32  1  0.10545532  0.44680882  0.84096679  1  -0.080679  -0.215401  -0.002426  3.872153  -0.002
C  C33  1  0.60551215  0.39420468  0.84103663  1  -0.080917  -0.215458  0.002429  3.871496  0.002
C  C34  1  0.02868534  0.61633120  0.30510935  1  0.014225  0.226146  -0.001896  3.958343  -0.002
C  C35  1  0.52857864  0.68877431  0.30505851  1  0.014346  0.22621  0.001896  3.957526  0.002
C  C36  1  0.97132075  0.38367010  0.69488962  1  0.014251  0.226123  0.001896  3.958255  0.002
C  C37  1  0.47141676  0.31122237  0.69493836  1  0.014469  0.226419  -0.001895  3.957468  -0.002
C  C38  1  0.09098301  0.51262861  0.35875309  1  -0.084109  -0.186355  0.003854  3.903173  0.005
C  C39  1  0.59089239  0.84610858  0.35871002  1  -0.084171  -0.186266  -0.003854  3.902784  -0.005
C  C40  1  0.90902315  0.48737264  0.64124194  1  -0.08403  -0.186149  -0.003854  3.902991  -0.005
C  C41  1  0.40910157  0.15388813  0.64128856  1  -0.084194  -0.186291  0.003855  3.902896  0.005
C  C42  1  0.01496278  0.35505545  0.26990607  1  0.043696  0.106842  -0.000317  3.963909  -0.001
C  C43  1  0.51489211  0.91485622  0.26987840  1  0.043909  0.107365  0.000318  3.963383  0.001
C  C44  1  0.98503661  0.64494828  0.73009671  1  0.043623  0.106727  0.000317  3.963984  0.001
C  C45  1  0.48510839  0.08513816  0.73012425  1  0.04392  0.107345  -0.000318  3.96355  -0.001
C  C46  1  0.09895981  0.78793947  0.40315370  1  -0.247303  -0.432937  0.00296  3.919008  0.003
C  C47  1  0.59889029  0.61520929  0.40310446  1  -0.247507  -0.433479  -0.002962  3.918039  -0.003
C  C48  1  0.90104611  0.21206193  0.59685414  1  -0.247381  -0.433187  -0.00296  3.919041  -0.003
C  C49  1  0.40109513  0.38478624  0.59688708  1  -0.247472  -0.433434  0.002963  3.918093  0.003
Br  Br50  1  0.92910470  0.97906435  0.16832726  1  -0.247516  -0.454786  0.125427  1.432052  0.12
Br  Br51  1  0.42897594  0.18929213  0.16844129  1  -0.247568  -0.454944  -0.125501  1.431642  -0.12
Br  Br52  1  0.07091348  0.02093333  0.83166934  1  -0.24752  -0.45479  -0.125421  1.432113  -0.12
Br  Br53  1  0.57104774  0.81068912  0.83155276  1  -0.24757  -0.454936  0.125495  1.431585  0.12
N  N54  1  0.88131861  0.29699614  0.13325390  1  -0.342491  -0.243788  0.05509  3.591932  0.07
N  N55  1  0.38124889  0.83623297  0.13322045  1  -0.342663  -0.244192  -0.055109  3.592767  -0.07
N  N56  1  0.11868282  0.70300286  0.86674513  1  -0.342474  -0.243772  -0.055091  3.592134  -0.07
N  N57  1  0.61874900  0.16376129  0.86677085  1  -0.342659  -0.244232  0.055109  3.593197  0.07
