# generated using pymatgen
data_CdH20C34(SN5)2
_symmetry_space_group_name_H-M   'P 1'
_cell_length_a   8.54840961
_cell_length_b   13.62021766
_cell_length_c   13.62021423
_cell_angle_alpha   107.95604795
_cell_angle_beta   90.00001358
_cell_angle_gamma   89.99997011
_symmetry_Int_Tables_number   1
_chemical_formula_structural   CdH20C34(SN5)2
_chemical_formula_sum   'Cd2 H40 C68 S4 N20'
_cell_volume   1508.57790114
_cell_formula_units_Z   2
loop_
 _symmetry_equiv_pos_site_id
 _symmetry_equiv_pos_as_xyz
  1  'x, y, z'
loop_
 _atom_site_type_symbol
 _atom_site_label
 _atom_site_symmetry_multiplicity
 _atom_site_fract_x
 _atom_site_fract_y
 _atom_site_fract_z
 _atom_site_occupancy
 _atom_site_hle17_bader_spin_density
 _atom_site_hle17_ddec_charge
 _atom_site_hle17_ddec_spin_density
 _atom_site_hle17_ddec_sum_bond_order
 _atom_site_hle17_magmom
 _atom_site_hse06_10hf_bader_spin_density
 _atom_site_hse06_10hf_ddec_charge
 _atom_site_hse06_10hf_ddec_spin_density
 _atom_site_hse06_10hf_ddec_sum_bond_order
 _atom_site_hse06_10hf_magmom
 _atom_site_hse06_bader_spin_density
 _atom_site_hse06_ddec_charge
 _atom_site_hse06_ddec_spin_density
 _atom_site_hse06_ddec_sum_bond_order
 _atom_site_hse06_magmom
 _atom_site_pbe_bader_spin_density
 _atom_site_pbe_cm5_charge
 _atom_site_pbe_ddec_charge
 _atom_site_pbe_ddec_spin_density
 _atom_site_pbe_ddec_sum_bond_order
 _atom_site_pbe_magmom
Cd  Cd0  1  0.99999993  0.49999943  0.50000021  1  0  0.99911  0  1.94966  0  0  0.793521  0  2.419598  0  0  0.842352  0  2.379564  0  0  0.801912  0.759547  0  2.44649  0
Cd  Cd1  1  0.49999846  0.99999973  0.99999999  1  0  0.999108  0  1.94965  0  0  0.793523  0  2.419594  0  0  0.842352  0  2.37956  0  0  0.80192  0.759547  0  2.446485  0
H  H2  1  0.39384258  0.66522243  0.05473739  1  0  0.111667  0  0.959562  0  0  0.116504  0  1.028377  0  0  0.121034  0  1.025783  0  0  0.106255  0.113261  0  1.030381  0
H  H3  1  0.10615873  0.55473655  0.16522124  1  0  0.111652  0  0.959578  0  0  0.11648  0  1.028395  0  0  0.121009  0  1.025806  0  0  0.106229  0.113222  0  1.030413  0
H  H4  1  0.89384202  0.83477865  0.44526318  1  0  0.111646  0  0.959561  0  0  0.116481  0  1.028383  0  0  0.121009  0  1.025795  0  0  0.106228  0.113237  0  1.030387  0
H  H5  1  0.60615804  0.94526306  0.33477811  1  0  0.111707  0  0.959517  0  0  0.116541  0  1.028332  0  0  0.12107  0  1.02574  0  0  0.10626  0.113297  0  1.030336  0
H  H6  1  0.60615841  0.33477891  0.94526444  1  0  0.111657  0  0.959568  0  0  0.116487  0  1.028386  0  0  0.121014  0  1.025799  0  0  0.106237  0.113227  0  1.030404  0
H  H7  1  0.89384226  0.44526401  0.83477888  1  0  0.111654  0  0.959564  0  0  0.116486  0  1.028384  0  0  0.121014  0  1.025796  0  0  0.106239  0.113226  0  1.030402  0
H  H8  1  0.10615779  0.16522115  0.55473671  1  0  0.111652  0  0.959553  0  0  0.116488  0  1.028374  0  0  0.121016  0  1.025786  0  0  0.10623  0.113243  0  1.030377  0
H  H9  1  0.39384178  0.05473673  0.66522178  1  0  0.111681  0  0.959548  0  0  0.116519  0  1.02836  0  0  0.121048  0  1.025769  0  0  0.106251  0.113275  0  1.030363  0
H  H10  1  0.21967466  0.69876639  0.91708968  1  0  0.103107  0  0.959609  0  0  0.112616  0  1.023036  0  0  0.114872  0  1.022064  0  0  0.10635  0.110868  0  1.023865  0
H  H11  1  0.28032569  0.41708980  0.19876588  1  0  0.103092  0  0.959625  0  0  0.112641  0  1.023008  0  0  0.114896  0  1.022037  0  0  0.106369  0.110894  0  1.023835  0
H  H12  1  0.71967400  0.80123377  0.58291062  1  0  0.103105  0  0.959631  0  0  0.112647  0  1.023021  0  0  0.114903  0  1.02205  0  0  0.106367  0.1109  0  1.023848  0
H  H13  1  0.78032529  0.08291039  0.30123456  1  0  0.103072  0  0.959687  0  0  0.112617  0  1.023077  0  0  0.114871  0  1.022105  0  0  0.106345  0.110869  0  1.023906  0
H  H14  1  0.78032516  0.30123340  0.08291021  1  0  0.103079  0  0.959619  0  0  0.11262  0  1.023017  0  0  0.114882  0  1.022038  0  0  0.106354  0.110872  0  1.023844  0
H  H15  1  0.71967413  0.58291076  0.80123424  1  0  0.103097  0  0.959639  0  0  0.112644  0  1.023026  0  0  0.114899  0  1.022054  0  0  0.106367  0.110897  0  1.023851  0
H  H16  1  0.28032582  0.19876602  0.41709000  1  0  0.103105  0  0.959633  0  0  0.112649  0  1.023017  0  0  0.114905  0  1.022045  0  0  0.106368  0.110901  0  1.023845  0
H  H17  1  0.21967453  0.91708940  0.69876606  1  0  0.103073  0  0.959654  0  0  0.11261  0  1.023055  0  0  0.114873  0  1.022074  0  0  0.10634  0.110862  0  1.023882  0
H  H18  1  0.10234874  0.62839622  0.73903894  1  0  0.078867  0  0.964865  0  0  0.081325  0  1.04303  0  0  0.08379  0  1.040788  0  0  0.108369  0.079485  0  1.044627  0
H  H19  1  0.39765167  0.23903876  0.12839576  1  0  0.078874  0  0.964847  0  0  0.08135  0  1.042993  0  0  0.083817  0  1.040751  0  0  0.108376  0.079507  0  1.044599  0
H  H20  1  0.60234808  0.87160398  0.76096135  1  0  0.078863  0  0.96486  0  0  0.081339  0  1.043006  0  0  0.083806  0  1.040763  0  0  0.108379  0.079495  0  1.044615  0
H  H21  1  0.89765115  0.26096063  0.37160372  1  0  0.078861  0  0.964857  0  0  0.081328  0  1.043024  0  0  0.083793  0  1.040783  0  0  0.108375  0.079487  0  1.044625  0
H  H22  1  0.89765108  0.37160358  0.26096094  1  0  0.078883  0  0.964841  0  0  0.081346  0  1.042999  0  0  0.083811  0  1.040759  0  0  0.108368  0.079503  0  1.044605  0
H  H23  1  0.60234932  0.76096181  0.87160436  1  0  0.078887  0  0.964835  0  0  0.081351  0  1.042991  0  0  0.083817  0  1.040749  0  0  0.108377  0.079505  0  1.044604  0
H  H24  1  0.39765057  0.12839581  0.23903854  1  0  0.078876  0  0.964853  0  0  0.081335  0  1.043014  0  0  0.083801  0  1.040771  0  0  0.108378  0.079493  0  1.044617  0
H  H25  1  0.10234867  0.73903839  0.62839520  1  0  0.078889  0  0.964847  0  0  0.081343  0  1.043019  0  0  0.083809  0  1.040778  0  0  0.108378  0.079502  0  1.044619  0
H  H26  1  0.20140117  0.33079177  0.55543992  1  0  0.075391  0  0.964801  0  0  0.085156  0  1.028942  0  0  0.086667  0  1.028519  0  0  0.112246  0.084049  0  1.029251  0
H  H27  1  0.29859954  0.05544105  0.83079216  1  0  0.075419  0  0.964798  0  0  0.085203  0  1.028912  0  0  0.086714  0  1.028489  0  0  0.112265  0.084098  0  1.029221  0
H  H28  1  0.70140075  0.16920826  0.94455976  1  0  0.075389  0  0.964795  0  0  0.085155  0  1.028937  0  0  0.086665  0  1.028514  0  0  0.11225  0.084047  0  1.029245  0
H  H29  1  0.79859878  0.44455972  0.66920776  1  0  0.075408  0  0.964794  0  0  0.085192  0  1.028915  0  0  0.086703  0  1.028492  0  0  0.112255  0.084085  0  1.029224  0
H  H30  1  0.79859982  0.66920802  0.44455997  1  0  0.075403  0  0.964791  0  0  0.085186  0  1.028913  0  0  0.086698  0  1.028489  0  0  0.112254  0.084079  0  1.029223  0
H  H31  1  0.70140145  0.94455951  0.16920797  1  0  0.075395  0  0.964804  0  0  0.085177  0  1.028928  0  0  0.086688  0  1.028504  0  0  0.11225  0.08407  0  1.029237  0
H  H32  1  0.29860024  0.83079230  0.05544036  1  0  0.075411  0  0.964795  0  0  0.085195  0  1.028912  0  0  0.086706  0  1.028489  0  0  0.112255  0.08409  0  1.029222  0
H  H33  1  0.20140104  0.55544007  0.33079139  1  0  0.075406  0  0.964788  0  0  0.08519  0  1.028911  0  0  0.086702  0  1.028488  0  0  0.112257  0.084084  0  1.029219  0
H  H34  1  0.36718410  0.29426624  0.69220545  1  0  0.119473  0  0.947557  0  0  0.12846  0  1.009436  0  0  0.132509  0  1.007044  0  0  0.110737  0.125575  0  1.011268  0
H  H35  1  0.13281659  0.19220562  0.79426573  1  0  0.11947  0  0.947565  0  0  0.128455  0  1.009448  0  0  0.132504  0  1.007057  0  0  0.110723  0.125566  0  1.011285  0
H  H36  1  0.86718359  0.20573451  0.80779521  1  0  0.119469  0  0.947546  0  0  0.128453  0  1.00943  0  0  0.132502  0  1.007039  0  0  0.110729  0.125568  0  1.011263  0
H  H37  1  0.63281596  0.30779520  0.70573418  1  0  0.119471  0  0.94756  0  0  0.12846  0  1.009433  0  0  0.132509  0  1.007041  0  0  0.110737  0.125575  0  1.011265  0
H  H38  1  0.63281689  0.70573432  0.30779541  1  0  0.119478  0  0.947553  0  0  0.128464  0  1.009435  0  0  0.132513  0  1.007043  0  0  0.110734  0.12558  0  1.011267  0
H  H39  1  0.86718440  0.80779495  0.20573513  1  0  0.11946  0  0.94755  0  0  0.128445  0  1.009432  0  0  0.132494  0  1.007042  0  0  0.110723  0.125561  0  1.011265  0
H  H40  1  0.13281622  0.79426529  0.19220541  1  0  0.119467  0  0.947547  0  0  0.128452  0  1.00943  0  0  0.132501  0  1.007038  0  0  0.110723  0.125569  0  1.011262  0
H  H41  1  0.36718386  0.69220459  0.29426570  1  0  0.119463  0  0.947575  0  0  0.128449  0  1.009451  0  0  0.132498  0  1.00706  0  0  0.110735  0.125566  0  1.011283  0
C  C42  1  0.29624917  0.36745474  0.36745439  1  0  0.277068  0  4.104682  0  0  0.261241  0  4.407318  0  0  0.285004  0  4.419117  0  0  0.125556  0.24515  0  4.398637  0
C  C43  1  0.20374998  0.86745512  0.86745554  1  0  0.277082  0  4.104638  0  0  0.261261  0  4.407264  0  0  0.285024  0  4.419066  0  0  0.125549  0.245171  0  4.398586  0
C  C44  1  0.79624750  0.13254468  0.13254508  1  0  0.277146  0  4.104709  0  0  0.261314  0  4.407345  0  0  0.285077  0  4.419146  0  0  0.12557  0.245223  0  4.398665  0
C  C45  1  0.70375064  0.63254505  0.63254549  1  0  0.277132  0  4.104728  0  0  0.261304  0  4.407362  0  0  0.285068  0  4.419159  0  0  0.125584  0.245213  0  4.398683  0
C  C46  1  0.44829271  0.50988293  0.96016457  1  0  0.195567  0  3.753887  0  0  0.195041  0  3.998557  0  0  0.203395  0  4.015956  0  0  0.132742  0.189628  0  3.986513  0
C  C47  1  0.05170650  0.46016379  0.00988397  1  0  0.195562  0  3.753916  0  0  0.195058  0  3.998533  0  0  0.203411  0  4.015934  0  0  0.132764  0.189646  0  3.986487  0
C  C48  1  0.94829304  0.99011716  0.53983574  1  0  0.195588  0  3.753894  0  0  0.195055  0  3.998559  0  0  0.203409  0  4.015958  0  0  0.132759  0.189642  0  3.986513  0
C  C49  1  0.55170621  0.03983571  0.49011696  1  0  0.195521  0  3.753955  0  0  0.195043  0  3.998563  0  0  0.203397  0  4.015961  0  0  0.132756  0.18963  0  3.986517  0
C  C50  1  0.55170711  0.49011686  0.03983605  1  0  0.19559  0  3.753865  0  0  0.195066  0  3.998526  0  0  0.20342  0  4.015926  0  0  0.132774  0.189655  0  3.986479  0
C  C51  1  0.94829214  0.53983601  0.99011665  1  0  0.195538  0  3.753907  0  0  0.195023  0  3.998549  0  0  0.203376  0  4.015949  0  0  0.132747  0.189611  0  3.986503  0
C  C52  1  0.05170678  0.00988340  0.46016438  1  0  0.195494  0  3.753978  0  0  0.194998  0  3.998609  0  0  0.203352  0  4.016009  0  0  0.132737  0.189587  0  3.986562  0
C  C53  1  0.44829244  0.96016409  0.50988293  1  0  0.195595  0  3.753881  0  0  0.195056  0  3.998541  0  0  0.203409  0  4.015939  0  0  0.132755  0.189643  0  3.986494  0
C  C54  1  0.37327170  0.60744682  0.98042044  1  0  -0.142125  0  3.698851  0  0  -0.162764  0  3.953237  0  0  -0.17099  0  3.97397  0  0  -0.083221  -0.157476  0  3.93935  0
C  C55  1  0.12672866  0.48041930  0.10744812  1  0  -0.142055  0  3.698749  0  0  -0.162678  0  3.953118  0  0  -0.170904  0  3.973851  0  0  -0.083213  -0.157375  0  3.93924  0
C  C56  1  0.87327094  0.89255253  0.51957964  1  0  -0.142056  0  3.698795  0  0  -0.162694  0  3.95319  0  0  -0.170921  0  3.973923  0  0  -0.083212  -0.157405  0  3.939301  0
C  C57  1  0.62672951  0.01957940  0.39255257  1  0  -0.142131  0  3.698827  0  0  -0.162778  0  3.953211  0  0  -0.171004  0  3.973941  0  0  -0.083239  -0.157491  0  3.939326  0
C  C58  1  0.62672811  0.39255221  0.01958068  1  0  -0.142079  0  3.698729  0  0  -0.162705  0  3.953111  0  0  -0.170933  0  3.973846  0  0  -0.083219  -0.157402  0  3.939229  0
C  C59  1  0.87327116  0.51958126  0.89255200  1  0  -0.142027  0  3.698759  0  0  -0.162661  0  3.953147  0  0  -0.170888  0  3.973879  0  0  -0.08322  -0.157357  0  3.939266  0
C  C60  1  0.12672888  0.10744727  0.48042025  1  0  -0.142047  0  3.698795  0  0  -0.162695  0  3.953183  0  0  -0.170921  0  3.973914  0  0  -0.083219  -0.157405  0  3.93929  0
C  C61  1  0.37327148  0.98042040  0.60744658  1  0  -0.142127  0  3.698815  0  0  -0.16277  0  3.953214  0  0  -0.170997  0  3.973949  0  0  -0.083217  -0.15748  0  3.939321  0
C  C62  1  0.27943902  0.62534755  0.90591652  1  0  -0.025666  0  3.687729  0  0  -0.050915  0  3.935513  0  0  -0.0478  0  3.954858  0  0  -0.060278  -0.05263  0  3.922454  0
C  C63  1  0.22056369  0.40591471  0.12534708  1  0  -0.025734  0  3.68776  0  0  -0.051031  0  3.935551  0  0  -0.047916  0  3.954897  0  0  -0.060315  -0.052744  0  3.922487  0
C  C64  1  0.77943947  0.87465259  0.59408378  1  0  -0.025777  0  3.687811  0  0  -0.051062  0  3.93559  0  0  -0.047947  0  3.954937  0  0  -0.060332  -0.052777  0  3.922531  0
C  C65  1  0.72056096  0.09408396  0.37465289  1  0  -0.025702  0  3.687861  0  0  -0.050983  0  3.935641  0  0  -0.047867  0  3.954985  0  0  -0.060297  -0.052699  0  3.92258  0
C  C66  1  0.72056196  0.37465224  0.09408484  1  0  -0.025729  0  3.687643  0  0  -0.051015  0  3.935436  0  0  -0.047908  0  3.95478  0  0  -0.060326  -0.05273  0  3.922372  0
C  C67  1  0.77943730  0.59408508  0.87465280  1  0  -0.025786  0  3.68781  0  0  -0.051081  0  3.935606  0  0  -0.047966  0  3.954953  0  0  -0.060334  -0.052794  0  3.922542  0
C  C68  1  0.22056152  0.12534720  0.40591610  1  0  -0.025762  0  3.687778  0  0  -0.051045  0  3.935559  0  0  -0.04793  0  3.954904  0  0  -0.060325  -0.05276  0  3.922496  0
C  C69  1  0.27943885  0.90591583  0.62534700  1  0  -0.025674  0  3.687798  0  0  -0.050949  0  3.935551  0  0  -0.04784  0  3.954893  0  0  -0.060289  -0.052664  0  3.922491  0
C  C70  1  0.16538389  0.55620599  0.73012776  1  0  0.124092  0  3.65872  0  0  0.087424  0  3.908268  0  0  0.096585  0  3.924011  0  0  0.064869  0.08162  0  3.897543  0
C  C71  1  0.33461654  0.23012763  0.05620531  1  0  0.124077  0  3.658792  0  0  0.087387  0  3.908352  0  0  0.096549  0  3.924094  0  0  0.064889  0.081584  0  3.897622  0
C  C72  1  0.66538434  0.94379497  0.76987277  1  0  0.124145  0  3.658712  0  0  0.087446  0  3.908272  0  0  0.096607  0  3.924015  0  0  0.064887  0.081641  0  3.897545  0
C  C73  1  0.83461604  0.26987254  0.44379440  1  0  0.12418  0  3.658649  0  0  0.087479  0  3.908237  0  0  0.096639  0  3.923981  0  0  0.064917  0.081674  0  3.897509  0
C  C74  1  0.83461593  0.44379458  0.26987236  1  0  0.124054  0  3.658734  0  0  0.087379  0  3.908287  0  0  0.096537  0  3.924032  0  0  0.064862  0.081575  0  3.897561  0
C  C75  1  0.66538445  0.76987293  0.94379481  1  0  0.124091  0  3.658637  0  0  0.087411  0  3.9082  0  0  0.096571  0  3.923945  0  0  0.064872  0.081609  0  3.897473  0
C  C76  1  0.33461665  0.05620560  0.23012735  1  0  0.124155  0  3.658696  0  0  0.087481  0  3.908241  0  0  0.096643  0  3.923982  0  0  0.064918  0.081678  0  3.897513  0
C  C77  1  0.16538378  0.73012725  0.55620475  1  0  0.124088  0  3.658725  0  0  0.087402  0  3.90828  0  0  0.096563  0  3.924023  0  0  0.06487  0.081599  0  3.897554  0
C  C78  1  0.22099194  0.38882953  0.62980421  1  0  0.119952  0  3.726745  0  0  0.089045  0  3.977294  0  0  0.094489  0  3.998561  0  0  0.035799  0.085506  0  3.963006  0
C  C79  1  0.27900874  0.12980434  0.88882901  1  0  0.119922  0  3.726768  0  0  0.089008  0  3.977311  0  0  0.09445  0  3.998577  0  0  0.035809  0.085462  0  3.963034  0
C  C80  1  0.72099154  0.11117049  0.87019547  1  0  0.119953  0  3.726704  0  0  0.089047  0  3.977252  0  0  0.094491  0  3.998518  0  0  0.035788  0.085507  0  3.962968  0
C  C81  1  0.77900802  0.37019567  0.61117067  1  0  0.119926  0  3.726736  0  0  0.089005  0  3.977281  0  0  0.094447  0  3.99855  0  0  0.035794  0.085463  0  3.963  0
C  C82  1  0.77900788  0.61117103  0.37019591  1  0  0.119939  0  3.726712  0  0  0.089017  0  3.977258  0  0  0.09446  0  3.998525  0  0  0.035788  0.085475  0  3.962981  0
C  C83  1  0.72099225  0.87019623  0.11117111  1  0  0.119926  0  3.726717  0  0  0.089005  0  3.977266  0  0  0.094448  0  3.998532  0  0  0.035785  0.085463  0  3.962989  0
C  C84  1  0.27900828  0.88882853  0.12980418  1  0  0.119904  0  3.726776  0  0  0.088984  0  3.977323  0  0  0.094427  0  3.99859  0  0  0.035777  0.085436  0  3.963056  0
C  C85  1  0.22099180  0.62980412  0.38882848  1  0  0.119904  0  3.726769  0  0  0.088981  0  3.977307  0  0  0.094423  0  3.998576  0  0  0.035773  0.085436  0  3.963037  0
C  C86  1  0.31288976  0.36945681  0.70453687  1  0  -0.181568  0  3.697437  0  0  -0.200998  0  3.949117  0  0  -0.209124  0  3.969596  0  0  -0.080859  -0.195733  0  3.935364  0
C  C87  1  0.18711091  0.20453738  0.86945677  1  0  -0.181588  0  3.697467  0  0  -0.200977  0  3.949167  0  0  -0.209105  0  3.969652  0  0  -0.080861  -0.195707  0  3.935415  0
C  C88  1  0.81289048  0.13054319  0.79546282  1  0  -0.181564  0  3.69741  0  0  -0.200993  0  3.949089  0  0  -0.20912  0  3.969569  0  0  -0.080853  -0.195728  0  3.935338  0
C  C89  1  0.68711026  0.29546343  0.63054314  1  0  -0.181565  0  3.697448  0  0  -0.200992  0  3.949133  0  0  -0.209119  0  3.969614  0  0  -0.080855  -0.195727  0  3.93538  0
C  C90  1  0.68711006  0.63054299  0.29546302  1  0  -0.181578  0  3.697442  0  0  -0.201005  0  3.949124  0  0  -0.209133  0  3.969606  0  0  -0.080859  -0.19574  0  3.935373  0
C  C91  1  0.81289008  0.79546319  0.13054335  1  0  -0.181543  0  3.697415  0  0  -0.200972  0  3.949096  0  0  -0.209099  0  3.969579  0  0  -0.080844  -0.195706  0  3.935346  0
C  C92  1  0.18711051  0.86945660  0.20453633  1  0  -0.181571  0  3.697472  0  0  -0.200991  0  3.949149  0  0  -0.209116  0  3.969628  0  0  -0.080849  -0.195723  0  3.935397  0
C  C93  1  0.31288956  0.70453714  0.36945625  1  0  -0.181561  0  3.697525  0  0  -0.200956  0  3.949227  0  0  -0.209084  0  3.969711  0  0  -0.080856  -0.195691  0  3.935475  0
C  C94  1  0.33728025  0.44937828  0.79849184  1  0  0.235163  0  3.79658  0  0  0.230845  0  4.041477  0  0  0.239526  0  4.060987  0  0  0.120737  0.225258  0  4.028165  0
C  C95  1  0.16271921  0.29849275  0.94937826  1  0  0.235224  0  3.796491  0  0  0.230804  0  4.041535  0  0  0.239483  0  4.061047  0  0  0.120748  0.225219  0  4.028221  0
C  C96  1  0.83727983  0.05062248  0.70150809  1  0  0.235148  0  3.796572  0  0  0.230826  0  4.04146  0  0  0.239507  0  4.06097  0  0  0.120733  0.22524  0  4.028148  0
C  C97  1  0.66271978  0.20150807  0.55062166  1  0  0.235174  0  3.796561  0  0  0.230856  0  4.041457  0  0  0.239537  0  4.060967  0  0  0.120744  0.22527  0  4.028142  0
C  C98  1  0.66271957  0.55062228  0.20150829  1  0  0.235162  0  3.796588  0  0  0.230843  0  4.041479  0  0  0.239522  0  4.060993  0  0  0.12074  0.225257  0  4.02817  0
C  C99  1  0.83727944  0.70150782  0.05062187  1  0  0.235183  0  3.796541  0  0  0.230874  0  4.041427  0  0  0.239554  0  4.060939  0  0  0.120744  0.225288  0  4.028119  0
C  C100  1  0.16271999  0.94937809  0.29849204  1  0  0.235185  0  3.79655  0  0  0.23085  0  4.041463  0  0  0.239531  0  4.060973  0  0  0.120735  0.225265  0  4.02815  0
C  C101  1  0.33728003  0.79849172  0.44937750  1  0  0.235193  0  3.796524  0  0  0.230774  0  4.041536  0  0  0.239454  0  4.061049  0  0  0.12074  0.225189  0  4.028223  0
C  C102  1  0.25947275  0.54545394  0.81162355  1  0  -0.03228  0  3.772919  0  0  -0.011507  0  3.998784  0  0  -0.018556  0  4.022624  0  0  -0.001712  -0.007267  0  3.982969  0
C  C103  1  0.24052766  0.31162388  0.04545347  1  0  -0.032263  0  3.772863  0  0  -0.011453  0  3.998768  0  0  -0.018497  0  4.022602  0  0  -0.001719  -0.007213  0  3.982954  0
C  C104  1  0.75947200  0.95454622  0.68837676  1  0  -0.03225  0  3.772892  0  0  -0.011448  0  3.998736  0  0  -0.018497  0  4.022578  0  0  -0.001706  -0.007208  0  3.982921  0
C  C105  1  0.74052723  0.18837633  0.45454624  1  0  -0.032286  0  3.772836  0  0  -0.011502  0  3.998715  0  0  -0.018549  0  4.022552  0  0  -0.001724  -0.007261  0  3.982898  0
C  C106  1  0.74052707  0.45454663  0.18837731  1  0  -0.032203  0  3.77287  0  0  -0.011425  0  3.998748  0  0  -0.018461  0  4.022567  0  0  -0.001671  -0.007184  0  3.982933  0
C  C107  1  0.75947216  0.68837669  0.95454665  1  0  -0.032236  0  3.772868  0  0  -0.011453  0  3.998739  0  0  -0.018497  0  4.022568  0  0  -0.001701  -0.007214  0  3.982928  0
C  C108  1  0.24052782  0.04545358  0.31162313  1  0  -0.032277  0  3.772903  0  0  -0.011476  0  3.998743  0  0  -0.018529  0  4.022592  0  0  -0.001719  -0.007235  0  3.982926  0
C  C109  1  0.25947259  0.81162346  0.54545365  1  0  -0.032289  0  3.772862  0  0  -0.011452  0  3.998705  0  0  -0.018492  0  4.022532  0  0  -0.001713  -0.007213  0  3.98289  0
S  S110  1  0.47842576  0.34078237  0.34078239  1  0  -0.357725  0  1.998826  0  0  -0.341167  0  2.275461  0  0  -0.356995  0  2.274084  0  0  -0.181543  -0.329678  0  2.275873  0
S  S111  1  0.02157341  0.84078203  0.84078256  1  0  -0.35774  0  1.998803  0  0  -0.341178  0  2.275428  0  0  -0.357005  0  2.274054  0  0  -0.18155  -0.329687  0  2.27584  0
S  S112  1  0.97842641  0.15921776  0.15921733  1  0  -0.357772  0  1.998754  0  0  -0.341214  0  2.275395  0  0  -0.357041  0  2.274018  0  0  -0.181573  -0.329724  0  2.27581  0
S  S113  1  0.52157406  0.65921819  0.65921773  1  0  -0.357743  0  1.998791  0  0  -0.341185  0  2.275426  0  0  -0.357012  0  2.274047  0  0  -0.181555  -0.329693  0  2.27584  0
N  N114  1  0.16034319  0.38465024  0.38465009  1  0  -0.5948  0  2.873623  0  0  -0.53747  0  3.156641  0  0  -0.559286  0  3.160771  0  0  -0.424169  -0.522274  0  3.153384  0
N  N115  1  0.33965596  0.88465057  0.88465051  1  0  -0.594803  0  2.8736  0  0  -0.537479  0  3.156622  0  0  -0.559294  0  3.160754  0  0  -0.424148  -0.522282  0  3.153367  0
N  N116  1  0.66034620  0.11534922  0.11535011  1  0  -0.59481  0  2.873691  0  0  -0.537467  0  3.156681  0  0  -0.559282  0  3.160813  0  0  -0.424126  -0.52227  0  3.153422  0
N  N117  1  0.83965546  0.61534956  0.61534980  1  0  -0.594831  0  2.873706  0  0  -0.537498  0  3.156715  0  0  -0.559314  0  3.160844  0  0  -0.424156  -0.522302  0  3.153459  0
N  N118  1  0.43171655  0.43313533  0.87233203  1  0  -0.374052  0  3.015881  0  0  -0.344568  0  3.277895  0  0  -0.356829  0  3.291031  0  0  -0.307137  -0.336236  0  3.268749  0
N  N119  1  0.06828290  0.37233269  0.93313534  1  0  -0.374043  0  3.01595  0  0  -0.344541  0  3.278  0  0  -0.356802  0  3.291138  0  0  -0.307125  -0.336207  0  3.26885  0
N  N120  1  0.93171609  0.06686463  0.62766766  1  0  -0.374064  0  3.015915  0  0  -0.344584  0  3.277939  0  0  -0.356846  0  3.291076  0  0  -0.307153  -0.336254  0  3.268795  0
N  N121  1  0.56828354  0.12766739  0.56686507  1  0  -0.374028  0  3.015894  0  0  -0.344562  0  3.277898  0  0  -0.356825  0  3.291035  0  0  -0.307135  -0.336232  0  3.268754  0
N  N122  1  0.56828327  0.56686523  0.12766809  1  0  -0.374073  0  3.01589  0  0  -0.344591  0  3.277911  0  0  -0.356854  0  3.291049  0  0  -0.307152  -0.336261  0  3.26877  0
N  N123  1  0.93171692  0.62766788  0.06686552  1  0  -0.374088  0  3.015892  0  0  -0.344614  0  3.277902  0  0  -0.356876  0  3.291039  0  0  -0.307141  -0.336285  0  3.268764  0
N  N124  1  0.06828256  0.93313439  0.37233199  1  0  -0.374035  0  3.015898  0  0  -0.344561  0  3.277914  0  0  -0.356823  0  3.29105  0  0  -0.307125  -0.336234  0  3.268775  0
N  N125  1  0.43171628  0.87233164  0.43313458  1  0  -0.374079  0  3.01588  0  0  -0.344571  0  3.27794  0  0  -0.356833  0  3.291078  0  0  -0.307163  -0.336241  0  3.268796  0
N  N126  1  0.14837255  0.48098280  0.64205318  1  0  -0.319647  0  3.254261  0  0  -0.245366  0  3.520216  0  0  -0.264535  0  3.539113  0  0  -0.325307  -0.232414  0  3.50706  0
N  N127  1  0.35162811  0.14205353  0.98098277  1  0  -0.319638  0  3.254346  0  0  -0.245366  0  3.520334  0  0  -0.264534  0  3.539231  0  0  -0.325337  -0.232411  0  3.507174  0
N  N128  1  0.64837339  0.01901802  0.85794673  1  0  -0.319633  0  3.25424  0  0  -0.245349  0  3.520203  0  0  -0.264518  0  3.539101  0  0  -0.325275  -0.232391  0  3.507033  0
N  N129  1  0.85162737  0.35794645  0.51901692  1  0  -0.319676  0  3.254315  0  0  -0.245391  0  3.5203  0  0  -0.26456  0  3.539198  0  0  -0.325342  -0.232438  0  3.507145  0
N  N130  1  0.85162727  0.51901776  0.35794694  1  0  -0.319635  0  3.254245  0  0  -0.245352  0  3.520211  0  0  -0.264523  0  3.539111  0  0  -0.325288  -0.232395  0  3.507043  0
N  N131  1  0.64837288  0.85794703  0.01901809  1  0  -0.319619  0  3.254242  0  0  -0.245337  0  3.520211  0  0  -0.264508  0  3.539111  0  0  -0.325275  -0.232378  0  3.507042  0
N  N132  1  0.35162760  0.98098255  0.14205339  1  0  -0.319627  0  3.254253  0  0  -0.245358  0  3.520233  0  0  -0.264526  0  3.539129  0  0  -0.3253  -0.232406  0  3.50708  0
N  N133  1  0.14837245  0.64205334  0.48098223  1  0  -0.319603  0  3.25422  0  0  -0.245322  0  3.520193  0  0  -0.264491  0  3.539092  0  0  -0.325273  -0.232367  0  3.50703  0
