# generated using pymatgen
data_CdH11C15I(N2O)2
_symmetry_space_group_name_H-M   'P 1'
_cell_length_a   6.62462093
_cell_length_b   12.25440689
_cell_length_c   22.79730200
_cell_angle_alpha   98.70686643
_cell_angle_beta   90.00691844
_cell_angle_gamma   105.68393513
_symmetry_Int_Tables_number   1
_chemical_formula_structural   CdH11C15I(N2O)2
_chemical_formula_sum   'Cd4 H44 C60 I4 N16 O8'
_cell_volume   1759.62447805
_cell_formula_units_Z   4
loop_
 _symmetry_equiv_pos_site_id
 _symmetry_equiv_pos_as_xyz
  1  'x, y, z'
loop_
 _atom_site_type_symbol
 _atom_site_label
 _atom_site_symmetry_multiplicity
 _atom_site_fract_x
 _atom_site_fract_y
 _atom_site_fract_z
 _atom_site_occupancy
 _atom_site_pbe_bader_charge
 _atom_site_pbe_bader_spin_density
 _atom_site_pbe_cm5_charge
 _atom_site_pbe_ddec_charge
 _atom_site_pbe_ddec_spin_density
 _atom_site_pbe_ddec_sum_bond_order
 _atom_site_pbe_magmom
Cd  Cd0  1  0.34572846  0.83059607  0.46883585  1  1.070053  0  0.61122  0.693227  0  2.408781  0
Cd  Cd1  1  0.51559225  0.16942644  0.03122424  1  1.071921  0  0.611382  0.69361  0  2.406504  0
Cd  Cd2  1  0.65426494  0.16940288  0.53116669  1  1.06996  0  0.611222  0.69323  0  2.408797  0
Cd  Cd3  1  0.48442701  0.83057592  0.96877768  1  1.071756  0  0.611364  0.693641  0  2.406602  0
H  H4  1  0.52567820  0.12467661  0.24631667  1  0.102214  0  0.104608  0.108065  0  1.010547  0
H  H5  1  0.40119854  0.87488833  0.25348857  1  0.103682  0  0.10412  0.10692  0  1.010627  0
H  H6  1  0.47432677  0.87533944  0.75368412  1  0.102037  0  0.104619  0.108045  0  1.010708  0
H  H7  1  0.59880870  0.12510210  0.74651683  1  0.103503  0  0.104147  0.106966  0  1.010608  0
H  H8  1  0.37246574  0.13919539  0.34812672  1  0.119144  0  0.095846  0.112123  0  1.041491  0
H  H9  1  0.23295865  0.86033936  0.15172100  1  0.131207  0  0.095539  0.112111  0  1.042665  0
H  H10  1  0.62752415  0.86081467  0.65187404  1  0.119167  0  0.095846  0.112063  0  1.041607  0
H  H11  1  0.76706365  0.13966305  0.84828356  1  0.131733  0  0.095482  0.112049  0  1.042686  0
H  H12  1  0.95958506  0.31954562  0.28658810  1  0.078186  0  0.109709  0.120626  0  0.981113  0
H  H13  1  0.63991734  0.68033617  0.21351828  1  0.086826  0  0.109927  0.120183  0  0.98251  0
H  H14  1  0.04037898  0.68044292  0.71340794  1  0.078246  0  0.109706  0.120603  0  0.981066  0
H  H15  1  0.36009131  0.31966612  0.78647969  1  0.08673  0  0.109944  0.120205  0  0.98248  0
H  H16  1  0.10489538  0.29895028  0.18523812  1  0.109821  0  0.106704  0.110646  0  1.025317  0
H  H17  1  0.80640559  0.70103611  0.31479960  1  0.120142  0  0.106889  0.110224  0  1.0256  0
H  H18  1  0.89508762  0.70105204  0.81476117  1  0.11005  0  0.106762  0.110728  0  1.025219  0
H  H19  1  0.19358518  0.29896363  0.68519994  1  0.120072  0  0.106897  0.110235  0  1.025615  0
H  H20  1  0.87578978  0.99945475  0.37380760  1  0.092938  0  0.102222  0.16991  0  0.973132  0
H  H21  1  0.87635901  0.00013547  0.12662518  1  0.09626  0  0.102043  0.16943  0  0.974108  0
H  H22  1  0.12418422  0.00054164  0.62619563  1  0.092708  0  0.102257  0.169949  0  0.973195  0
H  H23  1  0.12366433  0.99986600  0.87337536  1  0.095766  0  0.102034  0.169427  0  0.974031  0
H  H24  1  0.77043562  0.06653659  0.32212817  1  0.038654  0  0.099745  0.148803  0  0.986066  0
H  H25  1  0.70220491  0.93282246  0.17787807  1  0.037187  0  0.099574  0.1486  0  0.986533  0
H  H26  1  0.22954289  0.93345371  0.67787064  1  0.038742  0  0.099706  0.148736  0  0.985997  0
H  H27  1  0.29781800  0.06717816  0.82212240  1  0.037392  0  0.099551  0.14855  0  0.986545  0
H  H28  1  0.63648615  0.03509096  0.38824753  1  0.132518  0  0.091186  0.149639  0  1.056081  0
H  H29  1  0.60169482  0.96491845  0.11163232  1  0.12267  0  0.091144  0.149737  0  1.056834  0
H  H30  1  0.36348198  0.96490275  0.61174978  1  0.132268  0  0.091184  0.149679  0  1.056131  0
H  H31  1  0.39832895  0.03508389  0.88836828  1  0.122806  0  0.091094  0.149656  0  1.056854  0
H  H32  1  0.54955734  0.36309602  0.38135790  1  0.081764  0  0.105753  0.107622  0  1.008083  0
H  H33  1  0.18681066  0.63721206  0.11841581  1  0.075916  0  0.106128  0.1084  0  1.006784  0
H  H34  1  0.45043625  0.63690030  0.61864180  1  0.081708  0  0.105795  0.107642  0  1.008165  0
H  H35  1  0.81320345  0.36278605  0.88158842  1  0.076052  0  0.106117  0.108445  0  1.006649  0
H  H36  1  0.82654018  0.55185595  0.38357257  1  0.114798  0  0.110411  0.119579  0  0.99789  0
H  H37  1  0.27564478  0.44868111  0.11633360  1  0.080279  0  0.110453  0.119528  0  0.997988  0
H  H38  1  0.17344864  0.44814291  0.61642558  1  0.114677  0  0.110402  0.119629  0  0.997834  0
H  H39  1  0.72436974  0.55131783  0.88366850  1  0.080363  0  0.110428  0.119518  0  0.998021  0
H  H40  1  0.74180854  0.73243653  0.42422321  1  0.149629  0  0.112664  0.094876  0  1.021943  0
H  H41  1  0.01075532  0.26788400  0.07576191  1  0.158876  0  0.113101  0.095199  0  1.021339  0
H  H42  1  0.25817641  0.26756062  0.57577480  1  0.149553  0  0.112696  0.094941  0  1.021854  0
H  H43  1  0.98927119  0.73211476  0.92423053  1  0.158853  0  0.113104  0.095135  0  1.021459  0
H  H44  1  0.13747563  0.55815214  0.46165092  1  0.159931  0  0.113553  0.080637  0  1.061109  0
H  H45  1  0.58016923  0.44156023  0.03793327  1  0.173976  0  0.113521  0.081439  0  1.060892  0
H  H46  1  0.86251191  0.44184416  0.53834747  1  0.160036  0  0.113534  0.080641  0  1.06111  0
H  H47  1  0.41985085  0.55844380  0.96206615  1  0.173825  0  0.113517  0.081418  0  1.06085  0
C  C48  1  0.41876808  0.20337056  0.15006310  1  1.57238  0  0.18004  0.542085  0  4.247795  0
C  C49  1  0.21582447  0.79673409  0.34986929  1  1.565344  0  0.180247  0.540753  0  4.249342  0
C  C50  1  0.58122481  0.79663946  0.84993590  1  1.5724  0  0.180058  0.542101  0  4.247956  0
C  C51  1  0.78416936  0.20325969  0.65013242  1  1.565655  0  0.1802  0.540643  0  4.249665  0
C  C52  1  0.32757520  0.21313628  0.21049229  1  0.009598  0  -0.01273  -0.021213  0  3.947943  0
C  C53  1  0.11474189  0.78671419  0.28942504  1  -0.028567  0  -0.012353  -0.021505  0  3.948206  0
C  C54  1  0.67241403  0.78687547  0.78950729  1  0.008816  0  -0.012707  -0.021088  0  3.94789  0
C  C55  1  0.88525818  0.21328302  0.71057649  1  -0.028868  0  -0.012392  -0.021427  0  3.94829  0
C  C56  1  0.40179225  0.16710101  0.25605458  1  0.01272  0  -0.081418  -0.08226  0  3.966956  0
C  C57  1  0.23482330  0.83256343  0.24379890  1  -0.065059  0  -0.080841  -0.079552  0  3.966729  0
C  C58  1  0.59820280  0.83291333  0.74394607  1  0.013114  0  -0.081441  -0.08228  0  3.967018  0
C  C59  1  0.76518348  0.16743209  0.75620425  1  -0.064641  0  -0.080829  -0.079573  0  3.966699  0
C  C60  1  0.31875288  0.17560763  0.31220510  1  -0.076587  0  -0.090798  -0.164335  0  3.971965  0
C  C61  1  0.14304031  0.82400492  0.18767727  1  -0.022324  0  -0.090508  -0.165596  0  3.975818  0
C  C62  1  0.68122860  0.82440071  0.68779553  1  -0.076328  0  -0.09071  -0.164093  0  3.971642  0
C  C63  1  0.85697875  0.17599403  0.81232571  1  -0.022931  0  -0.090588  -0.165736  0  3.975712  0
C  C64  1  0.16265509  0.23261447  0.32255605  1  0.250431  0  0.088643  0.174248  0  4.023827  0
C  C65  1  0.92978493  0.76707839  0.17740142  1  0.226263  0  0.087902  0.173495  0  4.025073  0
C  C66  1  0.83731538  0.76738693  0.67744010  1  0.250633  0  0.088509  0.173955  0  4.023436  0
C  C67  1  0.07023390  0.23292312  0.82260088  1  0.226999  0  0.087988  0.173657  0  4.024845  0
C  C68  1  0.08387252  0.27709355  0.27743929  1  -0.018851  0  -0.087011  -0.16542  0  3.985934  0
C  C69  1  0.80673398  0.72273196  0.22257031  1  -0.025577  0  -0.087178  -0.165179  0  3.985441  0
C  C70  1  0.91609884  0.72290360  0.72255872  1  -0.019168  0  -0.086926  -0.165284  0  3.985636  0
C  C71  1  0.19327684  0.27726864  0.77742885  1  -0.026287  0  -0.087141  -0.165201  0  3.985318  0
C  C72  1  0.16576930  0.26634128  0.22128055  1  -0.074899  0  -0.076466  -0.069181  0  3.953977  0
C  C73  1  0.89968010  0.73355604  0.27871222  1  -0.014212  0  -0.077338  -0.068843  0  3.951302  0
C  C74  1  0.83420722  0.73366618  0.77871913  1  -0.074518  0  -0.076592  -0.069343  0  3.953983  0
C  C75  1  0.10031974  0.26644372  0.72128775  1  -0.014075  0  -0.077352  -0.068886  0  3.951332  0
C  C76  1  0.79075460  0.06381989  0.36964625  1  -0.058142  0  -0.234705  -0.469455  0  3.935054  0
C  C77  1  0.72653616  0.93585939  0.13042450  1  -0.056181  0  -0.23488  -0.469663  0  3.936474  0
C  C78  1  0.20921699  0.93617470  0.63035288  1  -0.057898  0  -0.234716  -0.469462  0  3.935113  0
C  C79  1  0.27349062  0.06414294  0.86957567  1  -0.055372  0  -0.234805  -0.46952  0  3.93644  0
C  C80  1  0.90887039  0.17737072  0.40163239  1  0.985185  0  0.229184  0.34588  0  3.961796  0
C  C81  1  0.73126515  0.82241728  0.09834479  1  1.011773  0  0.229731  0.345832  0  3.962241  0
C  C82  1  0.09110290  0.82262728  0.59836525  1  0.98486  0  0.229265  0.345964  0  3.96181  0
C  C83  1  0.26876055  0.17758590  0.90165500  1  1.011085  0  0.229483  0.345494  0  3.96235  0
C  C84  1  0.14745396  0.34390280  0.42413631  1  0.941043  0  0.223046  0.219242  0  4.028388  0
C  C85  1  0.80340930  0.65597048  0.07574658  1  0.945224  0  0.2239  0.220232  0  4.026636  0
C  C86  1  0.85252517  0.65609177  0.57586151  1  0.941177  0  0.22311  0.219496  0  4.028109  0
C  C87  1  0.19661856  0.34403096  0.92425221  1  0.944992  0  0.223879  0.220281  0  4.026671  0
C  C88  1  0.32043347  0.44602871  0.42109741  1  0.046741  0  -0.00327  -0.01841  0  4.015807  0
C  C89  1  0.87471776  0.55394882  0.07869096  1  0.02268  0  -0.003328  -0.017574  0  4.017299  0
C  C90  1  0.67954825  0.55396500  0.57890034  1  0.046952  0  -0.003316  -0.01849  0  4.01573  0
C  C91  1  0.12530733  0.44605011  0.92131115  1  0.02319  0  -0.003345  -0.017506  0  4.017073  0
C  C92  1  0.51695846  0.44426577  0.39852705  1  -0.064577  0  -0.06512  -0.066386  0  3.930948  0
C  C93  1  0.07318174  0.55594156  0.10126580  1  -0.041268  0  -0.065359  -0.06694  0  3.927529  0
C  C94  1  0.48303146  0.55573227  0.60147279  1  -0.064228  0  -0.065128  -0.066363  0  3.93084  0
C  C95  1  0.92683968  0.44405909  0.89873643  1  -0.041058  0  -0.065261  -0.066907  0  3.927119  0
C  C96  1  0.67018679  0.54793153  0.39960651  1  -0.046911  0  -0.080124  -0.117847  0  3.967016  0
C  C97  1  0.12310373  0.45238863  0.10024956  1  0.050313  0  -0.080185  -0.118309  0  3.965377  0
C  C98  1  0.32979988  0.45206907  0.60039309  1  -0.046916  0  -0.080141  -0.117959  0  3.966814  0
C  C99  1  0.87691532  0.54761029  0.89975166  1  0.050261  0  -0.080307  -0.118628  0  3.965299  0
C  C100  1  0.62414771  0.65014934  0.42270861  1  0.513127  0  0.053156  0.101584  0  3.923266  0
C  C101  1  0.97509932  0.35004295  0.07717154  1  0.434267  0  0.05313  0.101943  0  3.916806  0
C  C102  1  0.37584219  0.34984868  0.57728991  1  0.512872  0  0.053163  0.101637  0  3.92303  0
C  C103  1  0.02492635  0.64996017  0.92282518  1  0.434527  0  0.053235  0.102236  0  3.916749  0
C  C104  1  0.28767951  0.55263853  0.44354881  1  0.482052  0  0.051929  0.064011  0  3.891957  0
C  C105  1  0.73585742  0.44724555  0.05614775  1  0.476424  0  0.050468  0.060513  0  3.894592  0
C  C106  1  0.71230845  0.44735862  0.55644920  1  0.481914  0  0.051965  0.06402  0  3.892034  0
C  C107  1  0.26416526  0.55275763  0.94385204  1  0.476833  0  0.050436  0.06046  0  3.894581  0
I  I108  1  0.73054399  0.93813018  0.53221263  1  -0.461616  0  -0.179542  -0.38355  0  1.644397  0
I  I109  1  0.79232439  0.06173493  0.96762729  1  -0.46185  0  -0.180309  -0.384445  0  1.642927  0
I  I110  1  0.26945323  0.06187037  0.46778389  1  -0.461603  0  -0.17955  -0.38355  0  1.644332  0
I  I111  1  0.20771193  0.93826836  0.03237866  1  -0.461828  0  -0.180277  -0.38443  0  1.64301  0
N  N112  1  0.08172409  0.24850617  0.38066368  1  -1.254374  0  -0.21818  -0.132997  0  3.714575  0
N  N113  1  0.83277674  0.75118679  0.11930773  1  -1.248759  0  -0.21814  -0.132066  0  3.715511  0
N  N114  1  0.91824942  0.75148924  0.61933333  1  -1.254814  0  -0.218026  -0.132954  0  3.714501  0
N  N115  1  0.16724702  0.24881554  0.88069244  1  -1.248786  0  -0.217939  -0.131876  0  3.715448  0
N  N116  1  0.87344686  0.22836182  0.45484925  1  -0.749682  0  -0.243771  -0.238178  0  3.431949  0
N  N117  1  0.64529760  0.77164962  0.04505620  1  -0.775297  0  -0.244002  -0.237949  0  3.431194  0
N  N118  1  0.12653788  0.77163793  0.54515072  1  -0.749461  0  -0.243927  -0.23836  0  3.43197  0
N  N119  1  0.35473801  0.22835526  0.95494285  1  -0.775784  0  -0.243907  -0.237649  0  3.430779  0
N  N120  1  0.02141243  0.33204567  0.46911314  1  -0.69217  0  -0.218707  -0.229594  0  3.218141  0
N  N121  1  0.68964306  0.66800710  0.03072119  1  -0.69293  0  -0.218227  -0.229488  0  3.220363  0
N  N122  1  0.97857125  0.66794894  0.53088687  1  -0.69199  0  -0.218725  -0.229636  0  3.217924  0
N  N123  1  0.31039059  0.33199689  0.96927560  1  -0.693044  0  -0.218263  -0.229665  0  3.22041  0
N  N124  1  0.43584590  0.65197166  0.44413790  1  -1.233405  0  -0.32477  -0.219212  0  3.500164  0
N  N125  1  0.78502877  0.34799925  0.05560705  1  -1.234454  0  -0.324394  -0.218498  0  3.494125  0
N  N126  1  0.56413820  0.34802379  0.55586086  1  -1.233315  0  -0.32481  -0.219336  0  3.500231  0
N  N127  1  0.21499197  0.65200306  0.94439224  1  -1.235193  0  -0.324403  -0.218514  0  3.494145  0
O  O128  1  0.33104518  0.23757694  0.10878830  1  -1.159164  0  -0.337073  -0.539203  0  2.22727  0
O  O129  1  0.09376598  0.76292246  0.39119030  1  -1.16557  0  -0.337209  -0.538424  0  2.226616  0
O  O130  1  0.66895440  0.76243739  0.89121192  1  -1.15905  0  -0.337078  -0.539172  0  2.227176  0
O  O131  1  0.90622764  0.23707391  0.60881204  1  -1.165429  0  -0.337171  -0.538367  0  2.226797  0
O  O132  1  0.57274780  0.16095144  0.14238662  1  -1.173191  0  -0.335313  -0.544887  0  2.155052  0
O  O133  1  0.41226212  0.83897278  0.35750613  1  -1.158453  0  -0.33559  -0.544833  0  2.1569  0
O  O134  1  0.42723931  0.83905004  0.85761392  1  -1.173351  0  -0.335335  -0.544951  0  2.155268  0
O  O135  1  0.58772978  0.16102017  0.64249682  1  -1.158439  0  -0.33557  -0.544827  0  2.156936  0
