# generated using pymatgen
data_Zn3H14C22(N2O3)3
_symmetry_space_group_name_H-M   'P 1'
_cell_length_a   10.18072816
_cell_length_b   13.72382408
_cell_length_c   19.55510131
_cell_angle_alpha   89.97675114
_cell_angle_beta   90.00079898
_cell_angle_gamma   90.00086452
_symmetry_Int_Tables_number   1
_chemical_formula_structural   Zn3H14C22(N2O3)3
_chemical_formula_sum   'Zn12 H56 C88 N24 O36'
_cell_volume   2732.20963397
_cell_formula_units_Z   4
loop_
 _symmetry_equiv_pos_site_id
 _symmetry_equiv_pos_as_xyz
  1  'x, y, z'
loop_
 _atom_site_type_symbol
 _atom_site_label
 _atom_site_symmetry_multiplicity
 _atom_site_fract_x
 _atom_site_fract_y
 _atom_site_fract_z
 _atom_site_occupancy
 _atom_site_pbe_bader_charge
 _atom_site_pbe_bader_spin_density
 _atom_site_pbe_cm5_charge
 _atom_site_pbe_ddec_charge
 _atom_site_pbe_ddec_spin_density
 _atom_site_pbe_ddec_sum_bond_order
 _atom_site_pbe_magmom
Zn  Zn0  1  0.56293518  0.39597109  0.80181399  1  1.239993  0  0.70588  0.696854  0  2.488801  0
Zn  Zn1  1  0.93690741  0.10289164  0.80166024  1  1.241863  0  0.707072  0.698779  0  2.496387  0
Zn  Zn2  1  0.43689879  0.89712227  0.69831917  1  1.241769  0  0.706954  0.698725  0  2.496725  0
Zn  Zn3  1  0.06294221  0.60403863  0.69820259  1  1.23995  0  0.705863  0.696794  0  2.488599  0
Zn  Zn4  1  0.43715139  0.60391033  0.19814876  1  1.239405  0  0.705869  0.696799  0  2.487437  0
Zn  Zn5  1  0.06289824  0.89707064  0.19836233  1  1.24187  0  0.706997  0.69877  0  2.496346  0
Zn  Zn6  1  0.56291373  0.10291581  0.30163947  1  1.242053  0  0.706981  0.698802  0  2.496305  0
Zn  Zn7  1  0.93714633  0.39608831  0.30186393  1  1.2396  0  0.705911  0.696876  0  2.487481  0
Zn  Zn8  1  0.24734815  0.25077499  0.57560765  1  1.351647  0  0.680967  0.97821  0  2.289919  0
Zn  Zn9  1  0.74731622  0.74924773  0.92439646  1  1.35168  0  0.680899  0.978182  0  2.289917  0
Zn  Zn10  1  0.75259698  0.74939278  0.42439750  1  1.35195  0  0.680871  0.977803  0  2.29011  0
Zn  Zn11  1  0.25256113  0.25060379  0.07562766  1  1.351321  0  0.681032  0.978133  0  2.28963  0
H  H12  1  0.26699793  0.31155356  0.44929872  1  0.66075  0  0.32839  0.407886  0  0.873533  0
H  H13  1  0.31544822  0.20272444  0.45308696  1  0.632671  0  0.329549  0.410312  0  0.870563  0
H  H14  1  0.81550836  0.79735957  0.04687575  1  0.632225  0  0.329268  0.409991  0  0.871092  0
H  H15  1  0.76712078  0.68852844  0.05071784  1  0.660781  0  0.328487  0.408086  0  0.873019  0
H  H16  1  0.73422215  0.68806926  0.55043957  1  0.625043  0  0.328562  0.40845  0  0.871846  0
H  H17  1  0.68458040  0.79681661  0.54715965  1  0.633496  0  0.329437  0.410528  0  0.871347  0
H  H18  1  0.18451044  0.20310775  0.95288441  1  0.632604  0  0.329529  0.410316  0  0.87116  0
H  H19  1  0.23406297  0.31187535  0.94953275  1  0.624129  0  0.328663  0.40858  0  0.871766  0
H  H20  1  0.30956916  0.56311247  0.81698995  1  0.150273  0  0.139314  0.11045  0  0.960663  0
H  H21  1  0.19096552  0.93659088  0.81673764  1  0.151064  0  0.140305  0.11074  0  0.958741  0
H  H22  1  0.69099473  0.06342611  0.68324509  1  0.15047  0  0.140337  0.110829  0  0.958713  0
H  H23  1  0.80956470  0.43690001  0.68301870  1  0.150252  0  0.139319  0.110446  0  0.96083  0
H  H24  1  0.69045554  0.43678566  0.18313950  1  0.150337  0  0.139322  0.110392  0  0.9609  0
H  H25  1  0.80890005  0.06343406  0.18329310  1  0.136196  0  0.14036  0.110872  0  0.958725  0
H  H26  1  0.30891897  0.93654129  0.31671355  1  0.135156  0  0.140303  0.110678  0  0.958927  0
H  H27  1  0.19045410  0.56321679  0.31686373  1  0.150313  0  0.139317  0.11042  0  0.960881  0
H  H28  1  0.48302485  0.19311619  0.76947336  1  0.113878  0  0.119073  0.096077  0  1.010929  0
H  H29  1  0.01473140  0.30669561  0.76950394  1  0.122751  0  0.122659  0.10173  0  1.00759  0
H  H30  1  0.51469807  0.69330483  0.73048416  1  0.123143  0  0.122673  0.101743  0  1.007447  0
H  H31  1  0.98296436  0.80687564  0.73052326  1  0.113794  0  0.11897  0.095992  0  1.010864  0
H  H32  1  0.51667570  0.80679874  0.23050063  1  0.114265  0  0.118996  0.0958  0  1.011793  0
H  H33  1  0.98509095  0.69327104  0.23052835  1  0.122126  0  0.122727  0.101841  0  1.007497  0
H  H34  1  0.48510463  0.30671066  0.26946476  1  0.121976  0  0.122799  0.101908  0  1.007353  0
H  H35  1  0.01666547  0.19318137  0.26948753  1  0.114133  0  0.118931  0.095766  0  1.011621  0
H  H36  1  0.44150550  0.03938250  0.83373051  1  0.120073  0  0.10694  0.112531  0  1.031332  0
H  H37  1  0.05697540  0.46060996  0.83349719  1  0.132639  0  0.10971  0.118609  0  1.027265  0
H  H38  1  0.55694312  0.53940043  0.66648559  1  0.133175  0  0.10976  0.118745  0  1.027352  0
H  H39  1  0.94146410  0.96060304  0.66626018  1  0.120327  0  0.107019  0.112559  0  1.031443  0
H  H40  1  0.55813120  0.96054481  0.16626035  1  0.121809  0  0.106664  0.111955  0  1.031983  0
H  H41  1  0.94280766  0.53937564  0.16650696  1  0.131736  0  0.10967  0.118621  0  1.027377  0
H  H42  1  0.44282422  0.46060923  0.33348532  1  0.131936  0  0.109729  0.118557  0  1.027459  0
H  H43  1  0.05813430  0.03944158  0.33374294  1  0.121572  0  0.106707  0.112081  0  1.031716  0
H  H44  1  0.58370397  0.18652327  0.01533944  1  0.134459  0  0.116097  0.131071  0  0.992095  0
H  H45  1  0.92274976  0.31173994  0.01645801  1  0.135607  0  0.118173  0.139922  0  0.990509  0
H  H46  1  0.42281819  0.68828333  0.48351827  1  0.135169  0  0.118076  0.139898  0  0.990501  0
H  H47  1  0.08382408  0.81350493  0.48468909  1  0.133557  0  0.116027  0.131091  0  0.992516  0
H  H48  1  0.41669791  0.81319276  0.98455890  1  0.133798  0  0.116284  0.131275  0  0.991789  0
H  H49  1  0.07756076  0.68816476  0.98361775  1  0.137661  0  0.11831  0.140147  0  0.990206  0
H  H50  1  0.57752082  0.31182618  0.51638410  1  0.137457  0  0.118335  0.140255  0  0.990046  0
H  H51  1  0.91670255  0.18679761  0.51543571  1  0.13388  0  0.116309  0.131311  0  0.991943  0
H  H52  1  0.60985158  0.33500227  0.94440334  1  0.149853  0  0.123749  0.105802  0  0.997114  0
H  H53  1  0.89338654  0.16368841  0.94511343  1  0.165366  0  0.126119  0.110967  0  0.996083  0
H  H54  1  0.39343670  0.83633012  0.55486464  1  0.163765  0  0.126117  0.110827  0  0.996269  0
H  H55  1  0.10993363  0.66500725  0.55560847  1  0.149934  0  0.123569  0.105373  0  0.997139  0
H  H56  1  0.39057780  0.66472324  0.05551546  1  0.148893  0  0.123556  0.105478  0  0.997448  0
H  H57  1  0.10683067  0.83621264  0.05497972  1  0.165915  0  0.126153  0.111018  0  0.996139  0
H  H58  1  0.60679623  0.16377284  0.44503058  1  0.165797  0  0.126118  0.110967  0  0.996338  0
H  H59  1  0.89055370  0.33526323  0.44448207  1  0.149032  0  0.123517  0.105477  0  0.997413  0
H  H60  1  0.45224813  0.94721546  0.93502441  1  0.068576  0  0.109042  0.108529  0  1.005228  0
H  H61  1  0.04911381  0.55236258  0.93510546  1  0.06991  0  0.111371  0.112897  0  1.000924  0
H  H62  1  0.54911329  0.44764553  0.56488698  1  0.069912  0  0.1113  0.112737  0  1.000877  0
H  H63  1  0.95224646  0.05279206  0.56498886  1  0.0691  0  0.108959  0.108299  0  1.005023  0
H  H64  1  0.54761547  0.05264847  0.06495317  1  0.068184  0  0.108651  0.107694  0  1.005878  0
H  H65  1  0.95096785  0.44758294  0.06493859  1  0.070325  0  0.111378  0.113145  0  1.001038  0
H  H66  1  0.45096346  0.55240713  0.43504455  1  0.071439  0  0.111371  0.113159  0  1.000945  0
H  H67  1  0.04762304  0.94734145  0.43505107  1  0.068503  0  0.108748  0.107768  0  1.005538  0
C  C68  1  0.45264986  0.32861557  0.67050683  1  1.598614  0  0.198373  0.553286  0  4.279742  0
C  C69  1  0.04720873  0.17268770  0.67185457  1  1.588301  0  0.200465  0.552249  0  4.276843  0
C  C70  1  0.54721708  0.82733425  0.82812201  1  1.588272  0  0.200663  0.55249  0  4.276453  0
C  C71  1  0.95265114  0.67141236  0.82950491  1  1.599728  0  0.198577  0.553763  0  4.279842  0
C  C72  1  0.54739251  0.67150630  0.32948913  1  1.599315  0  0.198628  0.553361  0  4.279018  0
C  C73  1  0.95259004  0.82733579  0.32817413  1  1.587441  0  0.200782  0.552651  0  4.275843  0
C  C74  1  0.45259054  0.17263097  0.17182692  1  1.587701  0  0.200831  0.552924  0  4.276069  0
C  C75  1  0.04734408  0.32849236  0.17052074  1  1.600417  0  0.198633  0.55343  0  4.27866  0
C  C76  1  0.36128621  0.40333893  0.69827863  1  0.355988  0  0.057431  -0.039462  0  4.0205  0
C  C77  1  0.13906521  0.09759186  0.69871818  1  0.345388  0  0.059493  -0.038336  0  4.018347  0
C  C78  1  0.63906651  0.90241799  0.80126366  1  0.345066  0  0.059278  -0.038505  0  4.018405  0
C  C79  1  0.86128130  0.59668215  0.80172682  1  0.355818  0  0.057512  -0.03967  0  4.020464  0
C  C80  1  0.63876009  0.59677055  0.30173727  1  0.353678  0  0.058121  -0.038696  0  4.018656  0
C  C81  1  0.86073454  0.90236824  0.30128240  1  0.346016  0  0.059113  -0.039024  0  4.018465  0
C  C82  1  0.36074111  0.09759603  0.19872259  1  0.345761  0  0.059252  -0.038863  0  4.018591  0
C  C83  1  0.13874928  0.40324006  0.19826712  1  0.353582  0  0.057932  -0.038908  0  4.019045  0
C  C84  1  0.25174708  0.45386583  0.67347767  1  0.381811  0  0.06365  -0.025703  0  3.994262  0
C  C85  1  0.24858797  0.04731508  0.67363646  1  0.409932  0  0.065487  -0.023561  0  3.988906  0
C  C86  1  0.74860274  0.95270038  0.82634413  1  0.409416  0  0.065908  -0.023003  0  3.988318  0
C  C87  1  0.75173886  0.54614309  0.82652800  1  0.381889  0  0.063715  -0.025459  0  3.994168  0
C  C88  1  0.74832476  0.54625675  0.32657453  1  0.383109  0  0.063566  -0.026048  0  3.993438  0
C  C89  1  0.75116759  0.95268073  0.32636615  1  0.406909  0  0.065963  -0.023888  0  3.987836  0
C  C90  1  0.25117049  0.04728888  0.17364366  1  0.407665  0  0.066183  -0.023257  0  3.98757  0
C  C91  1  0.24830842  0.45373614  0.17343935  1  0.382739  0  0.063604  -0.026034  0  3.993715  0
C  C92  1  0.17133743  0.45287291  0.60955251  1  1.612158  0  0.204639  0.575653  0  4.239928  0
C  C93  1  0.32972278  0.04875090  0.60991712  1  1.61839  0  0.205722  0.577869  0  4.234395  0
C  C94  1  0.82971369  0.95127129  0.89006559  1  1.619471  0  0.205659  0.578226  0  4.234494  0
C  C95  1  0.67135942  0.54714385  0.89045821  1  1.612961  0  0.204726  0.575529  0  4.239974  0
C  C96  1  0.82859395  0.54727807  0.39055083  1  1.617559  0  0.204255  0.575167  0  4.240001  0
C  C97  1  0.67006224  0.95131340  0.39009367  1  1.618928  0  0.205609  0.578142  0  4.233457  0
C  C98  1  0.17006544  0.04865821  0.10992220  1  1.619333  0  0.205494  0.57789  0  4.233558  0
C  C99  1  0.32862500  0.45271718  0.10946517  1  1.616599  0  0.204302  0.575094  0  4.239696  0
C  C100  1  0.30795719  0.51604259  0.77232937  1  0.992605  0  0.139256  0.173547  0  3.976588  0
C  C101  1  0.19239654  0.98408134  0.77226848  1  1.013826  0  0.142759  0.178893  0  3.972689  0
C  C102  1  0.69240633  0.01593858  0.72771836  1  1.015268  0  0.142631  0.178841  0  3.972925  0
C  C103  1  0.80796275  0.48397716  0.72767262  1  0.990854  0  0.139335  0.173672  0  3.976571  0
C  C104  1  0.69209107  0.48397724  0.22774075  1  0.996427  0  0.13956  0.173727  0  3.976683  0
C  C105  1  0.80742777  0.01589989  0.22773619  1  1.028596  0  0.142722  0.17867  0  3.971874  0
C  C106  1  0.30743861  0.98406598  0.27226738  1  1.03045  0  0.142777  0.179073  0  3.972315  0
C  C107  1  0.19210124  0.51603105  0.27226250  1  0.997436  0  0.139504  0.173664  0  3.976448  0
C  C108  1  0.50228348  0.18812848  0.82414580  1  0.489449  0  0.044292  0.092346  0  3.939356  0
C  C109  1  0.99726112  0.31146926  0.82434523  1  0.500831  0  0.048255  0.097331  0  3.926695  0
C  C110  1  0.49724864  0.68854168  0.67564127  1  0.500925  0  0.048277  0.097495  0  3.926648  0
C  C111  1  0.00227154  0.81186964  0.67585449  1  0.489494  0  0.04449  0.092561  0  3.939837  0
C  C112  1  0.49757914  0.81176751  0.17582769  1  0.489423  0  0.043984  0.09252  0  3.942005  0
C  C113  1  0.00265356  0.68846459  0.17569627  1  0.500956  0  0.047847  0.096783  0  3.926665  0
C  C114  1  0.50265720  0.31151826  0.32430049  1  0.500531  0  0.047902  0.096913  0  3.926289  0
C  C115  1  0.99757045  0.18821797  0.32417113  1  0.489177  0  0.044224  0.092742  0  3.941304  0
C  C116  1  0.48126691  0.10271440  0.86015485  1  -0.07216  0  -0.081803  -0.171778  0  3.934449  0
C  C117  1  0.01895917  0.39696358  0.86028613  1  -0.081125  0  -0.080544  -0.177083  0  3.934778  0
C  C118  1  0.51895006  0.60304930  0.63970507  1  -0.081545  0  -0.080673  -0.177444  0  3.93478  0
C  C119  1  0.98124808  0.89727378  0.63985659  1  -0.072447  0  -0.081908  -0.171734  0  3.934628  0
C  C120  1  0.51855543  0.89717940  0.13984113  1  -0.074234  0  -0.081505  -0.171046  0  3.93527  0
C  C121  1  0.98094962  0.60299579  0.13973082  1  -0.081546  0  -0.080477  -0.176997  0  3.935177  0
C  C122  1  0.48094694  0.39698805  0.36026226  1  -0.082031  0  -0.080619  -0.177046  0  3.935078  0
C  C123  1  0.01855463  0.10281529  0.36016545  1  -0.073837  0  -0.081696  -0.171501  0  3.935493  0
C  C124  1  0.51167820  0.09792622  0.93019413  1  0.053878  0  0.015085  0.155352  0  4.006873  0
C  C125  1  0.99032878  0.40143967  0.93060471  1  -0.016497  0  0.011509  0.140027  0  4.027611  0
C  C126  1  0.49033913  0.59857120  0.56938123  1  -0.017227  0  0.011453  0.140012  0  4.026921  0
C  C127  1  0.01170161  0.90207418  0.56982105  1  0.053925  0  0.015093  0.15518  0  4.005279  0
C  C128  1  0.48828755  0.90191293  0.06976760  1  0.062728  0  0.015151  0.154891  0  4.005578  0
C  C129  1  0.00972145  0.59849929  0.06943014  1  -0.014809  0  0.011207  0.139715  0  4.028003  0
C  C130  1  0.50971404  0.40149968  0.43056667  1  -0.014974  0  0.011232  0.139713  0  4.028343  0
C  C131  1  0.98829657  0.09806734  0.43023525  1  0.062705  0  0.015245  0.155189  0  4.005805  0
C  C132  1  0.56128300  0.18302997  0.96095604  1  -0.07353  0  -0.071295  -0.150673  0  3.890985  0
C  C133  1  0.94290343  0.31569604  0.96182673  1  -0.060865  0  -0.074103  -0.171869  0  3.913681  0
C  C134  1  0.44294023  0.68432741  0.53815119  1  -0.059677  0  -0.073832  -0.17154  0  3.913006  0
C  C135  1  0.06137163  0.81696661  0.53906002  1  -0.072401  0  -0.071222  -0.150898  0  3.89144  0
C  C136  1  0.43894010  0.81671884  0.03896787  1  -0.068532  0  -0.071529  -0.150799  0  3.889794  0
C  C137  1  0.05726467  0.68422979  0.03823471  1  -0.050511  0  -0.074524  -0.172663  0  3.913849  0
C  C138  1  0.55724457  0.31576898  0.46176704  1  -0.050033  0  -0.074487  -0.172494  0  3.913372  0
C  C139  1  0.93892809  0.18326453  0.46103104  1  -0.068476  0  -0.071698  -0.15115  0  3.890297  0
C  C140  1  0.57707690  0.26645783  0.92205745  1  0.443599  0  0.048787  0.091633  0  3.931135  0
C  C141  1  0.92594355  0.23240783  0.92278143  1  0.436553  0  0.046705  0.075098  0  3.951059  0
C  C142  1  0.42597817  0.76761179  0.57720250  1  0.438269  0  0.046774  0.075316  0  3.951032  0
C  C143  1  0.07712656  0.73355278  0.57796383  1  0.444187  0  0.048929  0.092273  0  3.931937  0
C  C144  1  0.42317371  0.73331357  0.07788741  1  0.442561  0  0.049168  0.092295  0  3.931719  0
C  C145  1  0.07420785  0.76751072  0.07729433  1  0.424919  0  0.04681  0.075634  0  3.950362  0
C  C146  1  0.57418502  0.23247585  0.42271215  1  0.424726  0  0.046822  0.075439  0  3.950543  0
C  C147  1  0.92315450  0.26666525  0.42211547  1  0.442323  0  0.049265  0.092414  0  3.931788  0
C  C148  1  0.48922455  0.00710909  0.96630366  1  -0.066909  0  -0.069431  -0.096227  0  3.923493  0
C  C149  1  0.01178624  0.49264233  0.96647169  1  0.044503  0  -0.068766  -0.093808  0  3.920785  0
C  C150  1  0.51179002  0.50737047  0.53351128  1  0.044866  0  -0.06854  -0.093594  0  3.920264  0
C  C151  1  0.98925197  0.99289740  0.53367767  1  -0.06757  0  -0.069544  -0.096103  0  3.9243  0
C  C152  1  0.51066459  0.99274174  0.03363046  1  0.026596  0  -0.069541  -0.095944  0  3.92353  0
C  C153  1  0.98831507  0.50728789  0.03356111  1  -0.061756  0  -0.06884  -0.094431  0  3.92121  0
C  C154  1  0.48831227  0.49269822  0.46642179  1  -0.062606  0  -0.068988  -0.094634  0  3.921793  0
C  C155  1  0.01066959  0.00725432  0.46638169  1  0.02596  0  -0.069489  -0.095895  0  3.925442  0
N  N156  1  0.39421634  0.44394053  0.76065069  1  -1.247791  0  -0.368619  -0.3256  0  3.609373  0
N  N157  1  0.10631846  0.05630343  0.76093519  1  -1.261864  0  -0.36945  -0.327113  0  3.613986  0
N  N158  1  0.60632188  0.94370241  0.73904283  1  -1.261562  0  -0.369397  -0.327346  0  3.613552  0
N  N159  1  0.89421287  0.55607800  0.73935756  1  -1.24599  0  -0.368717  -0.325622  0  3.609915  0
N  N160  1  0.60584764  0.55608441  0.23938875  1  -1.251149  0  -0.368982  -0.325768  0  3.609629  0
N  N161  1  0.89350094  0.94365303  0.23906845  1  -1.261757  0  -0.369129  -0.326692  0  3.613033  0
N  N162  1  0.39351226  0.05630579  0.26093677  1  -1.262915  0  -0.369204  -0.326989  0  3.613554  0
N  N163  1  0.10584031  0.44392000  0.26061898  1  -1.251509  0  -0.368949  -0.325856  0  3.609335  0
N  N164  1  0.22090584  0.52429113  0.72104410  1  -1.255256  0  -0.36877  -0.318348  0  3.618758  0
N  N165  1  0.27925597  0.97640748  0.72088685  1  -1.251434  0  -0.369366  -0.31766  0  3.621978  0
N  N166  1  0.77925255  0.02361196  0.77909500  1  -1.252611  0  -0.369349  -0.317796  0  3.622335  0
N  N167  1  0.72090278  0.47571963  0.77895879  1  -1.255425  0  -0.368993  -0.3187  0  3.618472  0
N  N168  1  0.77916698  0.47578772  0.27903215  1  -1.253106  0  -0.369015  -0.318495  0  3.618181  0
N  N169  1  0.72056638  0.02358104  0.27909327  1  -1.250229  0  -0.369456  -0.31718  0  3.621097  0
N  N170  1  0.22056488  0.97638166  0.22091274  1  -1.250183  0  -0.369622  -0.317736  0  3.621092  0
N  N171  1  0.27915826  0.52421718  0.22096917  1  -1.253311  0  -0.368982  -0.318364  0  3.618442  0
N  N172  1  0.54926367  0.26936463  0.85443418  1  -1.262473  0  -0.334583  -0.221535  0  3.575421  0
N  N173  1  0.95172270  0.22997976  0.85489420  1  -1.25857  0  -0.331524  -0.219854  0  3.566581  0
N  N174  1  0.45173463  0.77002630  0.64508941  1  -1.259676  0  -0.331663  -0.220072  0  3.566989  0
N  N175  1  0.04926695  0.73064931  0.64557104  1  -1.263133  0  -0.334498  -0.221498  0  3.575749  0
N  N176  1  0.45078852  0.73051898  0.14551885  1  -1.26443  0  -0.33456  -0.221841  0  3.577628  0
N  N177  1  0.04827842  0.76993223  0.14516570  1  -1.259241  0  -0.330973  -0.219351  0  3.565871  0
N  N178  1  0.54827533  0.23004312  0.35483650  1  -1.25853  0  -0.33108  -0.219459  0  3.565788  0
N  N179  1  0.95077149  0.26948565  0.35448116  1  -1.263934  0  -0.334603  -0.221807  0  3.576961  0
O  O180  1  0.56159229  0.31921020  0.70154391  1  -1.168381  0  -0.323365  -0.528095  0  2.206571  0
O  O181  1  0.93872897  0.18170852  0.70344729  1  -1.16215  0  -0.32266  -0.526488  0  2.216995  0
O  O182  1  0.43872825  0.81829157  0.79652088  1  -1.162639  0  -0.322722  -0.526616  0  2.216464  0
O  O183  1  0.06159079  0.68080315  0.79847061  1  -1.168504  0  -0.32354  -0.528319  0  2.206457  0
O  O184  1  0.43851000  0.68101078  0.29840038  1  -1.168655  0  -0.323807  -0.528277  0  2.205236  0
O  O185  1  0.06100202  0.81817290  0.29651341  1  -1.160833  0  -0.322957  -0.526808  0  2.216017  0
O  O186  1  0.56101847  0.18177419  0.20346996  1  -1.160727  0  -0.322924  -0.526911  0  2.216616  0
O  O187  1  0.93849087  0.31899881  0.20161898  1  -1.169703  0  -0.32367  -0.528095  0  2.205663  0
O  O188  1  0.42334819  0.27852772  0.61745387  1  -1.180095  0  -0.331759  -0.580705  0  2.372855  0
O  O189  1  0.07517512  0.22414315  0.61930368  1  -1.184658  0  -0.327761  -0.567138  0  2.370155  0
O  O190  1  0.57515435  0.77586818  0.88068026  1  -1.183888  0  -0.327767  -0.567095  0  2.369996  0
O  O191  1  0.92333324  0.72148313  0.88254947  1  -1.181001  0  -0.331767  -0.580821  0  2.373333  0
O  O192  1  0.57662739  0.72149358  0.38259477  1  -1.180722  0  -0.331752  -0.580763  0  2.373998  0
O  O193  1  0.92477002  0.77606247  0.38084363  1  -1.184008  0  -0.327625  -0.566703  0  2.370024  0
O  O194  1  0.42474461  0.22392365  0.11916284  1  -1.183871  0  -0.327743  -0.567056  0  2.369606  0
O  O195  1  0.07657554  0.27849447  0.11742247  1  -1.180858  0  -0.331825  -0.580859  0  2.373485  0
O  O196  1  0.19825567  0.39385790  0.56120719  1  -1.18733  0  -0.338206  -0.574005  0  2.306764  0
O  O197  1  0.30489742  0.10899229  0.56211857  1  -1.189951  0  -0.333681  -0.568095  0  2.313479  0
O  O198  1  0.80488249  0.89103108  0.93786243  1  -1.190252  0  -0.333647  -0.568499  0  2.313869  0
O  O199  1  0.69828703  0.60614605  0.93880424  1  -1.187635  0  -0.338232  -0.573902  0  2.307146  0
O  O200  1  0.80146256  0.60619762  0.43891457  1  -1.187268  0  -0.338177  -0.574128  0  2.306489  0
O  O201  1  0.69483162  0.89108658  0.43790756  1  -1.189524  0  -0.333763  -0.567909  0  2.312717  0
O  O202  1  0.19483279  0.10889551  0.06210286  1  -1.190085  0  -0.333778  -0.568092  0  2.312518  0
O  O203  1  0.30153335  0.39377036  0.06111146  1  -1.187115  0  -0.338312  -0.574174  0  2.306423  0
O  O204  1  0.07954008  0.51568953  0.60677588  1  -1.155969  0  -0.319677  -0.521129  0  2.216224  0
O  O205  1  0.42058234  0.98500233  0.60678703  1  -1.1691  0  -0.323401  -0.529023  0  2.217401  0
O  O206  1  0.92057001  0.01502306  0.89319430  1  -1.169581  0  -0.323432  -0.529136  0  2.217303  0
O  O207  1  0.57955203  0.48432693  0.89323315  1  -1.156298  0  -0.319681  -0.521071  0  2.215741  0
O  O208  1  0.92046497  0.48450516  0.39335763  1  -1.162573  0  -0.319038  -0.520564  0  2.214844  0
O  O209  1  0.57929796  0.01514649  0.39321659  1  -1.170323  0  -0.323416  -0.529254  0  2.216928  0
O  O210  1  0.07928671  0.98483794  0.10679811  1  -1.170358  0  -0.323376  -0.529114  0  2.217056  0
O  O211  1  0.42045007  0.51551224  0.10666006  1  -1.161517  0  -0.319046  -0.520484  0  2.215306  0
O  O212  1  0.24500694  0.24693443  0.46650672  1  -1.21931  0  -0.537438  -0.700784  0  2.115053  0
O  O213  1  0.74506385  0.75312838  0.03349946  1  -1.218887  0  -0.537285  -0.700741  0  2.114791  0
O  O214  1  0.75541655  0.75304096  0.53357465  1  -1.184826  0  -0.537335  -0.701367  0  2.114327  0
O  O215  1  0.25531150  0.24693594  0.96644435  1  -1.182825  0  -0.537636  -0.701339  0  2.113749  0
