# generated using pymatgen
data_DyH13C14N2O11
_symmetry_space_group_name_H-M   'P 1'
_cell_length_a   7.42812160
_cell_length_b   10.00375180
_cell_length_c   11.73041552
_cell_angle_alpha   107.36394420
_cell_angle_beta   99.80400177
_cell_angle_gamma   101.28034688
_symmetry_Int_Tables_number   1
_chemical_formula_structural   DyH13C14N2O11
_chemical_formula_sum   'Dy2 H26 C28 N4 O22'
_cell_volume   791.16082293
_cell_formula_units_Z   2
loop_
 _symmetry_equiv_pos_site_id
 _symmetry_equiv_pos_as_xyz
  1  'x, y, z'
loop_
 _atom_site_type_symbol
 _atom_site_label
 _atom_site_symmetry_multiplicity
 _atom_site_fract_x
 _atom_site_fract_y
 _atom_site_fract_z
 _atom_site_occupancy
 _atom_site_hle17_bader_spin_density
 _atom_site_hle17_ddec_charge
 _atom_site_hle17_ddec_spin_density
 _atom_site_hle17_ddec_sum_bond_order
 _atom_site_hle17_magmom
 _atom_site_hse06_10hf_bader_spin_density
 _atom_site_hse06_10hf_ddec_charge
 _atom_site_hse06_10hf_ddec_spin_density
 _atom_site_hse06_10hf_ddec_sum_bond_order
 _atom_site_hse06_10hf_magmom
 _atom_site_hse06_bader_spin_density
 _atom_site_hse06_ddec_charge
 _atom_site_hse06_ddec_spin_density
 _atom_site_hse06_ddec_sum_bond_order
 _atom_site_hse06_magmom
 _atom_site_pbe_bader_spin_density
 _atom_site_pbe_cm5_charge
 _atom_site_pbe_ddec_charge
 _atom_site_pbe_ddec_spin_density
 _atom_site_pbe_ddec_sum_bond_order
 _atom_site_pbe_magmom
Dy  Dy0  1  0.32120813  0.88214167  0.76613615  1  0  2.305639  0  1.63641  0  0  2.243129  0  1.968158  0  0  2.288182  0  1.925364  0  0  1.524438  2.13981  0  2.130422  0
Dy  Dy1  1  0.67879235  0.11785700  0.23386553  1  0  2.305603  0  1.636429  0  0  2.243084  0  1.968178  0  0  2.288138  0  1.925382  0  0  1.52444  2.139775  0  2.13042  0
H  H2  1  0.70719504  0.86774023  0.78526019  1  0  0.452464  0  0.808954  0  0  0.430145  0  0.86834  0  0  0.439088  0  0.855018  0  0  0.32574  0.423373  0  0.878266  0
H  H3  1  0.29280584  0.13225951  0.21474011  1  0  0.452495  0  0.808922  0  0  0.430171  0  0.868309  0  0  0.439113  0  0.85499  0  0  0.325745  0.423399  0  0.878235  0
H  H4  1  0.76530434  0.03936389  0.84007438  1  0  0.445451  0  0.850118  0  0  0.414589  0  0.912218  0  0  0.42514  0  0.896837  0  0  0.304409  0.406432  0  0.924058  0
H  H5  1  0.23469664  0.96063583  0.15992165  1  0  0.44542  0  0.85017  0  0  0.414492  0  0.91235  0  0  0.42509  0  0.896913  0  0  0.304375  0.406338  0  0.924182  0
H  H6  1  0.05013494  0.99269348  0.88939914  1  0  0.430251  0  0.864031  0  0  0.399795  0  0.929288  0  0  0.409644  0  0.91481  0  0  0.306897  0.392752  0  0.939447  0
H  H7  1  0.94986558  0.00730517  0.11060084  1  0  0.430231  0  0.864056  0  0  0.39977  0  0.929324  0  0  0.40962  0  0.914845  0  0  0.306877  0.392727  0  0.939484  0
H  H8  1  0.06325434  0.86543666  0.94249422  1  0  0.435777  0  0.860852  0  0  0.405249  0  0.923505  0  0  0.415825  0  0.907901  0  0  0.302638  0.397402  0  0.934911  0
H  H9  1  0.93674517  0.13456307  0.05750591  1  0  0.435789  0  0.860838  0  0  0.405266  0  0.923485  0  0  0.415841  0  0.907881  0  0  0.302645  0.397419  0  0.934891  0
H  H10  1  0.29325238  0.92550032  0.51716246  1  0  0.44529  0  0.848274  0  0  0.412965  0  0.913347  0  0  0.423646  0  0.89783  0  0  0.29846  0.404852  0  0.925127  0
H  H11  1  0.70674911  0.07449727  0.48283908  1  0  0.445251  0  0.848311  0  0  0.412928  0  0.913385  0  0  0.423611  0  0.897864  0  0  0.298445  0.404814  0  0.925167  0
H  H12  1  0.47143164  0.85983061  0.54063130  1  0  0.408605  0  0.909353  0  0  0.366085  0  0.993567  0  0  0.377351  0  0.97722  0  0  0.291064  0.357867  0  1.005325  0
H  H13  1  0.52857060  0.14016914  0.45936916  1  0  0.408565  0  0.909405  0  0  0.366047  0  0.99362  0  0  0.377311  0  0.977274  0  0  0.291056  0.357827  0  1.005378  0
H  H14  1  0.01759888  0.66516903  0.49105454  1  0  0.140917  0  0.965502  0  0  0.14695  0  1.030846  0  0  0.151171  0  1.027496  0  0  0.120671  0.144349  0  1.032268  0
H  H15  1  0.98239846  0.33482854  0.50894821  1  0  0.14093  0  0.965458  0  0  0.146946  0  1.030814  0  0  0.151166  0  1.027467  0  0  0.120664  0.144344  0  1.032238  0
H  H16  1  0.32016818  0.45437047  0.35505188  1  0  0.108433  0  0.933368  0  0  0.119741  0  0.998898  0  0  0.121456  0  0.99787  0  0  0.120401  0.118236  0  1.000086  0
H  H17  1  0.67982928  0.54562708  0.64494576  1  0  0.108408  0  0.933424  0  0  0.11971  0  0.99894  0  0  0.121427  0  0.997913  0  0  0.120423  0.118207  0  1.000126  0
H  H18  1  0.28433375  0.63192659  0.39173360  1  0  0.106358  0  0.906885  0  0  0.125267  0  0.962045  0  0  0.126266  0  0.961099  0  0  0.127859  0.124236  0  0.963187  0
H  H19  1  0.71566433  0.36807315  0.60826892  1  0  0.106359  0  0.906864  0  0  0.125259  0  0.962021  0  0  0.126259  0  0.961077  0  0  0.127874  0.124238  0  0.963155  0
H  H20  1  0.15039741  0.32781358  0.14352088  1  0  0.111072  0  0.958204  0  0  0.12392  0  1.017124  0  0  0.127478  0  1.013825  0  0  0.113442  0.121034  0  1.020068  0
H  H21  1  0.84960280  0.67218833  0.85648073  1  0  0.111052  0  0.95824  0  0  0.123906  0  1.017155  0  0  0.127461  0  1.013857  0  0  0.113438  0.121021  0  1.020099  0
H  H22  1  0.50707897  0.76075716  0.24776040  1  0  0.113554  0  0.946225  0  0  0.118021  0  1.016973  0  0  0.122401  0  1.012875  0  0  0.116516  0.115122  0  1.019304  0
H  H23  1  0.49291412  0.23924796  0.75224117  1  0  0.113461  0  0.946192  0  0  0.117979  0  1.016901  0  0  0.122348  0  1.012815  0  0  0.116478  0.115079  0  1.019237  0
H  H24  1  0.22594767  0.52448828  0.86769932  1  0  0.117547  0  0.947407  0  0  0.124045  0  1.014615  0  0  0.127672  0  1.011718  0  0  0.113474  0.121187  0  1.017207  0
H  H25  1  0.77405422  0.47551039  0.13230083  1  0  0.117557  0  0.947356  0  0  0.124068  0  1.014556  0  0  0.127697  0  1.011658  0  0  0.113464  0.121211  0  1.017144  0
H  H26  1  0.95401129  0.17776316  0.71247791  1  0  0.401821  0  0.889528  0  0  0.36601  0  0.973164  0  0  0.380346  0  0.958814  0  0  0.298642  0.355878  0  0.983433  0
H  H27  1  0.04598971  0.82224090  0.28752176  1  0  0.401848  0  0.88951  0  0  0.366034  0  0.973149  0  0  0.380383  0  0.958767  0  0  0.298675  0.355904  0  0.983411  0
C  C28  1  0.92126606  0.94612973  0.60261858  1  0  0.681577  0  3.871921  0  0  0.626484  0  4.174184  0  0  0.661703  0  4.163171  0  0  0.234301  0.601838  0  4.180453  0
C  C29  1  0.07872566  0.05387103  0.39737833  1  0  0.681756  0  3.87167  0  0  0.626599  0  4.174029  0  0  0.661817  0  4.163016  0  0  0.234404  0.60195  0  4.180296  0
C  C30  1  0.81021044  0.80037641  0.51647479  1  0  0.026378  0  3.760868  0  0  0.020691  0  4.037299  0  0  0.018776  0  4.053319  0  0  0.090697  0.02188  0  4.027091  0
C  C31  1  0.18978497  0.19962330  0.48352485  1  0  0.026313  0  3.76075  0  0  0.020623  0  4.037205  0  0  0.018707  0  4.053227  0  0  0.090692  0.021829  0  4.026972  0
C  C32  1  0.87480326  0.67624147  0.47265116  1  0  -0.146415  0  3.674713  0  0  -0.189278  0  3.947305  0  0  -0.189836  0  3.962518  0  0  -0.077855  -0.188331  0  3.936329  0
C  C33  1  0.12519623  0.32375827  0.52734982  1  0  -0.146446  0  3.674716  0  0  -0.189269  0  3.947289  0  0  -0.189826  0  3.962501  0  0  -0.077855  -0.188328  0  3.936307  0
C  C34  1  0.71372939  0.56591251  0.40381385  1  0  0.007257  0  3.668266  0  0  -0.013167  0  3.923063  0  0  -0.014894  0  3.939713  0  0  0.092355  -0.01279  0  3.913191  0
C  C35  1  0.28626870  0.43408723  0.59618868  1  0  0.007295  0  3.668268  0  0  -0.013132  0  3.923096  0  0  -0.014855  0  3.93974  0  0  0.092348  -0.012754  0  3.91322  0
C  C36  1  0.69798140  0.41028174  0.34420658  1  0  0.627141  0  3.99092  0  0  0.582613  0  4.293265  0  0  0.617061  0  4.283204  0  0  0.194498  0.560028  0  4.292268  0
C  C37  1  0.30202354  0.58971803  0.65579590  1  0  0.62696  0  3.99094  0  0  0.582431  0  4.293312  0  0  0.616878  0  4.28325  0  0  0.194386  0.559848  0  4.292312  0
C  C38  1  0.36366963  0.56019292  0.34476778  1  0  -0.057446  0  3.61662  0  0  -0.139796  0  3.868011  0  0  -0.135793  0  3.877004  0  0  -0.039246  -0.142361  0  3.862463  0
C  C39  1  0.63633117  0.43980684  0.65523592  1  0  -0.057524  0  3.616699  0  0  -0.139822  0  3.868073  0  0  -0.135825  0  3.877074  0  0  -0.039343  -0.142404  0  3.862548  0
C  C40  1  0.33029673  0.54553934  0.21022429  1  0  0.077174  0  3.722951  0  0  0.100395  0  3.971933  0  0  0.096686  0  3.996057  0  0  -0.003756  0.102642  0  3.955831  0
C  C41  1  0.66970109  0.45446365  0.78977815  1  0  0.077278  0  3.722901  0  0  0.100507  0  3.971856  0  0  0.096801  0  3.995975  0  0  -0.003703  0.102758  0  3.955758  0
C  C42  1  0.21422776  0.41909858  0.11835382  1  0  -0.070351  0  3.634799  0  0  -0.107869  0  3.878471  0  0  -0.104827  0  3.89636  0  0  -0.0671  -0.109937  0  3.867082  0
C  C43  1  0.78577151  0.58090439  0.88164538  1  0  -0.070322  0  3.634757  0  0  -0.107858  0  3.878432  0  0  -0.104814  0  3.896321  0  0  -0.067094  -0.109927  0  3.867044  0
C  C44  1  0.41359119  0.66189293  0.17757372  1  0  -0.080194  0  3.655784  0  0  -0.120433  0  3.90843  0  0  -0.117778  0  3.926367  0  0  -0.071185  -0.122096  0  3.896913  0
C  C45  1  0.58641038  0.33810899  0.82242890  1  0  -0.080095  0  3.655697  0  0  -0.120372  0  3.908329  0  0  -0.117707  0  3.926271  0  0  -0.071134  -0.122035  0  3.896812  0
C  C46  1  0.17854979  0.41005938  0.99437427  1  0  -0.090725  0  3.772961  0  0  -0.065887  0  4.01617  0  0  -0.077669  0  4.041583  0  0  -0.017191  -0.058457  0  3.999323  0
C  C47  1  0.82145316  0.58993819  0.00562318  1  0  -0.09075  0  3.772972  0  0  -0.065914  0  4.016203  0  0  -0.077697  0  4.041617  0  0  -0.017217  -0.058484  0  3.999355  0
C  C48  1  0.37633714  0.65497578  0.05482826  1  0  -0.076544  0  3.748513  0  0  -0.049019  0  3.982472  0  0  -0.05987  0  4.007003  0  0  -0.015621  -0.042819  0  3.968096  0
C  C49  1  0.62365961  0.34502394  0.94517240  1  0  -0.076566  0  3.748496  0  0  -0.049091  0  3.982488  0  0  -0.059942  0  4.007018  0  0  -0.015632  -0.042891  0  3.968112  0
C  C50  1  0.05487474  0.27561995  0.89624151  1  0  0.697018  0  3.769013  0  0  0.638131  0  4.069214  0  0  0.673825  0  4.059671  0  0  0.251381  0.613889  0  4.075553  0
C  C51  1  0.94512544  0.72437761  0.10375731  1  0  0.696945  0  3.769035  0  0  0.638041  0  4.069252  0  0  0.673733  0  4.059715  0  0  0.251353  0.613801  0  4.075592  0
C  C52  1  0.25771686  0.52927373  0.96306768  1  0  -0.049957  0  3.668663  0  0  -0.091976  0  3.921579  0  0  -0.088136  0  3.941116  0  0  -0.06872  -0.094146  0  3.909016  0
C  C53  1  0.74228404  0.47072600  0.03693176  1  0  -0.049958  0  3.668514  0  0  -0.091979  0  3.921421  0  0  -0.08814  0  3.94096  0  0  -0.068706  -0.094148  0  3.90886  0
C  C54  1  0.45803562  0.78644885  0.02517647  1  0  0.745465  0  3.848449  0  0  0.697899  0  4.141361  0  0  0.733997  0  4.129112  0  0  0.238845  0.672515  0  4.145427  0
C  C55  1  0.54196765  0.21354981  0.97482299  1  0  0.745415  0  3.848508  0  0  0.697926  0  4.141291  0  0  0.734022  0  4.129047  0  0  0.238827  0.672544  0  4.145356  0
N  N56  1  0.62022964  0.76882507  0.47498417  1  0  -0.231539  0  2.97297  0  0  -0.216452  0  3.224512  0  0  -0.22158  0  3.237574  0  0  -0.189387  -0.21329  0  3.217283  0
N  N57  1  0.37976645  0.23117247  0.52501331  1  0  -0.231518  0  2.972866  0  0  -0.216391  0  3.224422  0  0  -0.221521  0  3.237483  0  0  -0.189386  -0.213235  0  3.217187  0
N  N58  1  0.56301528  0.62668592  0.40953027  1  0  0.077304  0  3.516015  0  0  0.184185  0  3.705485  0  0  0.177669  0  3.728113  0  0  -0.117794  0.188226  0  3.690831  0
N  N59  1  0.43698385  0.37331273  0.59047040  1  0  0.077313  0  3.515932  0  0  0.184114  0  3.705483  0  0  0.177599  0  3.728112  0  0  -0.117783  0.188159  0  3.690832  0
O  O60  1  0.38361344  0.79422753  0.92313050  1  0  -0.748394  0  2.096063  0  0  -0.707376  0  2.356819  0  0  -0.732334  0  2.344209  0  0  -0.40197  -0.678913  0  2.367878  0
O  O61  1  0.61639217  0.20576572  0.07686619  1  0  -0.748395  0  2.096051  0  0  -0.7074  0  2.356769  0  0  -0.732358  0  2.34416  0  0  -0.401985  -0.678938  0  2.367828  0
O  O62  1  0.65670948  0.95198814  0.80886603  1  0  -0.916394  0  1.884616  0  0  -0.879777  0  2.084218  0  0  -0.896538  0  2.052354  0  0  -0.645429  -0.858172  0  2.1117  0
O  O63  1  0.34329196  0.04801263  0.19112606  1  0  -0.916378  0  1.884567  0  0  -0.879699  0  2.084291  0  0  -0.8965  0  2.052324  0  0  -0.645398  -0.858096  0  2.111772  0
O  O64  1  0.06000893  0.89184023  0.86741328  1  0  -0.89839  0  1.889777  0  0  -0.860475  0  2.082054  0  0  -0.878286  0  2.049618  0  0  -0.628585  -0.838836  0  2.108293  0
O  O65  1  0.93999195  0.10815951  0.13258702  1  0  -0.898383  0  1.889787  0  0  -0.860453  0  2.082035  0  0  -0.87828  0  2.049631  0  0  -0.62857  -0.838816  0  2.108272  0
O  O66  1  0.37138708  0.89673354  0.57850812  1  0  -0.961688  0  1.925224  0  0  -0.924292  0  2.142765  0  0  -0.942743  0  2.107967  0  0  -0.669225  -0.89997  0  2.172501  0
O  O67  1  0.62860995  0.10326293  0.42149176  1  0  -0.96159  0  1.925225  0  0  -0.924213  0  2.142778  0  0  -0.942652  0  2.107955  0  0  -0.669219  -0.899894  0  2.172513  0
O  O68  1  0.40498546  0.11608133  0.89309074  1  0  -0.767687  0  2.045952  0  0  -0.729022  0  2.308691  0  0  -0.753428  0  2.293176  0  0  -0.423097  -0.699796  0  2.321006  0
O  O69  1  0.59501438  0.88391950  0.10691140  1  0  -0.767737  0  2.045979  0  0  -0.72905  0  2.308771  0  0  -0.753454  0  2.293253  0  0  -0.42314  -0.699826  0  2.321086  0
O  O70  1  0.08211730  0.95802407  0.66679564  1  0  -0.705388  0  2.065217  0  0  -0.663037  0  2.330554  0  0  -0.687447  0  2.318103  0  0  -0.390731  -0.635762  0  2.340219  0
O  O71  1  0.91788159  0.04197782  0.33320410  1  0  -0.705467  0  2.06531  0  0  -0.663082  0  2.330672  0  0  -0.687492  0  2.31822  0  0  -0.390768  -0.635809  0  2.340334  0
O  O72  1  0.15064115  0.62887394  0.66822663  1  0  -0.689986  0  1.941208  0  0  -0.65169  0  2.17495  0  0  -0.67537  0  2.165123  0  0  -0.37883  -0.626677  0  2.181452  0
O  O73  1  0.84936146  0.37112689  0.33177414  1  0  -0.690059  0  1.941202  0  0  -0.651749  0  2.174908  0  0  -0.675434  0  2.16509  0  0  -0.378854  -0.626738  0  2.181408  0
O  O74  1  0.46340402  0.68155395  0.68994152  1  0  -0.686539  0  2.004139  0  0  -0.647814  0  2.247934  0  0  -0.673158  0  2.240979  0  0  -0.371418  -0.623582  0  2.252012  0
O  O75  1  0.53660125  0.31844692  0.31006298  1  0  -0.686638  0  2.004232  0  0  -0.647923  0  2.248043  0  0  -0.673254  0  2.241057  0  0  -0.371493  -0.623691  0  2.252124  0
O  O76  1  0.84829737  0.05386064  0.60971450  1  0  -0.606738  0  2.018561  0  0  -0.537507  0  2.229505  0  0  -0.563638  0  2.21874  0  0  -0.297085  -0.520338  0  2.238455  0
O  O77  1  0.15170197  0.94614231  0.39028130  1  0  -0.60676  0  2.018421  0  0  -0.53751  0  2.229415  0  0  -0.563637  0  2.218628  0  0  -0.297145  -0.520355  0  2.238374  0
O  O78  1  0.03443984  0.27843928  0.78475966  1  0  -0.529504  0  2.109018  0  0  -0.475082  0  2.336356  0  0  -0.500218  0  2.325247  0  0  -0.302383  -0.457908  0  2.343905  0
O  O79  1  0.96556180  0.72156262  0.21523956  1  0  -0.529477  0  2.109047  0  0  -0.475057  0  2.336405  0  0  -0.500197  0  2.325281  0  0  -0.302392  -0.457884  0  2.343951  0
O  O80  1  0.97499133  0.16759966  0.92119950  1  0  -0.648405  0  2.051664  0  0  -0.576177  0  2.26403  0  0  -0.60166  0  2.253193  0  0  -0.289964  -0.559189  0  2.272452  0
O  O81  1  0.02501226  0.83240010  0.07880197  1  0  -0.648388  0  2.05168  0  0  -0.576116  0  2.264031  0  0  -0.601615  0  2.253202  0  0  -0.289946  -0.559122  0  2.272429  0
