# generated using pymatgen
data_CdH5C9(N3O)2
_symmetry_space_group_name_H-M   'P 1'
_cell_length_a   8.55592719
_cell_length_b   10.13882675
_cell_length_c   12.99882975
_cell_angle_alpha   90.00002518
_cell_angle_beta   90.00002917
_cell_angle_gamma   107.78782983
_symmetry_Int_Tables_number   1
_chemical_formula_structural   CdH5C9(N3O)2
_chemical_formula_sum   'Cd4 H20 C36 N24 O8'
_cell_volume   1073.70411324
_cell_formula_units_Z   4
loop_
 _symmetry_equiv_pos_site_id
 _symmetry_equiv_pos_as_xyz
  1  'x, y, z'
loop_
 _atom_site_type_symbol
 _atom_site_label
 _atom_site_symmetry_multiplicity
 _atom_site_fract_x
 _atom_site_fract_y
 _atom_site_fract_z
 _atom_site_occupancy
 _atom_site_hle17_bader_spin_density
 _atom_site_hle17_ddec_charge
 _atom_site_hle17_ddec_spin_density
 _atom_site_hle17_ddec_sum_bond_order
 _atom_site_hle17_magmom
 _atom_site_hse06_10hf_bader_spin_density
 _atom_site_hse06_10hf_ddec_charge
 _atom_site_hse06_10hf_ddec_spin_density
 _atom_site_hse06_10hf_ddec_sum_bond_order
 _atom_site_hse06_10hf_magmom
 _atom_site_hse06_bader_spin_density
 _atom_site_hse06_ddec_charge
 _atom_site_hse06_ddec_spin_density
 _atom_site_hse06_ddec_sum_bond_order
 _atom_site_hse06_magmom
 _atom_site_pbe_bader_spin_density
 _atom_site_pbe_cm5_charge
 _atom_site_pbe_ddec_charge
 _atom_site_pbe_ddec_spin_density
 _atom_site_pbe_ddec_sum_bond_order
 _atom_site_pbe_magmom
Cd  Cd0  1  0.72125077  0.95281374  0.54907894  1  0  1.056945  0  1.844834  0  0  0.843475  0  2.323043  0  0  0.896254  0  2.273903  0  0  0.80607  0.805483  0  2.357056  0
Cd  Cd1  1  0.77874870  0.54718486  0.04907772  1  0  1.05699  0  1.8448  0  0  0.843533  0  2.323006  0  0  0.89631  0  2.273865  0  0  0.806087  0.805542  0  2.357018  0
Cd  Cd2  1  0.27874505  0.04718489  0.45092219  1  0  1.056961  0  1.844883  0  0  0.843496  0  2.323099  0  0  0.896275  0  2.273954  0  0  0.806092  0.805505  0  2.357112  0
Cd  Cd3  1  0.22125296  0.45281377  0.95092264  1  0  1.056948  0  1.844804  0  0  0.843526  0  2.323022  0  0  0.896304  0  2.273879  0  0  0.80609  0.805535  0  2.357034  0
H  H4  1  0.06448201  0.00343909  0.69246158  1  0  0.107663  0  0.962492  0  0  0.10444  0  1.04082  0  0  0.108975  0  1.036413  0  0  0.121652  0.101074  0  1.044207  0
H  H5  1  0.43551919  0.49656246  0.19246287  1  0  0.107613  0  0.962545  0  0  0.104397  0  1.040877  0  0  0.108933  0  1.036468  0  0  0.121632  0.101032  0  1.04426  0
H  H6  1  0.93551690  0.99656162  0.30753801  1  0  0.107633  0  0.962487  0  0  0.104409  0  1.040828  0  0  0.108946  0  1.036418  0  0  0.121631  0.101043  0  1.044215  0
H  H7  1  0.56448284  0.50343720  0.80753903  1  0  0.107635  0  0.962509  0  0  0.104414  0  1.04084  0  0  0.10895  0  1.036432  0  0  0.121628  0.101048  0  1.044227  0
H  H8  1  0.22758698  0.17863102  0.82293953  1  0  0.105386  0  0.946975  0  0  0.110866  0  1.008371  0  0  0.113762  0  1.006937  0  0  0.125318  0.108765  0  1.009525  0
H  H9  1  0.27241320  0.32137064  0.32294071  1  0  0.105411  0  0.946921  0  0  0.11091  0  1.008298  0  0  0.113808  0  1.00686  0  0  0.125338  0.108809  0  1.009454  0
H  H10  1  0.77241310  0.82136968  0.17706005  1  0  0.105424  0  0.946929  0  0  0.110904  0  1.008318  0  0  0.1138  0  1.006882  0  0  0.125346  0.108803  0  1.009472  0
H  H11  1  0.72758767  0.67862903  0.67706042  1  0  0.105413  0  0.946911  0  0  0.110899  0  1.008304  0  0  0.113796  0  1.006867  0  0  0.12534  0.108798  0  1.009459  0
H  H12  1  0.87715196  0.38655923  0.81125940  1  0  0.113868  0  0.933503  0  0  0.11602  0  1.0034  0  0  0.119787  0  1.000197  0  0  0.126166  0.113266  0  1.005855  0
H  H13  1  0.62284670  0.11343872  0.31126122  1  0  0.113912  0  0.933444  0  0  0.116066  0  1.00334  0  0  0.119837  0  1.000131  0  0  0.126184  0.113308  0  1.005792  0
H  H14  1  0.12284849  0.61344251  0.18874096  1  0  0.113843  0  0.933485  0  0  0.116008  0  1.003369  0  0  0.119776  0  1.000165  0  0  0.126186  0.113253  0  1.005823  0
H  H15  1  0.37715338  0.88656198  0.68874144  1  0  0.113865  0  0.933469  0  0  0.116007  0  1.003375  0  0  0.119776  0  1.000168  0  0  0.126168  0.113251  0  1.005829  0
H  H16  1  0.74476442  0.56682124  0.47964494  1  0  0.105308  0  0.952064  0  0  0.109937  0  1.020734  0  0  0.114324  0  1.017114  0  0  0.102385  0.106528  0  1.023676  0
H  H17  1  0.75523509  0.93317980  0.97964078  1  0  0.105314  0  0.952092  0  0  0.109954  0  1.020755  0  0  0.114342  0  1.017136  0  0  0.102375  0.106542  0  1.023701  0
H  H18  1  0.25523483  0.43318361  0.52035465  1  0  0.105343  0  0.952044  0  0  0.109968  0  1.020719  0  0  0.114354  0  1.017101  0  0  0.102401  0.106558  0  1.023661  0
H  H19  1  0.24476352  0.06681365  0.02035573  1  0  0.105326  0  0.952051  0  0  0.109976  0  1.020698  0  0  0.114363  0  1.017079  0  0  0.102398  0.106564  0  1.023643  0
H  H20  1  0.25734406  0.67760061  0.55435621  1  0  0.090349  0  0.974489  0  0  0.09802  0  1.041538  0  0  0.100634  0  1.041169  0  0  0.095781  0.095761  0  1.042367  0
H  H21  1  0.24265854  0.82239652  0.05435584  1  0  0.090365  0  0.974492  0  0  0.097996  0  1.041589  0  0  0.100624  0  1.041203  0  0  0.095776  0.095734  0  1.042427  0
H  H22  1  0.74265560  0.32240217  0.44564414  1  0  0.090356  0  0.974446  0  0  0.098014  0  1.041513  0  0  0.100642  0  1.041128  0  0  0.095795  0.095758  0  1.04234  0
H  H23  1  0.75734470  0.17760004  0.94564221  1  0  0.090343  0  0.974479  0  0  0.097994  0  1.041554  0  0  0.100622  0  1.041171  0  0  0.095785  0.095737  0  1.042382  0
C  C24  1  0.82790989  0.20452238  0.71377751  1  0  0.139924  0  3.758839  0  0  0.141809  0  3.997636  0  0  0.144735  0  4.018094  0  0  0.136947  0.139588  0  3.983849  0
C  C25  1  0.67208787  0.29547652  0.21377864  1  0  0.139871  0  3.758872  0  0  0.141725  0  3.997651  0  0  0.144649  0  4.018111  0  0  0.136936  0.139505  0  3.983861  0
C  C26  1  0.17209131  0.79548143  0.28622131  1  0  0.139853  0  3.758903  0  0  0.14173  0  3.997689  0  0  0.144656  0  4.018148  0  0  0.136918  0.13951  0  3.983899  0
C  C27  1  0.32791338  0.70452418  0.78622403  1  0  0.139872  0  3.75875  0  0  0.141727  0  3.997558  0  0  0.144652  0  4.018017  0  0  0.136915  0.139508  0  3.98377  0
C  C28  1  0.02279325  0.08900931  0.71942632  1  0  0.113234  0  3.633221  0  0  0.084716  0  3.887978  0  0  0.088141  0  3.902917  0  0  0.069989  0.082284  0  3.878125  0
C  C29  1  0.47720953  0.41099330  0.21942836  1  0  0.113241  0  3.633219  0  0  0.084686  0  3.88802  0  0  0.088107  0  3.902966  0  0  0.069935  0.082255  0  3.878168  0
C  C30  1  0.97720566  0.91099140  0.28057481  1  0  0.11329  0  3.63321  0  0  0.084746  0  3.888004  0  0  0.088168  0  3.902949  0  0  0.07  0.082313  0  3.87815  0
C  C31  1  0.52279289  0.58900740  0.78057430  1  0  0.113217  0  3.63327  0  0  0.084704  0  3.888039  0  0  0.088126  0  3.902983  0  0  0.069989  0.082272  0  3.878188  0
C  C32  1  0.11330239  0.18568568  0.79034427  1  0  0.098334  0  3.62602  0  0  0.067611  0  3.877632  0  0  0.071097  0  3.893668  0  0  0.063662  0.065153  0  3.866939  0
C  C33  1  0.38669813  0.31431699  0.29034549  1  0  0.098402  0  3.625919  0  0  0.067644  0  3.877544  0  0  0.07113  0  3.893579  0  0  0.06369  0.065181  0  3.866859  0
C  C34  1  0.88669690  0.81431606  0.20965531  1  0  0.098396  0  3.625991  0  0  0.067677  0  3.877611  0  0  0.071164  0  3.893645  0  0  0.063699  0.065218  0  3.866919  0
C  C35  1  0.61330349  0.68568475  0.70965641  1  0  0.098447  0  3.625944  0  0  0.067687  0  3.877577  0  0  0.071173  0  3.893614  0  0  0.06371  0.065226  0  3.866891  0
C  C36  1  0.92027024  0.30201545  0.78416234  1  0  0.067616  0  3.626301  0  0  0.030365  0  3.881511  0  0  0.033383  0  3.896585  0  0  0.064102  0.028253  0  3.871518  0
C  C37  1  0.57972568  0.19798144  0.28416263  1  0  0.067629  0  3.62622  0  0  0.030356  0  3.881446  0  0  0.033371  0  3.89652  0  0  0.064081  0.02825  0  3.871446  0
C  C38  1  0.07973214  0.69798836  0.21583495  1  0  0.067707  0  3.626174  0  0  0.030464  0  3.881372  0  0  0.033482  0  3.896444  0  0  0.064117  0.028352  0  3.871376  0
C  C39  1  0.42027440  0.80201926  0.71583926  1  0  0.067746  0  3.626143  0  0  0.030531  0  3.881298  0  0  0.033549  0  3.896369  0  0  0.064156  0.028421  0  3.871303  0
C  C40  1  0.67269962  0.21065156  0.67132135  1  0  0.221597  0  3.830345  0  0  0.199076  0  4.098936  0  0  0.206145  0  4.1184  0  0  0.20891  0.194518  0  4.085505  0
C  C41  1  0.82729848  0.28934834  0.17132176  1  0  0.221568  0  3.830356  0  0  0.199099  0  4.098887  0  0  0.206171  0  4.118345  0  0  0.208898  0.194539  0  4.085456  0
C  C42  1  0.32729775  0.78934811  0.32867978  1  0  0.221673  0  3.830283  0  0  0.199153  0  4.098879  0  0  0.206227  0  4.118337  0  0  0.208965  0.194594  0  4.085447  0
C  C43  1  0.17270277  0.71065236  0.82868013  1  0  0.221584  0  3.830335  0  0  0.199109  0  4.09888  0  0  0.20618  0  4.118342  0  0  0.208932  0.194549  0  4.085451  0
C  C44  1  0.00105935  0.63575817  0.52077391  1  0  -0.070043  0  3.752404  0  0  -0.046637  0  3.985657  0  0  -0.054161  0  4.008831  0  0  -0.023528  -0.042138  0  3.970332  0
C  C45  1  0.49894163  0.86424100  0.02076979  1  0  -0.070029  0  3.752444  0  0  -0.046504  0  3.985556  0  0  -0.054026  0  4.008732  0  0  -0.023482  -0.042008  0  3.97023  0
C  C46  1  0.99894069  0.36424564  0.47922645  1  0  -0.070084  0  3.752493  0  0  -0.046617  0  3.985671  0  0  -0.054138  0  4.008846  0  0  -0.023502  -0.042119  0  3.970347  0
C  C47  1  0.50105853  0.13575348  0.97922518  1  0  -0.070106  0  3.752396  0  0  -0.04667  0  3.985652  0  0  -0.054194  0  4.00883  0  0  -0.023509  -0.042173  0  3.970327  0
C  C48  1  0.85553280  0.53629166  0.48890578  1  0  -0.071986  0  3.725679  0  0  -0.093521  0  3.972866  0  0  -0.094268  0  3.992094  0  0  -0.088829  -0.093213  0  3.960631  0
C  C49  1  0.64446789  0.96370939  0.98890391  1  0  -0.072077  0  3.72579  0  0  -0.093656  0  3.972954  0  0  -0.094404  0  3.992181  0  0  -0.088851  -0.093345  0  3.960713  0
C  C50  1  0.14446569  0.46371112  0.51109380  1  0  -0.072025  0  3.72582  0  0  -0.093579  0  3.972998  0  0  -0.094326  0  3.992221  0  0  -0.088848  -0.093272  0  3.960763  0
C  C51  1  0.35553265  0.03628614  0.01109337  1  0  -0.071971  0  3.725827  0  0  -0.093514  0  3.972979  0  0  -0.094263  0  3.992208  0  0  -0.088821  -0.093204  0  3.960737  0
C  C52  1  0.14508738  0.59853650  0.53129411  1  0  -0.074758  0  3.750643  0  0  -0.097697  0  3.999897  0  0  -0.098801  0  4.021676  0  0  -0.093855  -0.096878  0  3.985901  0
C  C53  1  0.35491323  0.90146165  0.03129226  1  0  -0.074858  0  3.750844  0  0  -0.097803  0  4.000093  0  0  -0.098916  0  4.021866  0  0  -0.093905  -0.096986  0  3.986093  0
C  C54  1  0.85491383  0.40146731  0.46870702  1  0  -0.074801  0  3.750557  0  0  -0.097749  0  3.999806  0  0  -0.098864  0  4.021578  0  0  -0.093901  -0.096935  0  3.985816  0
C  C55  1  0.64508692  0.09853284  0.96870502  1  0  -0.074718  0  3.750603  0  0  -0.097648  0  3.999865  0  0  -0.098763  0  4.02164  0  0  -0.09387  -0.096832  0  3.985871  0
C  C56  1  0.00156653  0.78151780  0.54232126  1  0  0.66845  0  3.90707  0  0  0.610758  0  4.208477  0  0  0.64668  0  4.19888  0  0  0.207977  0.586953  0  4.213205  0
C  C57  1  0.49843484  0.71848242  0.04231786  1  0  0.668531  0  3.907205  0  0  0.610769  0  4.20867  0  0  0.646691  0  4.199069  0  0  0.207955  0.586965  0  4.213397  0
C  C58  1  0.99843313  0.21848497  0.45767987  1  0  0.668528  0  3.907046  0  0  0.610804  0  4.208468  0  0  0.646724  0  4.198866  0  0  0.207944  0.587  0  4.213197  0
C  C59  1  0.50156411  0.28151517  0.95768096  1  0  0.668561  0  3.907097  0  0  0.610845  0  4.208544  0  0  0.646768  0  4.198942  0  0  0.207912  0.58704  0  4.213274  0
N  N60  1  0.88151319  0.09903001  0.68185155  1  0  -0.302395  0  3.193743  0  0  -0.236777  0  3.444508  0  0  -0.251543  0  3.4622  0  0  -0.299224  -0.226462  0  3.432318  0
N  N61  1  0.61848763  0.40097094  0.18185347  1  0  -0.302363  0  3.19373  0  0  -0.236692  0  3.444469  0  0  -0.251459  0  3.462161  0  0  -0.299172  -0.226377  0  3.432278  0
N  N62  1  0.11848609  0.90097173  0.31814881  1  0  -0.302437  0  3.193854  0  0  -0.2368  0  3.444621  0  0  -0.25157  0  3.462315  0  0  -0.299216  -0.226485  0  3.432429  0
N  N63  1  0.38151362  0.59902976  0.81814766  1  0  -0.302392  0  3.193775  0  0  -0.236773  0  3.444547  0  0  -0.251539  0  3.462239  0  0  -0.299214  -0.226458  0  3.432357  0
N  N64  1  0.06167558  0.29148066  0.82194559  1  0  -0.271963  0  3.214147  0  0  -0.205667  0  3.48485  0  0  -0.219578  0  3.50204  0  0  -0.300913  -0.195752  0  3.472994  0
N  N65  1  0.43832343  0.20852100  0.32194678  1  0  -0.272004  0  3.214077  0  0  -0.205677  0  3.484762  0  0  -0.219587  0  3.501955  0  0  -0.300906  -0.19576  0  3.472903  0
N  N66  1  0.93832371  0.70852108  0.17805477  1  0  -0.272025  0  3.214196  0  0  -0.205748  0  3.484927  0  0  -0.21966  0  3.502119  0  0  -0.30096  -0.195833  0  3.47307  0
N  N67  1  0.56167510  0.79147867  0.67805357  1  0  -0.272102  0  3.214227  0  0  -0.205795  0  3.484946  0  0  -0.219707  0  3.502138  0  0  -0.300981  -0.195878  0  3.47309  0
N  N68  1  0.58418586  0.11426223  0.60540539  1  0  -0.32299  0  3.158585  0  0  -0.272471  0  3.437359  0  0  -0.287488  0  3.455145  0  0  -0.233185  -0.261988  0  3.424867  0
N  N69  1  0.91581216  0.38573762  0.10540586  1  0  -0.323027  0  3.158579  0  0  -0.272519  0  3.437336  0  0  -0.287538  0  3.455122  0  0  -0.233212  -0.262037  0  3.424844  0
N  N70  1  0.41581033  0.88573744  0.39459574  1  0  -0.323087  0  3.158601  0  0  -0.272572  0  3.437391  0  0  -0.287591  0  3.455176  0  0  -0.23326  -0.262088  0  3.424897  0
N  N71  1  0.08418871  0.61426205  0.89459450  1  0  -0.323047  0  3.158636  0  0  -0.272534  0  3.437385  0  0  -0.287552  0  3.455171  0  0  -0.233222  -0.262051  0  3.424892  0
N  N72  1  0.45610814  0.15703290  0.58033081  1  0  -0.122454  0  3.187024  0  0  -0.066851  0  3.484407  0  0  -0.077868  0  3.501782  0  0  -0.117639  -0.058951  0  3.472067  0
N  N73  1  0.04389102  0.34296649  0.08033114  1  0  -0.122419  0  3.187014  0  0  -0.066814  0  3.484398  0  0  -0.077828  0  3.501771  0  0  -0.117616  -0.058913  0  3.472057  0
N  N74  1  0.54388997  0.84296884  0.41966878  1  0  -0.122367  0  3.186934  0  0  -0.066758  0  3.484308  0  0  -0.077774  0  3.501684  0  0  -0.117596  -0.058857  0  3.471968  0
N  N75  1  0.95610947  0.65703214  0.91966845  1  0  -0.122441  0  3.187053  0  0  -0.066839  0  3.484438  0  0  -0.077855  0  3.501812  0  0  -0.117634  -0.058937  0  3.472098  0
N  N76  1  0.46566447  0.27497740  0.62920292  1  0  -0.072687  0  2.905458  0  0  -0.072929  0  3.197026  0  0  -0.0709  0  3.210111  0  0  -0.093809  -0.07388  0  3.187813  0
N  N77  1  0.03433629  0.22502306  0.12920398  1  0  -0.072735  0  2.90555  0  0  -0.072981  0  3.197124  0  0  -0.070953  0  3.210209  0  0  -0.093844  -0.073934  0  3.18791  0
N  N78  1  0.53433636  0.72502538  0.37079667  1  0  -0.072737  0  2.905394  0  0  -0.072974  0  3.196957  0  0  -0.070943  0  3.210041  0  0  -0.09381  -0.073926  0  3.187744  0
N  N79  1  0.96566304  0.77497557  0.87079638  1  0  -0.072684  0  2.905451  0  0  -0.072927  0  3.197019  0  0  -0.070896  0  3.210104  0  0  -0.093815  -0.073879  0  3.187807  0
N  N80  1  0.60103740  0.31045308  0.68707585  1  0  -0.268929  0  2.924504  0  0  -0.248332  0  3.211688  0  0  -0.258375  0  3.225267  0  0  -0.203915  -0.241299  0  3.202258  0
N  N81  1  0.89896188  0.18954684  0.18707702  1  0  -0.268875  0  2.924601  0  0  -0.24829  0  3.21176  0  0  -0.258334  0  3.22534  0  0  -0.203869  -0.241257  0  3.202328  0
N  N82  1  0.39896113  0.68954659  0.31292451  1  0  -0.268924  0  2.924495  0  0  -0.248333  0  3.211681  0  0  -0.258378  0  3.225261  0  0  -0.203934  -0.2413  0  3.202251  0
N  N83  1  0.10103782  0.81045283  0.81292333  1  0  -0.268907  0  2.924494  0  0  -0.248323  0  3.211657  0  0  -0.258369  0  3.225237  0  0  -0.203887  -0.241289  0  3.202227  0
O  O84  1  0.13756912  0.87335874  0.56137378  1  0  -0.66404  0  2.052393  0  0  -0.603037  0  2.329705  0  0  -0.629281  0  2.315134  0  0  -0.341033  -0.583933  0  2.338584  0
O  O85  1  0.36243424  0.62664047  0.06137261  1  0  -0.664084  0  2.052425  0  0  -0.603056  0  2.329738  0  0  -0.629315  0  2.3152  0  0  -0.341027  -0.583951  0  2.338616  0
O  O86  1  0.86243171  0.12664404  0.43862734  1  0  -0.664103  0  2.052454  0  0  -0.603055  0  2.329711  0  0  -0.62932  0  2.315189  0  0  -0.341022  -0.583951  0  2.338588  0
O  O87  1  0.63756587  0.37335713  0.93862774  1  0  -0.664166  0  2.052487  0  0  -0.603122  0  2.329793  0  0  -0.629365  0  2.315215  0  0  -0.341031  -0.584018  0  2.338675  0
O  O88  1  0.86155643  0.80075019  0.54022122  1  0  -0.646415  0  2.088049  0  0  -0.573183  0  2.359712  0  0  -0.601657  0  2.345663  0  0  -0.333046  -0.553136  0  2.368459  0
O  O89  1  0.63844495  0.69925048  0.04021923  1  0  -0.646425  0  2.088136  0  0  -0.573192  0  2.359849  0  0  -0.601665  0  2.345803  0  0  -0.333025  -0.553145  0  2.368596  0
O  O90  1  0.13843981  0.19924638  0.45977914  1  0  -0.646455  0  2.088061  0  0  -0.573207  0  2.35972  0  0  -0.601679  0  2.34567  0  0  -0.333031  -0.553162  0  2.368469  0
O  O91  1  0.36155668  0.30075126  0.95977959  1  0  -0.646348  0  2.088031  0  0  -0.573198  0  2.359809  0  0  -0.601673  0  2.34576  0  0  -0.333008  -0.553152  0  2.368557  0
