# generated using pymatgen
data_Zn2H13C36N6Cl7O8
_symmetry_space_group_name_H-M   'P 1'
_cell_length_a   13.26862560
_cell_length_b   13.59318561
_cell_length_c   14.36887118
_cell_angle_alpha   82.81315155
_cell_angle_beta   64.57066873
_cell_angle_gamma   77.25629769
_symmetry_Int_Tables_number   1
_chemical_formula_structural   Zn2H13C36N6Cl7O8
_chemical_formula_sum   'Zn2 H13 C36 N6 Cl7 O8'
_cell_volume   2281.51077129
_cell_formula_units_Z   1
loop_
 _symmetry_equiv_pos_site_id
 _symmetry_equiv_pos_as_xyz
  1  'x, y, z'
loop_
 _atom_site_type_symbol
 _atom_site_label
 _atom_site_symmetry_multiplicity
 _atom_site_fract_x
 _atom_site_fract_y
 _atom_site_fract_z
 _atom_site_occupancy
 _atom_site_pbe_bader_charge
 _atom_site_pbe_bader_spin_density
 _atom_site_pbe_cm5_charge
 _atom_site_pbe_ddec_charge
 _atom_site_pbe_ddec_spin_density
 _atom_site_pbe_ddec_sum_bond_order
 _atom_site_pbe_magmom
Zn  Zn0  1  0.62882873  0.49443886  0.46009199  1  1.303643  0  0.676662  0.860229  0  2.353397  0
Zn  Zn1  1  0.39663448  0.47800577  0.56813935  1  1.293305  0  0.657134  0.870032  0  2.337502  0
H  H2  1  0.81093180  0.45106390  0.52133244  1  0.155284  0  0.112286  0.099592  0  1.058714  0
H  H3  1  0.06434518  0.30696833  0.66741311  1  0.13641  0  0.122858  0.158518  0  0.969543  0
H  H4  1  0.69378341  0.24749481  0.30100396  1  0.082932  0  0.105113  0.123238  0  1.000328  0
H  H5  1  0.57443473  0.97301175  0.31789245  1  0.070171  0  0.101528  0.115929  0  1.025041  0
H  H6  1  0.45351685  0.19635075  0.66039036  1  0.120501  0  0.102853  0.133233  0  1.014448  0
H  H7  1  0.23921417  0.70310969  0.64219780  1  0.511974  0  0.297803  0.316949  0  0.989445  0
H  H8  1  0.15247807  0.79637934  0.73455192  1  0.464457  0  0.288612  0.289731  0  0.989896  0
H  H9  1  0.92134939  0.68647211  0.14768099  1  0.4713  0  0.300997  0.301294  0  0.975408  0
H  H10  1  0.04549013  0.69800996  0.15740196  1  0.483462  0  0.290054  0.300375  0  1.01244  0
H  H11  1  0.65163579  0.86793112  0.39560873  1  0.432901  0  0.299725  0.294231  0  0.962048  0
H  H12  1  0.61573193  0.74896327  0.41490261  1  0.501534  0  0.286134  0.295195  0  1.027503  0
H  H13  1  0.70553160  0.17115457  0.15104830  1  0.454203  0  0.307579  0.300841  0  0.943834  0
H  H14  1  0.66348954  0.06097877  0.15807456  1  0.426834  0  0.306249  0.298992  0  0.944  0
C  C15  1  0.57847947  0.29782285  0.49140508  1  1.559847  0  0.217153  0.603936  0  4.139126  0
C  C16  1  0.47396783  0.45885230  0.25546008  1  0.123001  0  -0.015817  -0.133381  0  3.852331  0
C  C17  1  0.29065941  0.92105161  0.67235051  1  0.037091  0  -0.030944  -0.055137  0  3.988967  0
C  C18  1  0.41372269  0.79021102  0.54906076  1  0.046651  0  -0.051916  -0.285632  0  3.900597  0
C  C19  1  0.64662684  0.18880824  0.34585817  1  -0.004005  0  -0.100958  -0.219031  0  3.951821  0
C  C20  1  0.64019651  0.10841011  0.29668579  1  0.318109  0  0.085593  0.301667  0  4.154475  0
C  C21  1  0.58174255  0.03323781  0.35676508  1  -0.035477  0  -0.116406  -0.281178  0  3.962444  0
C  C22  1  0.52494293  0.03723261  0.46533621  1  0.017232  0  -0.005092  0.069731  0  3.993332  0
C  C23  1  0.52068961  0.12522939  0.51319579  1  0.061608  0  -0.019414  0.042063  0  4.001575  0
C  C24  1  0.46207848  0.96037029  0.52810187  1  0.009948  0  -0.026956  -0.101172  0  3.924856  0
C  C25  1  0.37196531  0.98446906  0.62794493  1  0.056521  0  -0.013053  0.003184  0  4.032169  0
C  C26  1  0.51626858  0.48242919  0.69490588  1  1.703743  0  0.221388  0.657956  0  4.24592  0
C  C27  1  0.37730387  0.07073187  0.67409872  1  0.017341  0  -0.000482  0.099687  0  4.016697  0
C  C28  1  0.45100499  0.13490593  0.62034069  1  -0.002793  0  -0.10287  -0.190922  0  4.001734  0
C  C29  1  0.48958463  0.85820053  0.49663962  1  0.435187  0  0.111868  0.283276  0  4.038093  0
C  C30  1  0.30559725  0.82772027  0.63049070  1  0.542354  0  0.102708  0.266758  0  4.124328  0
C  C31  1  0.58531284  0.19903132  0.45144435  1  -0.052716  0  -0.015102  -0.052179  0  3.955527  0
C  C32  1  0.94042233  0.61320875  0.27347144  1  0.597472  0  0.110697  0.194779  0  4.076404  0
C  C33  1  0.13367680  0.44504212  0.61465362  1  0.68836  0  0.157795  0.304638  0  4.087008  0
C  C34  1  0.06807193  0.37551358  0.61905475  1  0.098409  0  -0.088534  -0.25605  0  3.943794  0
C  C35  1  0.00976496  0.39641004  0.55619645  1  0.040102  0  0.04099  0.161035  0  3.99041  0
C  C36  1  0.01938017  0.48418582  0.48946311  1  0.068217  0  0.003087  -0.050095  0  3.914639  0
C  C37  1  0.44653813  0.68210970  0.52579662  1  1.490339  0  0.212548  0.6231  0  4.100647  0
C  C38  1  0.10019347  0.54029876  0.48557682  1  0.571287  0  0.12391  0.191573  0  3.999867  0
C  C39  1  0.95844861  0.51888955  0.42485243  1  -0.024605  0  -0.003434  0.017873  0  3.990158  0
C  C40  1  0.00076934  0.58756498  0.33864610  1  0.035248  0  0.000168  -0.038916  0  3.906813  0
C  C41  1  0.09565467  0.63046806  0.32785564  1  0.093196  0  0.015472  0.052874  0  3.989574  0
C  C42  1  0.13618912  0.61503376  0.40361232  1  0.15512  0  0.017707  0.00968  0  4.020282  0
C  C43  1  0.85264024  0.49305083  0.45064095  1  0.544652  0  0.033381  0.023318  0  3.933981  0
C  C44  1  0.83651558  0.57912913  0.30743295  1  0.629137  0  0.128417  0.148639  0  4.023809  0
C  C45  1  0.47437057  0.46799346  0.35433523  1  1.689978  0  0.21459  0.644949  0  4.26635  0
C  C46  1  0.52213970  0.47219257  0.79387769  1  0.199772  0  -0.008663  -0.123209  0  3.832512  0
C  C47  1  0.51642695  0.46490403  0.88196254  1  -0.290548  0  -0.023586  0.004425  0  4.279017  0
C  C48  1  0.50689066  0.45892022  0.97918143  1  -0.112775  0  -0.011865  -0.01005  0  4.216712  0
C  C49  1  0.49508106  0.45581067  0.06950419  1  0.015837  0  -0.016036  -0.019499  0  4.224501  0
C  C50  1  0.48337252  0.45600520  0.16695106  1  -0.256302  0  -0.027326  0.003593  0  4.286455  0
N  N51  1  0.79260615  0.52459618  0.39440734  1  -1.274486  0  -0.326589  -0.239218  0  3.604716  0
N  N52  1  0.15085449  0.52351188  0.55140130  1  -1.192096  0  -0.309629  -0.313181  0  3.37432  0
N  N53  1  0.22102853  0.77360504  0.66905638  1  -1.293267  0  -0.59537  -0.596673  0  3.39293  0
N  N54  1  0.97382572  0.66910378  0.18414020  1  -1.275102  0  -0.589403  -0.588966  0  3.421809  0
N  N55  1  0.59090606  0.82559092  0.41576620  1  -1.256816  0  -0.60269  -0.615828  0  3.372667  0
N  N56  1  0.69332189  0.10401541  0.18974907  1  -1.227147  0  -0.601364  -0.62903  0  3.287329  0
Cl  Cl57  1  0.16197683  0.70724518  0.22350336  1  -0.165058  0  0.046609  -0.023387  0  1.601328  0
Cl  Cl58  1  0.20467255  0.42427801  0.69592764  1  -0.18463  0  0.072981  -0.005259  0  1.569577  0
Cl  Cl59  1  0.93577731  0.30620393  0.55813716  1  -0.153269  0  0.047278  -0.021333  0  1.488034  0
Cl  Cl60  1  0.23581218  0.67769567  0.39949915  1  -0.115399  0  0.044227  0.015684  0  1.671594  0
Cl  Cl61  1  0.30175381  0.09168020  0.80556905  1  -0.23095  0  -0.055531  -0.125476  0  1.518286  0
Cl  Cl62  1  0.15957122  0.95839234  0.77441514  1  -0.246659  0  -0.047124  -0.117592  0  1.607452  0
Cl  Cl63  1  0.75827249  0.61310055  0.23514752  1  -0.163336  0  0.053818  -0.018184  0  1.569424  0
O  O64  1  0.66359974  0.34211256  0.44657882  1  -1.152767  0  -0.322776  -0.541401  0  2.283668  0
O  O65  1  0.48469097  0.33563880  0.56376874  1  -1.180687  0  -0.322846  -0.567505  0  2.395136  0
O  O66  1  0.60873821  0.48034518  0.61449822  1  -1.13756  0  -0.304159  -0.537757  0  2.271094  0
O  O67  1  0.41618549  0.49303416  0.69984819  1  -1.121987  0  -0.313163  -0.534437  0  2.260056  0
O  O68  1  0.55271000  0.64283147  0.48229687  1  -1.174732  0  -0.319915  -0.559866  0  2.384401  0
O  O69  1  0.36847289  0.62906021  0.55158879  1  -1.16157  0  -0.316109  -0.55546  0  2.407737  0
O  O70  1  0.56192376  0.49503669  0.35026967  1  -1.135675  0  -0.307164  -0.550587  0  2.3229  0
O  O71  1  0.38859875  0.44918862  0.43504662  1  -1.132256  0  -0.305685  -0.525203  0  2.290462  0
