# generated using pymatgen
data_Mn3H22(C6N7)4
_symmetry_space_group_name_H-M   'P 1'
_cell_length_a   10.02476913
_cell_length_b   10.02511954
_cell_length_c   11.19538998
_cell_angle_alpha   100.33745571
_cell_angle_beta   109.06920792
_cell_angle_gamma   115.76953798
_symmetry_Int_Tables_number   1
_chemical_formula_structural   Mn3H22(C6N7)4
_chemical_formula_sum   'Mn3 H22 C24 N28'
_cell_volume   886.69632572
_cell_formula_units_Z   1
loop_
 _symmetry_equiv_pos_site_id
 _symmetry_equiv_pos_as_xyz
  1  'x, y, z'
loop_
 _atom_site_type_symbol
 _atom_site_label
 _atom_site_symmetry_multiplicity
 _atom_site_fract_x
 _atom_site_fract_y
 _atom_site_fract_z
 _atom_site_occupancy
 _atom_site_hle17_bader_charge
 _atom_site_hle17_bader_spin_density
 _atom_site_hle17_ddec_charge
 _atom_site_hle17_ddec_spin_density
 _atom_site_hle17_ddec_sum_bond_order
 _atom_site_hle17_magmom
 _atom_site_hse06_10hf_ddec_charge
 _atom_site_hse06_10hf_ddec_spin_density
 _atom_site_hse06_10hf_ddec_sum_bond_order
 _atom_site_hse06_10hf_magmom
 _atom_site_hse06_ddec_charge
 _atom_site_hse06_ddec_spin_density
 _atom_site_hse06_ddec_sum_bond_order
 _atom_site_hse06_magmom
 _atom_site_pbe_cm5_charge
 _atom_site_pbe_ddec_charge
 _atom_site_pbe_ddec_spin_density
 _atom_site_pbe_ddec_sum_bond_order
 _atom_site_pbe_magmom
Mn  Mn0  1  0.90998413  0.21410369  0.47465916  1  1.521289  -4.597308  0.95509  -4.712662  2.232383  -4.573  0.805057  -4.590352  2.779336  -4.384  0.852321  -4.677244  2.718853  -4.494  0.662968  0.767707  -4.491861  2.825314  -4.263
Mn  Mn1  1  0.73938902  0.43529013  0.52526748  1  1.520927  -4.597419  0.953074  -4.713123  2.234369  -4.573  0.802918  -4.591723  2.781336  -4.384  0.850134  -4.678538  2.721092  -4.494  0.66274  0.765611  -4.493339  2.827121  -4.263
Mn  Mn2  1  0.36079785  0.86083063  0.50009080  1  1.504789  -4.635513  0.879975  -4.750698  2.186516  -4.6  0.69435  -4.654254  2.725375  -4.431  0.748463  -4.719893  2.667272  -4.521  0.644056  0.654913  -4.579096  2.766821  -4.333
H  H3  1  0.55818755  0.72619693  0.50447958  1  0.518334  -0.000152  0.325364  0.00013  0.919542  0.0  0.304626  -0.00052  0.991082  0.0  0.311857  -0.00024  0.985743  0.0  0.307246  0.299097  -0.000686  0.995676  0.0
H  H4  1  0.22169166  0.05370987  0.49560037  1  0.488177  -0.000169  0.324769  0.000127  0.919624  0.0  0.303865  -0.000522  0.991142  0.0  0.311123  -0.000242  0.985799  0.0  0.307075  0.298372  -0.000687  0.995633  0.0
H  H5  1  0.73039390  0.73278802  0.61913426  1  0.535164  -2e-05  0.316559  0.000543  0.960189  0.0  0.295685  -5.4e-05  1.030811  -0.001  0.303232  0.000255  1.025883  0.0  0.29739  0.290344  -0.000588  1.034462  -0.001
H  H6  1  0.11358694  0.11110586  0.38081895  1  0.518835  -2.7e-05  0.318429  0.000543  0.957329  0.0  0.29742  -5.2e-05  1.028149  -0.001  0.304964  0.000257  1.023206  0.0  0.29805  0.292089  -0.000584  1.031809  -0.001
H  H7  1  0.28557381  0.35443338  0.70049801  1  0.080063  -0.000792  0.078806  -0.000364  0.979307  0.0  0.078125  -0.001016  1.058236  0.0  0.081047  -0.000732  1.055491  0.0  0.111006  0.075864  -0.001278  1.060651  -0.001
H  H8  1  0.65371287  0.58476878  0.29927980  1  0.098026  -0.000794  0.079189  -0.000366  0.979383  0.0  0.078776  -0.001017  1.058025  0.0  0.08165  -0.000732  1.055341  0.0  0.111528  0.076528  -0.001279  1.060451  -0.001
H  H9  1  0.43203603  0.29781246  0.89300800  1  0.090126  -0.000477  0.112258  -0.000345  0.942218  0.0  0.119674  -0.000724  1.003999  0.0  0.122806  -0.00055  1.002726  0.0  0.11172  0.117637  -0.000973  1.004774  0.0
H  H10  1  0.40454248  0.53886076  0.10690440  1  0.069765  -0.000484  0.113747  -0.000343  0.940688  0.0  0.121236  -0.000724  1.002475  0.0  0.124308  -0.00055  1.001268  0.0  0.111868  0.119218  -0.000974  1.003238  0.0
H  H11  1  0.26529766  0.05805652  0.93703993  1  0.058567  -5.8e-05  0.096341  -8.2e-05  0.955993  0.0  0.104912  -0.000343  1.019744  0.0  0.107571  -0.000274  1.018081  0.0  0.105589  0.102642  -0.000441  1.021613  0.0
H  H12  1  0.12075657  0.32815590  0.06298647  1  0.059795  -6.3e-05  0.096575  -8.2e-05  0.956384  0.0  0.105323  -0.000341  1.019931  0.0  0.107923  -0.000272  1.018324  0.0  0.105448  0.103027  -0.000439  1.021827  0.0
H  H13  1  0.95670016  0.88225172  0.78388802  1  0.031078  -0.000264  0.103826  0.00029  0.981983  0.0  0.111905  9.9e-05  1.046689  0.0  0.114876  0.000257  1.04629  0.0  0.107494  0.110064  -0.000144  1.046594  0.0
H  H14  1  0.09818052  0.17259931  0.21604192  1  0.046469  -0.000257  0.10295  0.000293  0.981221  0.0  0.110904  0.000101  1.046306  0.0  0.113895  0.000258  1.045863  0.0  0.106657  0.109059  -0.000142  1.046218  0.0
H  H15  1  0.57433009  0.94677543  0.23852113  1  0.075736  -5.1e-05  0.093428  0.00029  0.950036  0.001  0.100201  -0.00124  1.019867  0.0  0.103099  -0.000792  1.015748  0.0  0.129323  0.098241  -0.001615  1.022722  0.0
H  H16  1  0.70853009  0.33593404  0.76143764  1  0.075655  -7.2e-05  0.092282  0.00029  0.952128  0.001  0.099179  -0.001243  1.0222  0.0  0.102081  -0.000793  1.018018  0.0  0.128555  0.097235  -0.001619  1.025064  0.0
H  H17  1  0.32690930  0.84386527  0.02229248  1  0.01879  -0.000394  0.111913  -0.000231  0.935282  0.0  0.121082  -0.000725  0.995449  0.0  0.124526  -0.000565  0.994274  0.0  0.111936  0.118575  -0.000873  0.996297  0.0
H  H18  1  0.82164330  0.30480201  0.97784408  1  0.07152  -0.000373  0.111655  -0.000228  0.937032  0.0  0.120789  -0.000725  0.996993  0.0  0.124242  -0.000564  0.995798  0.0  0.111493  0.118278  -0.000873  0.99782  0.0
H  H19  1  0.01753162  0.72490816  0.89381478  1  0.064743  0.00011  0.099283  0.000639  0.964532  0.0  0.108438  0.000617  1.024016  0.0  0.111486  0.000689  1.02227  0.0  0.107128  0.105915  0.000511  1.025649  0.0
H  H20  1  0.83112088  0.12395574  0.10635855  1  0.080826  0.000104  0.100296  0.000636  0.964345  0.0  0.109918  0.000619  1.023361  0.0  0.113011  0.000691  1.021556  0.0  0.107724  0.107338  0.000513  1.025082  0.0
H  H21  1  0.84951480  0.67151443  0.02418781  1  0.031283  -0.000461  0.10898  -0.000369  0.971905  0.0  0.112147  -0.000942  1.041882  0.0  0.115722  -0.000736  1.040243  0.0  0.105991  0.109621  -0.00104  1.043  0.0
H  H22  1  0.64756267  0.82554635  0.97595028  1  0.089514  -0.000417  0.108414  -0.000364  0.972693  0.0  0.111583  -0.000941  1.042806  0.0  0.115143  -0.000736  1.04117  0.0  0.105603  0.109058  -0.00104  1.043928  0.0
H  H23  1  0.99379059  0.73361840  0.27203467  1  0.066677  -0.000609  0.078949  -0.00016  0.949062  0.0  0.083559  -0.000589  1.016859  0.0  0.086302  -0.000402  1.014683  0.0  0.118213  0.081364  -0.000766  1.018493  -0.001
H  H24  1  0.46179509  0.72198032  0.72811537  1  0.071501  -0.000616  0.077868  -0.000164  0.949817  0.0  0.082419  -0.000592  1.01787  0.0  0.085128  -0.000404  1.015707  0.0  0.117447  0.08027  -0.000769  1.019451  -0.001
C  C25  1  0.21691827  0.25078233  0.72194982  1  0.547944  -0.002441  0.139838  -0.001702  3.681988  -0.002  0.108307  -0.004311  3.94072  -0.003  0.114713  -0.00366  3.957266  -0.003  0.054552  0.103457  -0.00513  3.931047  -0.004
C  C26  1  0.52861918  0.49468815  0.27785966  1  0.543209  -0.002404  0.139992  -0.001679  3.681124  -0.002  0.108213  -0.004307  3.940246  -0.003  0.114634  -0.003653  3.956714  -0.003  0.052997  0.103344  -0.005131  3.9306  -0.004
C  C27  1  0.29812469  0.21840427  0.82944298  1  0.037379  -0.001757  -0.094445  -0.001222  3.691909  -0.001  -0.110364  -0.003028  3.945225  -0.002  -0.115527  -0.001073  3.965789  -0.001  -0.07281  -0.107777  -0.006568  3.932259  -0.005
C  C28  1  0.38871922  0.46846696  0.17043660  1  0.00547  -0.001798  -0.098496  -0.001259  3.691787  -0.001  -0.114704  -0.003044  3.945399  -0.002  -0.11985  -0.001096  3.966051  -0.001  -0.073777  -0.11211  -0.006575  3.932378  -0.005
C  C29  1  0.20447341  0.08457003  0.85271044  1  0.034898  -0.001417  0.003166  -0.000948  3.703621  -0.001  -0.012989  -0.002949  3.95049  -0.002  -0.010749  -0.002543  3.969082  -0.002  -0.061821  -0.014616  -0.003931  3.938794  -0.003
C  C30  1  0.23163551  0.35158754  0.14723088  1  0.049829  -0.00138  0.004019  -0.000914  3.703153  -0.001  -0.012103  -0.002939  3.949779  -0.002  -0.00981  -0.002532  3.968393  -0.002  -0.060421  -0.013704  -0.00392  3.938037  -0.003
C  C31  1  0.03317280  0.98752718  0.76790315  1  0.045025  -0.001502  -0.126055  -0.000867  3.688916  -0.001  -0.147881  -0.002316  3.932797  -0.002  -0.152714  -0.000747  3.953407  -0.001  -0.08088  -0.144829  -0.00439  3.919054  -0.003
C  C32  1  0.21943953  0.26502318  0.23198692  1  0.032585  -0.001539  -0.122204  -0.000901  3.684748  -0.001  -0.143567  -0.002319  3.928871  -0.002  -0.14843  -0.00074  3.949409  -0.001  -0.078679  -0.14052  -0.004398  3.915125  -0.003
C  C33  1  0.96133614  0.02706556  0.66130588  1  0.459867  -0.001739  0.136451  -0.000651  3.736141  -0.001  0.141657  -0.003975  3.973971  -0.003  0.144462  -0.002749  3.992845  -0.002  0.124972  0.138831  -0.00574  3.962271  -0.004
C  C34  1  0.36560625  0.29975524  0.33853936  1  0.496061  -0.001696  0.133819  -0.000618  3.737674  -0.001  0.137062  -0.003969  3.976265  -0.003  0.140014  -0.002755  3.994991  -0.002  0.122661  0.134233  -0.005734  3.964551  -0.004
C  C35  1  0.78059972  0.93255628  0.56732985  1  1.156822  -0.008537  0.424525  -0.006589  3.791119  -0.006  0.380139  -0.014426  4.069656  -0.012  0.404613  -0.00944  4.077076  -0.008  0.258372  0.362542  -0.020756  4.065774  -0.016
C  C36  1  0.36515493  0.21309681  0.43259782  1  1.141701  -0.00856  0.418101  -0.006609  3.796841  -0.006  0.376894  -0.014433  4.071671  -0.012  0.401193  -0.009449  4.079218  -0.008  0.255371  0.359354  -0.020759  4.06776  -0.016
C  C37  1  0.49577770  0.91018453  0.28918105  1  0.66006  -0.02745  0.05276  -0.022519  3.622579  -0.019  0.000846  -0.032947  3.894613  -0.025  0.015267  -0.024297  3.898934  -0.019  0.069027  -0.011874  -0.043182  3.89489  -0.031
C  C38  1  0.62125675  0.20672598  0.71083888  1  0.646918  -0.027472  0.054487  -0.022545  3.623927  -0.019  0.002496  -0.032941  3.896426  -0.025  0.016729  -0.024294  3.901053  -0.019  0.069677  -0.010227  -0.043155  3.896756  -0.031
C  C39  1  0.31954564  0.84676504  0.21293861  1  0.492564  0.001468  0.204142  0.002861  3.78725  0.002  0.207527  -0.003598  4.028376  -0.002  0.21219  -0.001429  4.047342  -0.001  0.119057  0.204698  -0.005801  4.015783  -0.003
C  C40  1  0.63407455  0.10679355  0.78714632  1  0.504702  0.001525  0.204409  0.002929  3.787487  0.002  0.206982  -0.003602  4.029994  -0.002  0.211756  -0.001424  4.048795  -0.001  0.117511  0.204081  -0.005809  4.017466  -0.003
C  C41  1  0.24826576  0.81743070  0.07345865  1  0.043787  -0.006756  -0.127033  -0.005259  3.689702  -0.004  -0.149775  -0.006306  3.940132  -0.004  -0.15494  -0.004388  3.958527  -0.003  -0.07195  -0.14742  -0.009772  3.927927  -0.007
C  C42  1  0.74409058  0.17500948  0.92666349  1  0.02369  -0.006857  -0.125985  -0.005329  3.688983  -0.004  -0.148361  -0.006299  3.939543  -0.004  -0.153538  -0.004404  3.957909  -0.003  -0.070694  -0.145958  -0.00976  3.927297  -0.007
C  C43  1  0.07775786  0.75289046  0.00309516  1  0.01786  -0.000664  0.003817  -0.000266  3.713587  0.0  -0.015724  -0.004942  3.967198  -0.003  -0.011411  -0.003308  3.982851  -0.002  -0.068098  -0.018314  -0.006679  3.956972  -0.004
C  C44  1  0.74988583  0.07487910  0.99705673  1  0.001423  -0.000566  0.00142  -0.000185  3.713083  0.0  -0.018402  -0.004956  3.966461  -0.003  -0.014123  -0.00331  3.982145  -0.002  -0.067964  -0.020964  -0.006698  3.956207  -0.004
C  C45  1  0.98318630  0.72119217  0.07407167  1  0.076734  -0.007619  -0.114974  -0.00598  3.69816  -0.005  -0.130799  -0.009131  3.953394  -0.006  -0.135119  -0.0054  3.97077  -0.004  -0.084883  -0.128484  -0.012196  3.942344  -0.009
C  C46  1  0.64734482  0.90933867  0.92607644  1  0.042984  -0.007741  -0.113635  -0.006053  3.699171  -0.005  -0.129638  -0.009125  3.95447  -0.006  -0.133955  -0.005391  3.9719  -0.004  -0.085061  -0.127303  -0.012165  3.943402  -0.009
C  C47  1  0.06360868  0.75510323  0.21332015  1  0.515184  -0.002852  0.145005  -0.001705  3.693375  -0.001  0.11367  -0.006525  3.948091  -0.005  0.121448  -0.004896  3.963217  -0.004  0.054603  0.107985  -0.007354  3.938379  -0.005
C  C48  1  0.54202134  0.85050542  0.78682212  1  0.510223  -0.002802  0.145659  -0.001657  3.693604  -0.001  0.114486  -0.006548  3.948428  -0.005  0.122284  -0.004924  3.963561  -0.004  0.054821  0.108762  -0.007385  3.938683  -0.005
N  N49  1  0.05272410  0.15701173  0.63891779  1  -1.245582  -0.03949  -0.334592  -0.029528  3.241188  -0.019  -0.273625  -0.034619  3.505809  -0.021  -0.289769  -0.030425  3.521341  -0.017  -0.312157  -0.261487  -0.038752  3.495987  -0.025
N  N50  1  0.51791773  0.41352673  0.36088975  1  -1.247768  -0.039471  -0.332405  -0.029502  3.236562  -0.019  -0.27071  -0.034568  3.500705  -0.021  -0.286842  -0.030374  3.516206  -0.017  -0.309968  -0.258617  -0.038696  3.490904  -0.025
N  N51  1  0.72538880  0.99892674  0.48702332  1  -0.813616  -0.029481  -0.360971  -0.0205  3.19364  -0.009  -0.307453  -0.01366  3.493716  0.001  -0.335465  -0.01659  3.511473  -0.002  -0.241975  -0.287373  -0.013655  3.481266  0.002
N  N52  1  0.51188318  0.23830667  0.51295282  1  -0.807418  -0.029394  -0.355066  -0.020433  3.195953  -0.009  -0.30219  -0.013627  3.494331  0.001  -0.330238  -0.016554  3.512479  -0.002  -0.239486  -0.282134  -0.013638  3.481784  0.002
N  N53  1  0.55658171  0.92149103  0.41501331  1  -0.833426  -0.023612  -0.149587  -0.012994  3.249127  -0.006  -0.092685  -0.025733  3.532729  -0.016  -0.102345  -0.018265  3.548197  -0.009  -0.199195  -0.08538  -0.034582  3.522773  -0.023
N  N54  1  0.50656103  0.14162227  0.58505370  1  -0.845762  -0.022815  -0.152362  -0.012981  3.2532  -0.006  -0.095393  -0.025749  3.537704  -0.016  -0.105018  -0.018297  3.553093  -0.009  -0.199514  -0.088103  -0.034592  3.527781  -0.023
N  N55  1  0.22745485  0.81637295  0.28191228  1  -1.246821  -0.044914  -0.347576  -0.031866  3.242039  -0.02  -0.278705  -0.036645  3.504616  -0.02  -0.296359  -0.031042  3.519921  -0.015  -0.321096  -0.265801  -0.042695  3.494024  -0.026
N  N56  1  0.53471654  0.94573370  0.71820182  1  -1.292846  -0.045003  -0.347817  -0.031904  3.242969  -0.02  -0.278855  -0.036626  3.505892  -0.02  -0.296435  -0.031022  3.520994  -0.015  -0.320576  -0.265934  -0.042676  3.495369  -0.026
N  N57  1  0.68373131  0.78963258  0.56621423  1  -1.361018  -0.008577  -0.625626  -0.006243  3.187897  -0.006  -0.588723  -0.014473  3.42822  -0.013  -0.611154  -0.009661  3.427903  -0.009  -0.552574  -0.574438  -0.018737  3.430361  -0.016
N  N58  1  0.22335892  0.11737237  0.43375179  1  -1.31005  -0.008509  -0.624893  -0.006213  3.187999  -0.006  -0.588713  -0.014434  3.428486  -0.013  -0.611117  -0.009629  3.428164  -0.009  -0.552254  -0.574474  -0.01869  3.430606  -0.016
N  N59  1  0.74180154  0.27509551  0.36045162  1  -0.417497  -0.020187  -0.59677  -0.012984  2.849733  0.012  -0.565219  -0.032674  3.1947  0.003  -0.594727  -0.015717  3.197776  0.016  -0.312067  -0.542197  -0.047976  3.191851  -0.009
N  N60  1  0.91466566  0.38136897  0.63949295  1  -0.416632  -0.020227  -0.598996  -0.013049  2.853189  0.012  -0.56721  -0.032712  3.197505  0.003  -0.596721  -0.015753  3.200575  0.016  -0.31331  -0.544344  -0.048037  3.195055  -0.009
N  N61  1  0.65430546  0.23378987  0.24033619  1  -0.370861  -0.007677  0.397148  0.0022  4.204865  -0.001  0.432943  -0.01503  4.48416  -0.017  0.448625  -0.007143  4.518738  -0.01  0.091977  0.421999  -0.020669  4.458567  -0.021
N  N62  1  0.99348841  0.41403119  0.75961337  1  -0.399454  -0.007757  0.398309  0.002221  4.207095  -0.001  0.434196  -0.014993  4.486094  -0.017  0.449913  -0.007112  4.52061  -0.01  0.093255  0.423204  -0.020631  4.460491  -0.021
N  N63  1  0.56762707  0.19438497  0.12508159  1  -0.018322  -0.116341  -0.389312  -0.090412  2.382404  -0.089  -0.388824  -0.091076  2.602703  -0.082  -0.401043  -0.087979  2.618201  -0.081  -0.185798  -0.377328  -0.097751  2.590251  -0.087
N  N64  1  0.06933887  0.44265382  0.87488310  1  0.008654  -0.116246  -0.38912  -0.090385  2.382109  -0.089  -0.388637  -0.091054  2.602365  -0.082  -0.400866  -0.087966  2.617823  -0.081  -0.185765  -0.377105  -0.097717  2.589925  -0.087
N  N65  1  0.89655325  0.06197919  0.30402814  1  -0.356108  -0.005535  -0.596947  -0.001032  2.739189  0.011  -0.569917  -0.012357  3.041619  0.006  -0.594025  -0.002042  3.047015  0.013  -0.304098  -0.552394  -0.022718  3.038114  -0.003
N  N66  1  0.75792970  0.59250174  0.69589907  1  -0.361755  -0.00554  -0.593039  -0.000992  2.738795  0.011  -0.565753  -0.012326  3.041379  0.006  -0.589763  -0.002026  3.046621  0.013  -0.301435  -0.548273  -0.022667  3.037927  -0.003
N  N67  1  0.81287604  0.91784144  0.25158847  1  -0.439333  -0.007218  0.385829  -0.001122  4.23334  -0.003  0.421278  -0.010731  4.517347  -0.012  0.436615  -0.006609  4.549747  -0.008  0.07838  0.41121  -0.013297  4.493428  -0.014
N  N68  1  0.66626292  0.56133865  0.74836848  1  -0.416191  -0.007129  0.384037  -0.001121  4.234604  -0.003  0.41864  -0.01075  4.520221  -0.012  0.433976  -0.006616  4.552583  -0.008  0.077314  0.408584  -0.013319  4.496313  -0.014
N  N69  1  0.73116541  0.77826628  0.19870241  1  -0.021077  -0.068547  -0.404413  -0.05306  2.404379  -0.052  -0.400408  -0.051363  2.63258  -0.046  -0.412184  -0.0502  2.644586  -0.046  -0.193685  -0.391356  -0.057618  2.622895  -0.051
N  N70  1  0.57960317  0.53259706  0.80129040  1  -0.03774  -0.068598  -0.405878  -0.053062  2.407189  -0.052  -0.401372  -0.051333  2.635649  -0.046  -0.413156  -0.050176  2.64764  -0.046  -0.195408  -0.392255  -0.057592  2.625873  -0.051
N  N71  1  0.30616806  0.62337395  0.45828603  1  -0.283612  -0.044074  -0.52209  -0.033244  2.712659  -0.016  -0.500331  -0.047059  3.015399  -0.021  -0.524224  -0.037261  3.022742  -0.014  -0.27124  -0.48071  -0.057737  3.008503  -0.03
N  N72  1  0.16512301  0.84790686  0.54192323  1  -0.266858  -0.044299  -0.524537  -0.033376  2.709186  -0.016  -0.502654  -0.047194  3.012116  -0.021  -0.526524  -0.037374  3.019324  -0.014  -0.273281  -0.483037  -0.057873  3.005259  -0.03
N  N73  1  0.22263751  0.51279331  0.48027142  1  -0.359688  -0.024167  0.414239  -0.013697  4.221995  -0.017  0.453496  -0.027407  4.488606  -0.031  0.47032  -0.02176  4.521606  -0.026  0.106161  0.441606  -0.032468  4.464096  -0.036
N  N74  1  0.03248408  0.74235232  0.51976980  1  -0.375249  -0.024234  0.416421  -0.013689  4.219206  -0.017  0.455383  -0.027385  4.486068  -0.031  0.472268  -0.021739  4.518967  -0.026  0.107396  0.443458  -0.032443  4.461624  -0.036
N  N75  1  0.14446154  0.40210751  0.50268528  1  -0.16777  -0.080896  -0.436521  -0.062807  2.68646  -0.045  -0.418322  -0.069157  2.978612  -0.043  -0.434911  -0.060464  2.983806  -0.036  -0.220484  -0.404293  -0.07986  2.974711  -0.052
N  N76  1  0.89931297  0.64172243  0.49718609  1  -0.170764  -0.080929  -0.436269  -0.062749  2.688065  -0.045  -0.418298  -0.069122  2.980679  -0.043  -0.434883  -0.060443  2.985847  -0.036  -0.21995  -0.404279  -0.07983  2.976791  -0.052
