# generated using pymatgen
data_CuH12C16(NO2)2
_symmetry_space_group_name_H-M   'P 1'
_cell_length_a   8.26013316
_cell_length_b   10.00045967
_cell_length_c   11.72711600
_cell_angle_alpha   90.00007785
_cell_angle_beta   89.38104287
_cell_angle_gamma   90.00079131
_symmetry_Int_Tables_number   1
_chemical_formula_structural   CuH12C16(NO2)2
_chemical_formula_sum   'Cu2 H24 C32 N4 O8'
_cell_volume   968.66339979
_cell_formula_units_Z   2
loop_
 _symmetry_equiv_pos_site_id
 _symmetry_equiv_pos_as_xyz
  1  'x, y, z'
loop_
 _atom_site_type_symbol
 _atom_site_label
 _atom_site_symmetry_multiplicity
 _atom_site_fract_x
 _atom_site_fract_y
 _atom_site_fract_z
 _atom_site_occupancy
 _atom_site_pbe_bader_charge
 _atom_site_pbe_bader_spin_density
 _atom_site_pbe_cm5_charge
 _atom_site_pbe_ddec_charge
 _atom_site_pbe_ddec_spin_density
 _atom_site_pbe_ddec_sum_bond_order
 _atom_site_pbe_magmom
Cu  Cu0  1  0.00000429  0.49999827  0.99999682  1  1.104601  0.569597  0.751071  0.781478  0.73098  2.240847  0.568
Cu  Cu1  1  0.49999613  0.99999873  0.50000130  1  1.104724  0.569598  0.751075  0.781445  0.730982  2.240862  0.568
H  H2  1  0.12454673  0.70691849  0.27914509  1  0.025985  0.000127  0.086433  0.01643  1.6e-05  1.008439  0.0
H  H3  1  0.37545005  0.20692720  0.22084787  1  0.025846  0.000126  0.086458  0.016446  1.5e-05  1.008442  0.0
H  H4  1  0.87545605  0.29307595  0.72084567  1  0.025765  0.000127  0.086445  0.016396  1.6e-05  1.008499  0.0
H  H5  1  0.62454789  0.79307823  0.77915997  1  0.025768  0.000127  0.08646  0.016418  1.6e-05  1.008507  0.0
H  H6  1  0.26633093  0.81771248  0.39271896  1  0.060835  0.005821  0.098057  0.034008  0.002766  1.046904  0.003
H  H7  1  0.23366606  0.31771203  0.10727046  1  0.060887  0.005819  0.09804  0.033998  0.002765  1.046973  0.003
H  H8  1  0.73366579  0.18228095  0.60727184  1  0.060842  0.005821  0.098059  0.034014  0.002766  1.047022  0.003
H  H9  1  0.76633309  0.68228341  0.89273482  1  0.060835  0.005821  0.098077  0.034046  0.002766  1.046895  0.003
H  H10  1  0.43454333  0.45666707  0.16161894  1  0.113726  0.001017  0.103107  0.11195  0.000583  1.042811  0.001
H  H11  1  0.06544940  0.95667167  0.33838164  1  0.113613  0.001017  0.103121  0.111971  0.000583  1.042849  0.001
H  H12  1  0.56546308  0.54333137  0.83837690  1  0.114081  0.001017  0.103142  0.112079  0.000583  1.042863  0.001
H  H13  1  0.93454127  0.04333077  0.66161944  1  0.113651  0.001017  0.103114  0.112017  0.000583  1.042871  0.001
H  H14  1  0.68568641  0.38604821  0.05771609  1  0.145193  0.002254  0.121825  0.098651  0.001077  0.991938  0.002
H  H15  1  0.81432006  0.88605917  0.44228779  1  0.145245  0.002255  0.121833  0.098565  0.001078  0.992006  0.002
H  H16  1  0.31431879  0.61394322  0.94227806  1  0.145239  0.002255  0.121787  0.098519  0.001078  0.991988  0.002
H  H17  1  0.18567787  0.11393827  0.55771409  1  0.145238  0.002255  0.121851  0.098556  0.001078  0.992054  0.002
H  H18  1  0.67351460  0.83057193  0.23500235  1  0.113125  0.001233  0.107585  0.12547  0.000685  1.017846  0.001
H  H19  1  0.82649116  0.33058155  0.26500372  1  0.112953  0.001233  0.107547  0.125389  0.000685  1.01781  0.001
H  H20  1  0.32648939  0.16942351  0.76499266  1  0.113088  0.001233  0.107533  0.125417  0.000685  1.017859  0.001
H  H21  1  0.17350557  0.66942588  0.73501010  1  0.113093  0.001233  0.107542  0.125432  0.000685  1.017886  0.001
H  H22  1  0.91280743  0.74527257  0.12610277  1  0.083043  0.002137  0.119556  0.092128  0.000947  0.993171  0.001
H  H23  1  0.58718996  0.24527675  0.37390288  1  0.083018  0.002137  0.119532  0.092143  0.000947  0.993034  0.001
H  H24  1  0.08719534  0.25471986  0.87389566  1  0.083045  0.002137  0.119545  0.092159  0.000947  0.993062  0.001
H  H25  1  0.41280313  0.75472269  0.62610756  1  0.083127  0.002137  0.119559  0.092146  0.000947  0.992973  0.001
C  C26  1  0.22554359  0.66026144  0.22882509  1  0.832297  0.000508  0.058147  0.250074  -0.000122  4.094091  0.0
C  C27  1  0.27445502  0.16026555  0.27116472  1  0.832219  0.000509  0.058071  0.250095  -0.000122  4.094034  0.0
C  C28  1  0.77446040  0.33973100  0.77116225  1  0.832173  0.000509  0.058129  0.250356  -0.000122  4.093916  0.0
C  C29  1  0.72554050  0.83973789  0.72883802  1  0.832295  0.000509  0.058054  0.250199  -0.000122  4.094287  0.0
C  C30  1  0.38388001  0.69762654  0.26639263  1  -0.025723  0.010126  -0.069003  -0.196046  0.006897  4.05921  0.008
C  C31  1  0.11612150  0.19763501  0.23361160  1  -0.025663  0.010125  -0.068994  -0.196014  0.006897  4.059255  0.008
C  C32  1  0.61612761  0.30237290  0.73359894  1  -0.025522  0.010126  -0.068943  -0.196127  0.006897  4.059457  0.008
C  C33  1  0.88387281  0.80236943  0.76640054  1  -0.025491  0.010126  -0.068944  -0.195993  0.006898  4.05931  0.008
C  C34  1  0.38600383  0.78644016  0.35909023  1  0.732889  -0.001608  0.04494  0.211385  -0.001619  4.088831  -0.003
C  C35  1  0.11399761  0.28644322  0.14090844  1  0.73241  -0.001608  0.04493  0.211304  -0.00162  4.088821  -0.003
C  C36  1  0.61399895  0.21355427  0.64090308  1  0.732799  -0.001607  0.045029  0.211487  -0.001619  4.088936  -0.003
C  C37  1  0.88600517  0.71355422  0.85909937  1  0.732831  -0.001607  0.044997  0.211402  -0.001619  4.088771  -0.003
C  C38  1  0.53073088  0.65070969  0.20830236  1  0.00415  -0.002747  0.016059  0.17706  -0.003107  3.952929  -0.002
C  C39  1  0.96927135  0.15071033  0.29170213  1  0.004516  -0.002748  0.016119  0.177067  -0.003108  3.95266  -0.002
C  C40  1  0.46928037  0.34929475  0.79169003  1  0.004494  -0.002747  0.016001  0.177016  -0.003107  3.953058  -0.002
C  C41  1  0.03071690  0.84930211  0.70830920  1  0.004286  -0.002747  0.016011  0.176934  -0.003107  3.953154  -0.002
C  C42  1  0.53817692  0.52348465  0.15692104  1  -0.028458  0.005991  -0.088287  -0.18164  0.003981  3.933789  0.005
C  C43  1  0.96182126  0.02348206  0.34308144  1  -0.028411  0.005991  -0.088341  -0.181709  0.003981  3.933946  0.005
C  C44  1  0.46183191  0.47651979  0.84307393  1  -0.029454  0.005992  -0.088389  -0.181945  0.003982  3.933902  0.005
C  C45  1  0.03816820  0.97652037  0.65692050  1  -0.02913  0.005991  -0.088408  -0.181919  0.003981  3.934229  0.005
C  C46  1  0.67685433  0.48347442  0.09868047  1  0.424688  -0.000137  0.041151  0.087773  -0.000483  3.970337  0.0
C  C47  1  0.82315218  0.98348201  0.40132445  1  0.42472  -0.000136  0.04116  0.08787  -0.000482  3.970578  0.0
C  C48  1  0.32315208  0.51652202  0.90131451  1  0.424888  -0.000136  0.041266  0.088088  -0.000483  3.970147  0.0
C  C49  1  0.17684334  0.01652143  0.59868001  1  0.42478  -0.000136  0.041153  0.088001  -0.000483  3.9704  0.0
C  C50  1  0.80426211  0.68448380  0.13746666  1  0.432655  -0.000611  0.038679  0.078936  -0.001013  3.978035  0.0
C  C51  1  0.69573934  0.18448411  0.36253275  1  0.432275  -0.000609  0.03871  0.078892  -0.001014  3.977915  0.0
C  C52  1  0.19574551  0.31551264  0.86253855  1  0.432621  -0.000609  0.038616  0.078827  -0.001014  3.977883  0.0
C  C53  1  0.30425012  0.81551932  0.63746408  1  0.432665  -0.000609  0.038564  0.078822  -0.001014  3.97789  0.0
C  C54  1  0.67047275  0.73113480  0.19767766  1  -0.004788  0.006031  -0.087384  -0.177868  0.004148  3.919271  0.004
C  C55  1  0.82952810  0.23113683  0.30232916  1  -0.0046  0.006029  -0.087344  -0.177723  0.004147  3.919185  0.004
C  C56  1  0.32953729  0.26886764  0.80231816  1  -0.004875  0.006031  -0.087293  -0.177754  0.004148  3.919186  0.004
C  C57  1  0.17046258  0.76887161  0.69768471  1  -0.004588  0.006032  -0.087246  -0.177693  0.004148  3.919275  0.004
N  N58  1  0.80808855  0.56268252  0.08801474  1  -1.215951  0.079196  -0.362285  -0.246638  0.052432  3.649788  0.067
N  N59  1  0.69191982  0.06267959  0.41199098  1  -1.21566  0.079193  -0.362291  -0.2466  0.052431  3.649644  0.067
N  N60  1  0.19192271  0.43731991  0.91198789  1  -1.21563  0.079192  -0.362284  -0.246661  0.052432  3.649705  0.067
N  N61  1  0.30807569  0.93732285  0.58801092  1  -1.215816  0.079192  -0.362233  -0.246628  0.052431  3.649682  0.067
O  O62  1  0.19249318  0.58607811  0.14667928  1  -1.146049  0.004481  -0.299236  -0.451971  0.00231  2.323767  0.005
O  O63  1  0.30751900  0.08608369  0.35331734  1  -1.145857  0.004482  -0.299249  -0.452046  0.002311  2.323545  0.005
O  O64  1  0.80751929  0.41392132  0.85330713  1  -1.145758  0.004482  -0.299275  -0.452165  0.002311  2.323416  0.005
O  O65  1  0.69248620  0.91392275  0.64669898  1  -1.14579  0.004481  -0.2992  -0.452026  0.00231  2.323808  0.005
O  O66  1  0.51199003  0.83071693  0.40828398  1  -1.099927  0.101382  -0.304863  -0.420398  0.065011  2.433591  0.092
O  O67  1  0.98800241  0.33071354  0.09171281  1  -1.099849  0.101383  -0.30483  -0.420366  0.065012  2.433514  0.092
O  O68  1  0.48800791  0.16928151  0.59171363  1  -1.100063  0.101384  -0.304921  -0.420468  0.065012  2.433624  0.092
O  O69  1  0.01199916  0.66927990  0.90828392  1  -1.10016  0.101382  -0.3049  -0.420462  0.065012  2.433617  0.092
