# generated using pymatgen
data_Y2H16C21O17
_symmetry_space_group_name_H-M   'P 1'
_cell_length_a   9.93311879
_cell_length_b   10.68081217
_cell_length_c   28.98666224
_cell_angle_alpha   89.99987841
_cell_angle_beta   90.00047143
_cell_angle_gamma   91.59488693
_symmetry_Int_Tables_number   1
_chemical_formula_structural   Y2H16C21O17
_chemical_formula_sum   'Y8 H64 C84 O68'
_cell_volume   3074.11308908
_cell_formula_units_Z   4
loop_
 _symmetry_equiv_pos_site_id
 _symmetry_equiv_pos_as_xyz
  1  'x, y, z'
loop_
 _atom_site_type_symbol
 _atom_site_label
 _atom_site_symmetry_multiplicity
 _atom_site_fract_x
 _atom_site_fract_y
 _atom_site_fract_z
 _atom_site_occupancy
 _atom_site_pbe_bader_charge
 _atom_site_pbe_bader_spin_density
 _atom_site_pbe_cm5_charge
 _atom_site_pbe_ddec_charge
 _atom_site_pbe_ddec_spin_density
 _atom_site_pbe_ddec_sum_bond_order
 _atom_site_pbe_magmom
Y  Y0  1  0.55463151  0.03776175  0.58153892  1  2.2932  0  1.291728  1.805484  0  2.448661  0
Y  Y1  1  0.54962010  0.76291916  0.75049323  1  2.29668  0  1.285309  1.823595  0  2.351347  0
Y  Y2  1  0.44536895  0.46223621  0.08153795  1  2.293165  0  1.291732  1.805507  0  2.448634  0
Y  Y3  1  0.45038294  0.73708077  0.25049176  1  2.29674  0  1.285275  1.823549  0  2.35137  0
Y  Y4  1  0.44536928  0.96223818  0.41846098  1  2.293166  0  1.291731  1.805497  0  2.448635  0
Y  Y5  1  0.45037861  0.23707892  0.24950667  1  2.296658  0  1.285354  1.823658  0  2.351164  0
Y  Y6  1  0.55463201  0.53776841  0.91846195  1  2.293152  0  1.291775  1.805579  0  2.448577  0
Y  Y7  1  0.54961882  0.26291823  0.74950883  1  2.296783  0  1.285272  1.823473  0  2.351484  0
H  H8  1  0.98434496  0.18029747  0.58945517  1  0.118401  0  0.108648  0.113833  0  1.016827  0
H  H9  1  0.23126253  0.17787849  0.60442238  1  0.117017  0  0.113873  0.111035  0  1.022549  0
H  H10  1  0.11311510  0.82869596  0.79584621  1  0.128492  0  0.106242  0.110627  0  1.012266  0
H  H11  1  0.86981414  0.87825720  0.79188094  1  0.102651  0  0.112919  0.108937  0  1.011431  0
H  H12  1  0.93133975  0.66779167  0.50961819  1  0.077438  0  0.106724  0.111957  0  0.991498  0
H  H13  1  0.81946099  0.28722956  0.49172133  1  0.073963  0  0.111771  0.118349  0  0.974944  0
H  H14  1  0.43982356  0.29059283  0.59884489  1  0.625209  0  0.322523  0.400831  0  0.890874  0
H  H15  1  0.42331641  0.26542506  0.54432981  1  0.668571  0  0.300444  0.412074  0  0.918456  0
H  H16  1  0.40727254  0.85423410  0.64614879  1  0.646815  0  0.304282  0.390233  0  0.947826  0
H  H17  1  0.38192423  0.82295682  0.59425904  1  0.609954  0  0.322757  0.400258  0  0.894845  0
H  H18  1  0.71384244  0.84704192  0.66753596  1  0.674091  0  0.305368  0.410889  0  0.92287  0
H  H19  1  0.65128849  0.71125798  0.65937010  1  0.624881  0  0.328805  0.417597  0  0.870991  0
H  H20  1  0.42391532  0.64771633  0.66597112  1  0.619945  0  0.32213  0.398547  0  0.899199  0
H  H21  1  0.42768435  0.53174179  0.70025970  1  0.658799  0  0.305759  0.403045  0  0.930743  0
H  H22  1  0.65258841  0.77521993  0.85150776  1  0.657908  0  0.311539  0.406098  0  0.921922  0
H  H23  1  0.61510212  0.91161123  0.83402030  1  0.596584  0  0.330706  0.409714  0  0.875936  0
H  H24  1  0.01564746  0.31969581  0.08945552  1  0.118378  0  0.108652  0.113825  0  1.016862  0
H  H25  1  0.76873321  0.32211282  0.10442346  1  0.117916  0  0.113887  0.111024  0  1.022397  0
H  H26  1  0.88688805  0.67130468  0.29584429  1  0.128554  0  0.10623  0.110589  0  1.012299  0
H  H27  1  0.13019409  0.62174718  0.29187970  1  0.102596  0  0.112945  0.108981  0  1.011315  0
H  H28  1  0.06865974  0.83221509  0.00961730  1  0.077689  0  0.106742  0.111999  0  0.991493  0
H  H29  1  0.18053331  0.21277014  0.99172180  1  0.07385  0  0.111748  0.118359  0  0.974945  0
H  H30  1  0.56017711  0.20939942  0.09884479  1  0.625107  0  0.322501  0.400795  0  0.890876  0
H  H31  1  0.57668731  0.23457681  0.04433042  1  0.668565  0  0.300464  0.412106  0  0.918416  0
H  H32  1  0.59271676  0.64576174  0.14614504  1  0.646985  0  0.304306  0.390336  0  0.947716  0
H  H33  1  0.61806199  0.67704398  0.09425430  1  0.60989  0  0.322693  0.400148  0  0.894954  0
H  H34  1  0.28615966  0.65295936  0.16753409  1  0.67407  0  0.305375  0.410883  0  0.922857  0
H  H35  1  0.34872724  0.78873578  0.15936589  1  0.624753  0  0.328892  0.417716  0  0.870848  0
H  H36  1  0.57609969  0.85228115  0.16597440  1  0.619998  0  0.322164  0.398516  0  0.89918  0
H  H37  1  0.57231454  0.96826029  0.20026080  1  0.658865  0  0.305773  0.403065  0  0.930717  0
H  H38  1  0.34741909  0.72478041  0.35150566  1  0.657999  0  0.311497  0.40602  0  0.922019  0
H  H39  1  0.38489983  0.58838641  0.33402014  1  0.596595  0  0.330685  0.409716  0  0.875882  0
H  H40  1  0.01565781  0.81970152  0.41054611  1  0.11834  0  0.108652  0.113875  0  1.016795  0
H  H41  1  0.76874209  0.82211581  0.39557821  1  0.11706  0  0.113845  0.110967  0  1.022561  0
H  H42  1  0.88687948  0.17129933  0.20415300  1  0.128467  0  0.106198  0.110547  0  1.0123  0
H  H43  1  0.13018252  0.12173995  0.20811896  1  0.102685  0  0.112902  0.10896  0  1.011364  0
H  H44  1  0.06866218  0.33221201  0.49038206  1  0.077695  0  0.106726  0.111961  0  0.991483  0
H  H45  1  0.18053889  0.71277319  0.50828064  1  0.073833  0  0.111747  0.118323  0  0.975011  0
H  H46  1  0.56017824  0.70940710  0.40115639  1  0.625207  0  0.322523  0.400832  0  0.89087  0
H  H47  1  0.57668646  0.73457674  0.45567113  1  0.669072  0  0.300453  0.412111  0  0.91841  0
H  H48  1  0.59272526  0.14576679  0.35385076  1  0.646821  0  0.304283  0.390203  0  0.947916  0
H  H49  1  0.61807646  0.17704031  0.40574120  1  0.60995  0  0.322724  0.400194  0  0.894839  0
H  H50  1  0.28615835  0.15295801  0.33246497  1  0.674087  0  0.305399  0.410933  0  0.922807  0
H  H51  1  0.34870932  0.28874291  0.34062911  1  0.624904  0  0.328821  0.417617  0  0.871009  0
H  H52  1  0.57608346  0.35228362  0.33402878  1  0.61996  0  0.322125  0.398539  0  0.899207  0
H  H53  1  0.57231742  0.46825721  0.29974020  1  0.658797  0  0.305756  0.403022  0  0.930779  0
H  H54  1  0.34740832  0.22477909  0.14849111  1  0.657869  0  0.311491  0.40608  0  0.921949  0
H  H55  1  0.38489770  0.08838965  0.16598029  1  0.596592  0  0.330709  0.409733  0  0.875914  0
H  H56  1  0.98435044  0.68030789  0.91054334  1  0.118413  0  0.108663  0.113857  0  1.016815  0
H  H57  1  0.23126382  0.67789463  0.89557540  1  0.117922  0  0.113847  0.110973  0  1.022525  0
H  H58  1  0.11311461  0.32869150  0.70415630  1  0.128558  0  0.106237  0.110622  0  1.01226  0
H  H59  1  0.86980657  0.37824901  0.70811986  1  0.10276  0  0.112926  0.108917  0  1.011377  0
H  H60  1  0.93133330  0.16779332  0.99038398  1  0.077798  0  0.106737  0.111976  0  0.991438  0
H  H61  1  0.81945922  0.78722422  0.00827844  1  0.073915  0  0.111762  0.118359  0  0.974929  0
H  H62  1  0.43982261  0.79059864  0.90115477  1  0.625112  0  0.322537  0.400826  0  0.890803  0
H  H63  1  0.42331160  0.76542688  0.95566983  1  0.669112  0  0.300453  0.412064  0  0.918463  0
H  H64  1  0.40728003  0.35423916  0.85385417  1  0.646946  0  0.304321  0.390345  0  0.947703  0
H  H65  1  0.38193870  0.32295315  0.90574457  1  0.609917  0  0.322666  0.40013  0  0.894939  0
H  H66  1  0.71383915  0.34704153  0.83246546  1  0.674073  0  0.305409  0.410913  0  0.922815  0
H  H67  1  0.65127154  0.21126417  0.84063332  1  0.62478  0  0.328897  0.4177  0  0.870911  0
H  H68  1  0.42389898  0.14771599  0.83402550  1  0.619817  0  0.32218  0.398561  0  0.899125  0
H  H69  1  0.42768417  0.03173779  0.79973979  1  0.658832  0  0.30576  0.403066  0  0.93071  0
H  H70  1  0.65258284  0.27522327  0.64849389  1  0.657956  0  0.311509  0.406034  0  0.92199  0
H  H71  1  0.61509998  0.41161447  0.66598045  1  0.596557  0  0.330693  0.409726  0  0.875939  0
C  C72  1  0.93107427  0.08894722  0.65276460  1  -0.032973  0  -0.006786  -0.07148  0  3.928151  0
C  C73  1  0.02214040  0.13946921  0.62120775  1  0.000484  0  -0.07284  -0.075008  0  3.94705  0
C  C74  1  0.16133205  0.13607459  0.62930616  1  -0.006982  0  -0.073312  -0.079061  0  3.969211  0
C  C75  1  0.21055153  0.07808316  0.66824761  1  -0.080063  0  -0.005408  -0.083126  0  3.933562  0
C  C76  1  0.12016439  0.01656008  0.69991138  1  0.000765  0  0.008643  0.043102  0  3.92011  0
C  C77  1  0.16656089  0.93968966  0.73674181  1  0.012237  0  -0.005493  -0.061458  0  3.924045  0
C  C78  1  0.07640673  0.88906204  0.76854081  1  -0.055454  0  -0.075547  -0.080776  0  3.956117  0
C  C79  1  0.93884534  0.91472434  0.76563792  1  -0.024687  0  -0.072307  -0.07657  0  3.967463  0
C  C80  1  0.88941065  0.98650733  0.72997418  1  -0.020661  0  -0.002965  -0.078838  0  3.919742  0
C  C81  1  0.97780714  0.03131937  0.69420858  1  0.018296  0  0.012227  0.052061  0  3.906022  0
C  C82  1  0.78845299  0.08077300  0.63661559  1  1.557807  0  0.218449  0.589182  0  4.184382  0
C  C83  1  0.35783941  0.09684540  0.67827311  1  1.617197  0  0.241869  0.648201  0  4.161873  0
C  C84  1  0.30785656  0.89638615  0.74024847  1  1.548653  0  0.219564  0.602411  0  4.172639  0
C  C85  1  0.74686279  0.02723101  0.73466686  1  1.58669  0  0.245126  0.649389  0  4.144035  0
C  C86  1  0.97063143  0.76382983  0.50674585  1  -0.015247  0  -0.085255  -0.100052  0  4.013168  0
C  C87  1  0.88008306  0.86013080  0.50664392  1  -0.027002  0  -0.009578  -0.073632  0  3.920895  0
C  C88  1  0.73483045  0.82368615  0.51673561  1  1.604375  0  0.223765  0.627106  0  4.185976  0
C  C89  1  0.92826421  0.98661404  0.50031861  1  -0.017661  0  0.004363  0.037108  0  3.921511  0
C  C90  1  0.83980415  0.08849182  0.49453032  1  -0.079759  0  -0.007874  -0.078147  0  3.96323  0
C  C91  1  0.69248298  0.07011852  0.48464039  1  1.618156  0  0.231894  0.616597  0  4.215751  0
C  C92  1  0.88984837  0.21083110  0.49390419  1  0.006336  0  -0.084304  -0.102776  0  4.002933  0
C  C93  1  0.06892581  0.41104852  0.15276364  1  -0.032985  0  -0.006713  -0.0715  0  3.928251  0
C  C94  1  0.97785685  0.36052483  0.12120870  1  0.000513  0  -0.0729  -0.075039  0  3.947233  0
C  C95  1  0.83866448  0.36392222  0.12930568  1  -0.008105  0  -0.073251  -0.078968  0  3.968948  0
C  C96  1  0.78944530  0.42192376  0.16824522  1  -0.079886  0  -0.005496  -0.083211  0  3.933409  0
C  C97  1  0.87983413  0.48344479  0.19990954  1  0.000952  0  0.008661  0.043078  0  3.920005  0
C  C98  1  0.83344307  0.56031689  0.23673880  1  0.012459  0  -0.005516  -0.061625  0  3.924241  0
C  C99  1  0.92359587  0.61094155  0.26853905  1  -0.055661  0  -0.075506  -0.080634  0  3.955982  0
C  C100  1  0.06116004  0.58527456  0.26563789  1  -0.024676  0  -0.07228  -0.076573  0  3.967202  0
C  C101  1  0.11058684  0.51349179  0.22997331  1  -0.020671  0  -0.003013  -0.078973  0  3.91977  0
C  C102  1  0.02219078  0.46867242  0.19420779  1  0.018037  0  0.012157  0.052108  0  3.905867  0
C  C103  1  0.21154570  0.41922282  0.13661503  1  1.556985  0  0.218497  0.589325  0  4.18425  0
C  C104  1  0.64215943  0.40315490  0.17827239  1  1.61726  0  0.242012  0.648405  0  4.161583  0
C  C105  1  0.69214835  0.60361663  0.24024571  1  1.549174  0  0.219723  0.602895  0  4.172456  0
C  C106  1  0.25313341  0.47276996  0.23466603  1  1.586884  0  0.245136  0.649354  0  4.144202  0
C  C107  1  0.02936890  0.73617413  0.00674423  1  -0.01548  0  -0.0853  -0.100186  0  4.013106  0
C  C108  1  0.11991613  0.63986943  0.00664056  1  -0.026744  0  -0.009499  -0.073515  0  3.920766  0
C  C109  1  0.26516999  0.67631402  0.01673332  1  1.603913  0  0.22377  0.627096  0  4.18608  0
C  C110  1  0.07173889  0.51338713  0.00031694  1  0.033767  0  0.004406  0.037158  0  3.921584  0
C  C111  1  0.16020347  0.41151248  0.99452885  1  -0.079962  0  -0.007872  -0.078157  0  3.963183  0
C  C112  1  0.30751907  0.42987743  0.98463898  1  1.618419  0  0.231966  0.616793  0  4.215604  0
C  C113  1  0.11015316  0.28917230  0.99390682  1  0.006509  0  -0.084302  -0.102792  0  4.002929  0
C  C114  1  0.06892561  0.91105554  0.34723737  1  -0.032976  0  -0.00673  -0.071449  0  3.928224  0
C  C115  1  0.97785939  0.86053074  0.37879353  1  0.000476  0  -0.072848  -0.075109  0  3.947158  0
C  C116  1  0.83866884  0.86392816  0.37069616  1  -0.0072  0  -0.073314  -0.079015  0  3.969224  0
C  C117  1  0.78944537  0.92192055  0.33175540  1  -0.079531  0  -0.005406  -0.083003  0  3.933289  0
C  C118  1  0.87983334  0.98343893  0.30009094  1  0.000314  0  0.008635  0.043032  0  3.91998  0
C  C119  1  0.83343782  0.06030841  0.26325947  1  0.012255  0  -0.00547  -0.06149  0  3.924076  0
C  C120  1  0.92359087  0.11093323  0.23145943  1  -0.054864  0  -0.075462  -0.080623  0  3.956111  0
C  C121  1  0.06115531  0.08527185  0.23436232  1  -0.025146  0  -0.072266  -0.076591  0  3.967155  0
C  C122  1  0.11059105  0.01348979  0.27002710  1  -0.020652  0  -0.003011  -0.07887  0  3.919563  0
C  C123  1  0.02219255  0.96867776  0.30579236  1  0.018352  0  0.012155  0.052034  0  3.905979  0
C  C124  1  0.21154672  0.91922507  0.36338500  1  1.556956  0  0.218487  0.589313  0  4.184304  0
C  C125  1  0.64215950  0.90315830  0.32172783  1  1.617191  0  0.241946  0.648226  0  4.161678  0
C  C126  1  0.69214333  0.10361660  0.25975212  1  1.54857  0  0.21958  0.602519  0  4.172573  0
C  C127  1  0.25313602  0.97276988  0.26533338  1  1.586572  0  0.245074  0.649248  0  4.144127  0
C  C128  1  0.02937047  0.23617291  0.49325267  1  -0.015477  0  -0.085239  -0.099982  0  4.013099  0
C  C129  1  0.11992085  0.13987193  0.49335598  1  -0.027026  0  -0.009635  -0.073776  0  3.920916  0
C  C130  1  0.26517051  0.17631847  0.48326188  1  1.604195  0  0.223888  0.627387  0  4.185595  0
C  C131  1  0.07173967  0.01338776  0.49967956  1  0.033795  0  0.004441  0.037153  0  3.921481  0
C  C132  1  0.16019969  0.91150904  0.50546889  1  -0.079652  0  -0.007888  -0.078233  0  3.963136  0
C  C133  1  0.30752080  0.92988046  0.51535985  1  1.618165  0  0.232015  0.616895  0  4.215407  0
C  C134  1  0.11015245  0.78916978  0.50609502  1  0.006358  0  -0.084289  -0.102704  0  4.002982  0
C  C135  1  0.93107290  0.58894956  0.84723522  1  -0.033007  0  -0.006728  -0.071432  0  3.928094  0
C  C136  1  0.02214300  0.63947699  0.87878982  1  0.000891  0  -0.072881  -0.075097  0  3.947124  0
C  C137  1  0.16133533  0.63607866  0.87069284  1  -0.008392  0  -0.073192  -0.078858  0  3.969071  0
C  C138  1  0.21055649  0.57807617  0.83175365  1  -0.079578  0  -0.005437  -0.083153  0  3.933458  0
C  C139  1  0.12016461  0.51655422  0.80009105  1  0.000338  0  0.008624  0.043085  0  3.920051  0
C  C140  1  0.16655772  0.43968305  0.76326145  1  0.012458  0  -0.005494  -0.061605  0  3.924214  0
C  C141  1  0.07640385  0.38905652  0.73146120  1  -0.055668  0  -0.075511  -0.080674  0  3.955976  0
C  C142  1  0.93883967  0.41472351  0.73436166  1  -0.024873  0  -0.07228  -0.076519  0  3.967291  0
C  C143  1  0.88941087  0.48650629  0.77002625  1  -0.02068  0  -0.003023  -0.07898  0  3.919809  0
C  C144  1  0.97780789  0.53132472  0.80579142  1  0.018308  0  0.012178  0.052055  0  3.905899  0
C  C145  1  0.78845315  0.58077900  0.86338452  1  1.557004  0  0.218435  0.589251  0  4.184388  0
C  C146  1  0.35784216  0.59683941  0.82172854  1  1.617206  0  0.241982  0.648304  0  4.161639  0
C  C147  1  0.30785445  0.39638330  0.75975488  1  1.549249  0  0.219724  0.6029  0  4.172347  0
C  C148  1  0.74686425  0.52722718  0.76533387  1  1.586488  0  0.2451  0.649449  0  4.144141  0
C  C149  1  0.97063112  0.26383237  0.99325256  1  -0.015539  0  -0.085264  -0.100066  0  4.012941  0
C  C150  1  0.88007966  0.36013147  0.99335382  1  -0.027263  0  -0.009557  -0.073667  0  3.920763  0
C  C151  1  0.73482480  0.32368689  0.98326313  1  1.604441  0  0.223835  0.627267  0  4.1858  0
C  C152  1  0.92826395  0.48661373  0.99967778  1  -0.017588  0  0.00439  0.037077  0  3.921588  0
C  C153  1  0.83980443  0.58848929  0.00547036  1  -0.079809  0  -0.007904  -0.078061  0  3.963096  0
C  C154  1  0.69248363  0.57011969  0.01536092  1  1.618186  0  0.231958  0.616731  0  4.215605  0
C  C155  1  0.88984770  0.71082951  0.00609274  1  0.006345  0  -0.084337  -0.102809  0  4.002992  0
O  O156  1  0.73886845  0.17139365  0.61389400  1  -1.20155  0  -0.339773  -0.595498  0  2.205682  0
O  O157  1  0.71949470  0.97845044  0.64086951  1  -1.197219  0  -0.325537  -0.58502  0  2.294988  0
O  O158  1  0.44183803  0.08648730  0.64604530  1  -1.223788  0  -0.376581  -0.619299  0  2.387546  0
O  O159  1  0.38979326  0.13025434  0.71916643  1  -1.208136  0  -0.375427  -0.622284  0  2.308461  0
O  O160  1  0.36620413  0.84910532  0.70504134  1  -1.213209  0  -0.344886  -0.618376  0  2.255116  0
O  O161  1  0.36686709  0.89525423  0.77938552  1  -1.19754  0  -0.338918  -0.593274  0  2.255917  0
O  O162  1  0.72221186  0.14085567  0.72572819  1  -1.202835  0  -0.36443  -0.603741  0  2.272623  0
O  O163  1  0.65882705  0.95025725  0.75074101  1  -1.234458  0  -0.384724  -0.634268  0  2.326741  0
O  O164  1  0.68507228  0.72800913  0.49745705  1  -1.179485  0  -0.325441  -0.56221  0  2.124578  0
O  O165  1  0.67488182  0.89110892  0.54683279  1  -1.225658  0  -0.403169  -0.654642  0  2.316535  0
O  O166  1  0.66014360  0.01243013  0.44754745  1  -1.222772  0  -0.360444  -0.622087  0  2.28958  0
O  O167  1  0.60804690  0.11964597  0.51137704  1  -1.214434  0  -0.373268  -0.599199  0  2.303926  0
O  O168  1  0.47905869  0.24851916  0.57258668  1  -1.2754  0  -0.608719  -0.794743  0  2.071407  0
O  O169  1  0.45343510  0.83030096  0.61725696  1  -1.245915  0  -0.577331  -0.769559  0  2.001211  0
O  O170  1  0.68736152  0.76637285  0.68336358  1  -1.281479  0  -0.61844  -0.806843  0  2.037387  0
O  O171  1  0.48017006  0.60675667  0.68874100  1  -1.269053  0  -0.588233  -0.792744  0  2.058416  0
O  O172  1  0.59229091  0.82277452  0.83085850  1  -1.233852  0  -0.590434  -0.783516  0  2.075279  0
O  O173  1  0.26113181  0.32860509  0.11389365  1  -1.200818  0  -0.33977  -0.59556  0  2.205687  0
O  O174  1  0.28050444  0.52154256  0.14087119  1  -1.197124  0  -0.325605  -0.585087  0  2.294947  0
O  O175  1  0.55815605  0.41351412  0.14604572  1  -1.223834  0  -0.376654  -0.619396  0  2.387541  0
O  O176  1  0.61020449  0.36974389  0.21916530  1  -1.208085  0  -0.375469  -0.622345  0  2.308198  0
O  O177  1  0.63379262  0.65089018  0.20503873  1  -1.213442  0  -0.344917  -0.618615  0  2.255091  0
O  O178  1  0.63313758  0.60474367  0.27938190  1  -1.197833  0  -0.33901  -0.593504  0  2.256088  0
O  O179  1  0.27779335  0.35914998  0.22572717  1  -1.202725  0  -0.364441  -0.60374  0  2.272893  0
O  O180  1  0.34116808  0.54974647  0.25074076  1  -1.23462  0  -0.384733  -0.634213  0  2.326612  0
O  O181  1  0.31493053  0.77198676  0.99745544  1  -1.179243  0  -0.325436  -0.562185  0  2.124729  0
O  O182  1  0.32512115  0.60888547  0.04683003  1  -1.225708  0  -0.403204  -0.654684  0  2.316552  0
O  O183  1  0.33986165  0.48756786  0.94754781  1  -1.222769  0  -0.360469  -0.622164  0  2.289593  0
O  O184  1  0.39195587  0.38035139  0.01137736  1  -1.214621  0  -0.373313  -0.599275  0  2.303826  0
O  O185  1  0.52094360  0.25147978  0.07258678  1  -1.27532  0  -0.608728  -0.794739  0  2.071326  0
O  O186  1  0.54655361  0.66969783  0.11725340  1  -1.245974  0  -0.577323  -0.769562  0  2.001152  0
O  O187  1  0.31264404  0.73363021  0.18336000  1  -1.28139  0  -0.61852  -0.806949  0  2.037263  0
O  O188  1  0.51983835  0.89323791  0.18874270  1  -1.269167  0  -0.588285  -0.792738  0  2.05841  0
O  O189  1  0.40771697  0.67722217  0.33085834  1  -1.233954  0  -0.590385  -0.783455  0  2.075239  0
O  O190  1  0.26113422  0.82860253  0.38610521  1  -1.200808  0  -0.339798  -0.595559  0  2.205694  0
O  O191  1  0.28050397  0.02154670  0.35913211  1  -1.197161  0  -0.325549  -0.585078  0  2.295002  0
O  O192  1  0.55815998  0.91351921  0.35395391  1  -1.223823  0  -0.376634  -0.619306  0  2.38747  0
O  O193  1  0.61020750  0.86974466  0.28083450  1  -1.208042  0  -0.375437  -0.622266  0  2.308276  0
O  O194  1  0.63379374  0.15089744  0.29495821  1  -1.213219  0  -0.344965  -0.618478  0  2.255194  0
O  O195  1  0.63313265  0.10474478  0.22061507  1  -1.197464  0  -0.338889  -0.593311  0  2.255858  0
O  O196  1  0.27778893  0.85914427  0.27426999  1  -1.202826  0  -0.364403  -0.603709  0  2.272666  0
O  O197  1  0.34116975  0.04974365  0.24925786  1  -1.234359  0  -0.384712  -0.634178  0  2.326705  0
O  O198  1  0.31492626  0.27198426  0.50254423  1  -1.179672  0  -0.325469  -0.562247  0  2.124623  0
O  O199  1  0.32512293  0.10888913  0.45316435  1  -1.22536  0  -0.403246  -0.654813  0  2.316323  0
O  O200  1  0.33986510  0.98756602  0.55245245  1  -1.22276  0  -0.360494  -0.622209  0  2.289578  0
O  O201  1  0.39195795  0.88035488  0.48862252  1  -1.214515  0  -0.373314  -0.599305  0  2.303825  0
O  O202  1  0.52094415  0.75148171  0.42741426  1  -1.275938  0  -0.608732  -0.79478  0  2.071304  0
O  O203  1  0.54656475  0.16970085  0.38274329  1  -1.245928  0  -0.577305  -0.769504  0  2.001104  0
O  O204  1  0.31263618  0.23362523  0.31663598  1  -1.281488  0  -0.618474  -0.806894  0  2.037354  0
O  O205  1  0.51983070  0.39324233  0.31125821  1  -1.269068  0  -0.588233  -0.792734  0  2.058433  0
O  O206  1  0.40770790  0.17722637  0.16914071  1  -1.233829  0  -0.590394  -0.783544  0  2.075246  0
O  O207  1  0.73887009  0.67139765  0.88610625  1  -1.200858  0  -0.339737  -0.595531  0  2.205723  0
O  O208  1  0.71949340  0.47845927  0.85912940  1  -1.197112  0  -0.325579  -0.585071  0  2.294968  0
O  O209  1  0.44184366  0.58648395  0.85395452  1  -1.223883  0  -0.376663  -0.61938  0  2.387645  0
O  O210  1  0.38979416  0.63025232  0.78083460  1  -1.208036  0  -0.375513  -0.622375  0  2.308121  0
O  O211  1  0.36620810  0.34910788  0.79496152  1  -1.213476  0  -0.344917  -0.618576  0  2.255051  0
O  O212  1  0.36686620  0.39525531  0.72061800  1  -1.197873  0  -0.339026  -0.593542  0  2.255953  0
O  O213  1  0.72220841  0.64084901  0.77427204  1  -1.202677  0  -0.364433  -0.603821  0  2.27298  0
O  O214  1  0.65882862  0.45025161  0.74926018  1  -1.234307  0  -0.384709  -0.634223  0  2.326611  0
O  O215  1  0.68506627  0.22801414  0.00254377  1  -1.179669  0  -0.325464  -0.562224  0  2.124505  0
O  O216  1  0.67487464  0.39111543  0.95316849  1  -1.225382  0  -0.403194  -0.654729  0  2.316558  0
O  O217  1  0.66014414  0.51243112  0.05245382  1  -1.222701  0  -0.360488  -0.622182  0  2.289597  0
O  O218  1  0.60804294  0.61964950  0.98862530  1  -1.214546  0  -0.373282  -0.599292  0  2.30387  0
O  O219  1  0.47905323  0.74852206  0.92741312  1  -1.275879  0  -0.608753  -0.794742  0  2.071349  0
O  O220  1  0.45344527  0.33030493  0.88274547  1  -1.245966  0  -0.577302  -0.769563  0  2.001149  0
O  O221  1  0.68735876  0.26636972  0.81663990  1  -1.281414  0  -0.618545  -0.806912  0  2.03722  0
O  O222  1  0.48016234  0.10675921  0.81125823  1  -1.268954  0  -0.588286  -0.792776  0  2.058402  0
O  O223  1  0.59228385  0.32277870  0.66914156  1  -1.23387  0  -0.590403  -0.783472  0  2.075299  0
