# generated using pymatgen
data_ZnH22C24(NO)4
_symmetry_space_group_name_H-M   'P 1'
_cell_length_a   9.52259600
_cell_length_b   12.24914511
_cell_length_c   12.57399446
_cell_angle_alpha   104.62125565
_cell_angle_beta   96.83937141
_cell_angle_gamma   105.10025092
_symmetry_Int_Tables_number   1
_chemical_formula_structural   ZnH22C24(NO)4
_chemical_formula_sum   'Zn2 H44 C48 N8 O8'
_cell_volume   1343.08788244
_cell_formula_units_Z   2
loop_
 _symmetry_equiv_pos_site_id
 _symmetry_equiv_pos_as_xyz
  1  'x, y, z'
loop_
 _atom_site_type_symbol
 _atom_site_label
 _atom_site_symmetry_multiplicity
 _atom_site_fract_x
 _atom_site_fract_y
 _atom_site_fract_z
 _atom_site_occupancy
 _atom_site_hle17_bader_spin_density
 _atom_site_hle17_ddec_charge
 _atom_site_hle17_ddec_spin_density
 _atom_site_hle17_ddec_sum_bond_order
 _atom_site_hle17_magmom
 _atom_site_hse06_10hf_bader_spin_density
 _atom_site_hse06_10hf_ddec_charge
 _atom_site_hse06_10hf_ddec_spin_density
 _atom_site_hse06_10hf_ddec_sum_bond_order
 _atom_site_hse06_10hf_magmom
 _atom_site_hse06_bader_spin_density
 _atom_site_hse06_ddec_charge
 _atom_site_hse06_ddec_spin_density
 _atom_site_hse06_ddec_sum_bond_order
 _atom_site_hse06_magmom
 _atom_site_pbe_bader_spin_density
 _atom_site_pbe_cm5_charge
 _atom_site_pbe_ddec_charge
 _atom_site_pbe_ddec_spin_density
 _atom_site_pbe_ddec_sum_bond_order
 _atom_site_pbe_magmom
Zn  Zn0  1  0.29522468  0.26957706  0.72402963  1  0  0.980433  0  1.89599  0  0  0.786811  0  2.373174  0  0  0.833178  0  2.318965  0  0  0.691647  0.754433  0  2.41054  0
Zn  Zn1  1  0.70477622  0.73042202  0.27596979  1  0  0.980436  0  1.89601  0  0  0.786806  0  2.3732  0  0  0.83318  0  2.318985  0  0  0.691632  0.754417  0  2.410563  0
H  H2  1  0.78060909  0.01385235  0.37870301  1  0  0.103849  0  0.970665  0  0  0.110175  0  1.041567  0  0  0.112311  0  1.039262  0  0  0.135341  0.108449  0  1.04343  0
H  H3  1  0.21939280  0.98614064  0.62129905  1  0  0.103871  0  0.970571  0  0  0.110241  0  1.041427  0  0  0.112349  0  1.039146  0  0  0.135345  0.108522  0  1.043287  0
H  H4  1  0.24628128  0.42495019  0.95361451  1  0  0.109113  0  0.954869  0  0  0.116816  0  1.019985  0  0  0.119908  0  1.01616  0  0  0.136741  0.114547  0  1.022697  0
H  H5  1  0.75371270  0.57504715  0.04638792  1  0  0.109118  0  0.95492  0  0  0.116845  0  1.020006  0  0  0.119937  0  1.01618  0  0  0.136747  0.114575  0  1.02272  0
H  H6  1  0.35300341  0.32046606  0.48693737  1  0  0.113302  0  0.974611  0  0  0.119605  0  1.041805  0  0  0.123273  0  1.039432  0  0  0.102608  0.11706  0  1.043116  0
H  H7  1  0.64698757  0.67953474  0.51306324  1  0  0.113277  0  0.974625  0  0  0.119585  0  1.04182  0  0  0.123249  0  1.039446  0  0  0.102617  0.117038  0  1.043132  0
H  H8  1  0.49393258  0.43799010  0.37750126  1  0  0.107685  0  0.945595  0  0  0.117845  0  1.005729  0  0  0.120361  0  1.005708  0  0  0.10636  0.116268  0  1.00524  0
H  H9  1  0.50605956  0.56201080  0.62250344  1  0  0.107732  0  0.945513  0  0  0.117838  0  1.005714  0  0  0.120353  0  1.005688  0  0  0.106377  0.116262  0  1.005226  0
H  H10  1  0.96313649  0.20604131  0.22617295  1  0  0.088725  0  0.949683  0  0  0.101855  0  1.006644  0  0  0.104277  0  1.006082  0  0  0.100505  0.100416  0  1.006343  0
H  H11  1  0.03685786  0.79395425  0.77382750  1  0  0.088696  0  0.949545  0  0  0.101846  0  1.006506  0  0  0.104248  0  1.005967  0  0  0.100499  0.100406  0  1.006205  0
H  H12  1  0.53680624  0.21862754  0.89496351  1  0  0.117388  0  0.951502  0  0  0.127849  0  1.00606  0  0  0.130749  0  1.004549  0  0  0.121013  0.125747  0  1.007246  0
H  H13  1  0.46319247  0.78137148  0.10503333  1  0  0.117428  0  0.95153  0  0  0.127882  0  1.006088  0  0  0.13079  0  1.004566  0  0  0.121037  0.12578  0  1.007271  0
H  H14  1  0.10350565  0.32427396  0.11741241  1  0  0.09314  0  0.93768  0  0  0.107678  0  0.99047  0  0  0.110401  0  0.989437  0  0  0.102414  0.105667  0  0.991393  0
H  H15  1  0.89648692  0.67571977  0.88258509  1  0  0.093071  0  0.937878  0  0  0.107616  0  0.990663  0  0  0.110339  0  0.989634  0  0  0.102403  0.105604  0  0.991587  0
H  H16  1  0.33349404  0.52827597  0.16121190  1  0  0.091047  0  0.904875  0  0  0.108344  0  0.960362  0  0  0.109048  0  0.960082  0  0  0.118695  0.107664  0  0.960826  0
H  H17  1  0.66650025  0.47171953  0.83878615  1  0  0.091031  0  0.904947  0  0  0.108397  0  0.960373  0  0  0.109099  0  0.960097  0  0  0.118722  0.10772  0  0.960838  0
H  H18  1  0.50159875  0.51744151  0.22932611  1  0  0.097078  0  0.969719  0  0  0.105817  0  1.042704  0  0  0.107869  0  1.040622  0  0  0.113671  0.104193  0  1.044335  0
H  H19  1  0.49839203  0.48255580  0.77067526  1  0  0.097047  0  0.969706  0  0  0.10585  0  1.042637  0  0  0.107901  0  1.040554  0  0  0.113678  0.104227  0  1.04427  0
H  H20  1  0.12396095  0.21537285  0.51775995  1  0  0.081097  0  0.963273  0  0  0.090951  0  1.036246  0  0  0.092047  0  1.035068  0  0  0.108577  0.090072  0  1.037292  0
H  H21  1  0.87603513  0.78462449  0.48224186  1  0  0.081122  0  0.963256  0  0  0.090959  0  1.036231  0  0  0.092057  0  1.035051  0  0  0.108572  0.090081  0  1.037276  0
H  H22  1  0.95643828  0.21502381  0.43895745  1  0  0.090219  0  0.935086  0  0  0.103456  0  1.000256  0  0  0.10308  0  1.002753  0  0  0.115942  0.104031  0  0.997852  0
H  H23  1  0.04355766  0.78497009  0.56104752  1  0  0.09023  0  0.935084  0  0  0.103443  0  1.000262  0  0  0.103065  0  1.002766  0  0  0.115901  0.10402  0  0.997856  0
H  H24  1  0.05134340  0.80086013  0.27561849  1  0  0.117055  0  0.971051  0  0  0.126562  0  1.029294  0  0  0.129593  0  1.027119  0  0  0.118409  0.124505  0  1.030646  0
H  H25  1  0.94866139  0.19913808  0.72438023  1  0  0.117073  0  0.971104  0  0  0.126566  0  1.029364  0  0  0.129596  0  1.027187  0  0  0.118408  0.124509  0  1.030717  0
H  H26  1  0.57894122  0.32601186  0.12713140  1  0  0.118467  0  0.969238  0  0  0.129399  0  1.028946  0  0  0.131374  0  1.028883  0  0  0.124771  0.128051  0  1.028885  0
H  H27  1  0.42106039  0.67398632  0.87286707  1  0  0.118468  0  0.969282  0  0  0.129412  0  1.028969  0  0  0.131386  0  1.028907  0  0  0.124759  0.128064  0  1.02891  0
H  H28  1  0.58202798  0.09587545  0.34691939  1  0  0.105847  0  0.974555  0  0  0.11546  0  1.036783  0  0  0.119529  0  1.033537  0  0  0.095415  0.112233  0  1.039618  0
H  H29  1  0.41797167  0.90412890  0.65308035  1  0  0.105875  0  0.974484  0  0  0.11548  0  1.036726  0  0  0.11955  0  1.033479  0  0  0.095399  0.112254  0  1.039561  0
H  H30  1  0.22845856  0.03942377  0.35724744  1  0  0.125645  0  0.937363  0  0  0.139559  0  0.989042  0  0  0.142074  0  0.988424  0  0  0.130593  0.137375  0  0.990296  0
H  H31  1  0.77154134  0.96057536  0.64275429  1  0  0.125672  0  0.937254  0  0  0.139535  0  0.988988  0  0  0.14205  0  0.98837  0  0  0.130578  0.137351  0  0.990242  0
H  H32  1  0.67965013  0.20999481  0.22117789  1  0  0.079988  0  0.954106  0  0  0.094361  0  1.009516  0  0  0.097538  0  1.007834  0  0  0.094015  0.091825  0  1.010962  0
H  H33  1  0.32034758  0.79000153  0.77881745  1  0  0.080003  0  0.954075  0  0  0.094347  0  1.009522  0  0  0.097527  0  1.007837  0  0  0.094026  0.091811  0  1.010969  0
H  H34  1  0.84058843  0.37670850  0.19280586  1  0  0.097659  0  0.932444  0  0  0.11406  0  0.991092  0  0  0.116223  0  0.989798  0  0  0.098843  0.112464  0  0.992065  0
H  H35  1  0.15941644  0.62329311  0.80718730  1  0  0.097669  0  0.932503  0  0  0.114081  0  0.991143  0  0  0.116242  0  0.989851  0  0  0.098869  0.112487  0  0.992114  0
H  H36  1  0.98464787  0.45912454  0.30604679  1  0  0.106818  0  0.955579  0  0  0.122273  0  1.01948  0  0  0.123576  0  1.020258  0  0  0.101227  0.121405  0  1.018792  0
H  H37  1  0.01535741  0.54087803  0.69394980  1  0  0.106807  0  0.95562  0  0  0.122292  0  1.019494  0  0  0.123595  0  1.020271  0  0  0.101225  0.121425  0  1.018804  0
H  H38  1  0.61141857  0.07374745  0.53057101  1  0  0.104255  0  0.945017  0  0  0.11865  0  1.00874  0  0  0.120372  0  1.008468  0  0  0.099922  0.117107  0  1.009627  0
H  H39  1  0.38857685  0.92625960  0.46943299  1  0  0.10418  0  0.945078  0  0  0.118571  0  1.008836  0  0  0.120291  0  1.008567  0  0  0.099871  0.117027  0  1.009723  0
H  H40  1  0.73149212  0.18889367  0.64311159  1  0  0.106015  0  0.940078  0  0  0.124984  0  0.996016  0  0  0.126803  0  0.995376  0  0  0.103327  0.123799  0  0.996276  0
H  H41  1  0.26851244  0.81111250  0.35688977  1  0  0.106058  0  0.940133  0  0  0.125001  0  0.996094  0  0  0.126823  0  0.995451  0  0  0.103334  0.123816  0  0.996354  0
H  H42  1  0.77934292  0.40561639  0.63057394  1  0  0.090226  0  0.954927  0  0  0.103104  0  1.013141  0  0  0.105831  0  1.012316  0  0  0.09741  0.101064  0  1.013933  0
H  H43  1  0.22066479  0.59438706  0.36942226  1  0  0.090227  0  0.95491  0  0  0.103115  0  1.013118  0  0  0.105852  0  1.012281  0  0  0.097431  0.101075  0  1.013907  0
H  H44  1  0.87297174  0.52073594  0.50450810  1  0  0.091089  0  0.964351  0  0  0.103345  0  1.024413  0  0  0.105496  0  1.024827  0  0  0.097247  0.101674  0  1.02449  0
H  H45  1  0.12704094  0.47926667  0.49548831  1  0  0.091146  0  0.964368  0  0  0.103317  0  1.024531  0  0  0.105469  0  1.024946  0  0  0.097208  0.101648  0  1.024605  0
C  C46  1  0.30744459  0.38935895  0.24135070  1  0  0.064325  0  3.770278  0  0  0.082261  0  4.012378  0  0  0.081305  0  4.037176  0  0  -0.015047  0.082993  0  3.995547  0
C  C47  1  0.69254411  0.61063566  0.75864828  1  0  0.064261  0  3.770203  0  0  0.082218  0  4.01229  0  0  0.081262  0  4.037083  0  0  -0.015026  0.082956  0  3.995462  0
C  C48  1  0.14864877  0.25702554  0.36393338  1  0  0.05948  0  3.762059  0  0  0.077772  0  4.004942  0  0  0.076579  0  4.029129  0  0  -0.016586  0.078579  0  3.987951  0
C  C49  1  0.85134023  0.74297265  0.63606885  1  0  0.059517  0  3.762153  0  0  0.077795  0  4.005022  0  0  0.076609  0  4.029202  0  0  -0.016574  0.078606  0  3.988028  0
C  C50  1  0.87843120  0.98746604  0.36365603  1  0  0.165603  0  3.640364  0  0  0.100808  0  3.904094  0  0  0.115437  0  3.91648  0  0  0.144278  0.091556  0  3.895612  0
C  C51  1  0.12156987  0.01253048  0.63634677  1  0  0.165567  0  3.640248  0  0  0.100744  0  3.903978  0  0  0.115399  0  3.916386  0  0  0.144301  0.091485  0  3.895489  0
C  C52  1  0.33242782  0.38438026  0.96884513  1  0  0.149698  0  3.643873  0  0  0.088149  0  3.912704  0  0  0.101852  0  3.925167  0  0  0.143865  0.079274  0  3.903991  0
C  C53  1  0.66757387  0.61561800  0.03115654  1  0  0.149669  0  3.643761  0  0  0.088095  0  3.912592  0  0  0.101799  0  3.925055  0  0  0.143826  0.079222  0  3.903876  0
C  C54  1  0.29838016  0.32097786  0.40579660  1  0  -0.107628  0  3.723233  0  0  -0.128632  0  3.97235  0  0  -0.131011  0  3.993281  0  0  -0.086619  -0.126535  0  3.957016  0
C  C55  1  0.70160736  0.67902207  0.59420512  1  0  -0.10759  0  3.723313  0  0  -0.128596  0  3.972409  0  0  -0.130972  0  3.993334  0  0  -0.086626  -0.126495  0  3.957069  0
C  C56  1  0.37750976  0.38685647  0.34445170  1  0  -0.094407  0  3.716998  0  0  -0.112903  0  3.961533  0  0  -0.115991  0  3.984322  0  0  -0.082362  -0.110675  0  3.944847  0
C  C57  1  0.62247730  0.61314519  0.65554879  1  0  -0.094481  0  3.716944  0  0  -0.112946  0  3.961487  0  0  -0.116038  0  3.984294  0  0  -0.082451  -0.110718  0  3.944793  0
C  C58  1  0.07992541  0.25635358  0.25871247  1  0  -0.111436  0  3.775684  0  0  -0.131564  0  4.025846  0  0  -0.133879  0  4.048078  0  0  -0.092154  -0.12931  0  4.009538  0
C  C59  1  0.92006402  0.74364287  0.74129018  1  0  -0.111361  0  3.775569  0  0  -0.131519  0  4.025758  0  0  -0.133819  0  4.047995  0  0  -0.092124  -0.129264  0  4.009446  0
C  C60  1  0.48518921  0.27861655  0.94259161  1  0  -0.003894  0  3.757363  0  0  -0.036226  0  4.015745  0  0  -0.034594  0  4.036125  0  0  -0.001812  -0.037311  0  4.002084  0
C  C61  1  0.51480960  0.72138255  0.05740923  1  0  -0.003872  0  3.75735  0  0  -0.036211  0  4.015744  0  0  -0.034587  0  4.036118  0  0  -0.001798  -0.037296  0  4.002081  0
C  C62  1  0.15858053  0.32239470  0.19796300  1  0  -0.121395  0  3.776949  0  0  -0.141486  0  4.025532  0  0  -0.144282  0  4.047492  0  0  -0.094738  -0.139954  0  4.011021  0
C  C63  1  0.84141039  0.67760001  0.80204016  1  0  -0.121258  0  3.77713  0  0  -0.141354  0  4.025713  0  0  -0.144149  0  4.047667  0  0  -0.094709  -0.139823  0  4.011199  0
C  C64  1  0.78636338  0.37376500  0.35339432  1  0  0.108194  0  3.767344  0  0  0.124389  0  4.011813  0  0  0.125576  0  4.035386  0  0  -0.018979  0.12362  0  3.994517  0
C  C65  1  0.21364455  0.62623321  0.64660307  1  0  0.108211  0  3.76736  0  0  0.124419  0  4.01178  0  0  0.125609  0  4.035351  0  0  -0.01908  0.123644  0  3.994497  0
C  C66  1  0.39118350  0.46603448  0.17885571  1  0  -0.064755  0  3.655168  0  0  -0.130966  0  3.911263  0  0  -0.126929  0  3.921261  0  0  -0.049921  -0.13353  0  3.904538  0
C  C67  1  0.60881189  0.53396107  0.82114402  1  0  -0.064714  0  3.655095  0  0  -0.131048  0  3.911255  0  0  -0.127011  0  3.921256  0  0  -0.049964  -0.133625  0  3.904554  0
C  C68  1  0.05984448  0.19193221  0.43258716  1  0  -0.042401  0  3.640175  0  0  -0.108646  0  3.88801  0  0  -0.104036  0  3.898763  0  0  -0.047634  -0.11175  0  3.880457  0
C  C69  1  0.94015099  0.80806340  0.56741579  1  0  -0.042524  0  3.640265  0  0  -0.108701  0  3.888024  0  0  -0.104092  0  3.898781  0  0  -0.047561  -0.111814  0  3.88048  0
C  C70  1  0.83836702  0.55167834  0.26549756  1  0  0.688247  0  3.873251  0  0  0.644433  0  4.173033  0  0  0.676874  0  4.166729  0  0  0.197066  0.622489  0  4.176541  0
C  C71  1  0.16162992  0.44831885  0.73449632  1  0  0.688288  0  3.87342  0  0  0.644518  0  4.173139  0  0  0.676959  0  4.166836  0  0  0.197065  0.622571  0  4.176655  0
C  C72  1  0.50727576  0.17844784  0.63652576  1  0  0.685171  0  3.882357  0  0  0.642769  0  4.17879  0  0  0.675279  0  4.172421  0  0  0.198417  0.620687  0  4.182444  0
C  C73  1  0.49273386  0.82156631  0.36347786  1  0  0.685211  0  3.882332  0  0  0.642743  0  4.17885  0  0  0.675254  0  4.172477  0  0  0.198301  0.620659  0  4.182506  0
C  C74  1  0.67605194  0.24188774  0.49830130  1  0  0.118916  0  3.762648  0  0  0.137773  0  3.9999  0  0  0.138637  0  4.023979  0  0  -0.016681  0.136865  0  3.983453  0
C  C75  1  0.32395293  0.75811659  0.50169567  1  0  0.119117  0  3.762377  0  0  0.137871  0  3.999748  0  0  0.138737  0  4.023833  0  0  -0.016645  0.136964  0  3.983301  0
C  C76  1  0.02448997  0.88149276  0.31096676  1  0  -0.004054  0  3.748229  0  0  -0.038639  0  4.012036  0  0  -0.036966  0  4.032171  0  0  -0.003336  -0.03972  0  3.998135  0
C  C77  1  0.97551202  0.11850636  0.68903434  1  0  -0.00408  0  3.748322  0  0  -0.038659  0  4.012112  0  0  -0.036982  0  4.032244  0  0  -0.003327  -0.039739  0  3.998208  0
C  C78  1  0.50660690  0.33037616  0.05609831  1  0  -0.08152  0  3.674328  0  0  -0.117825  0  3.931083  0  0  -0.11773  0  3.952013  0  0  4.8e-05  -0.118011  0  3.917188  0
C  C79  1  0.49338892  0.66961764  0.94390185  1  0  -0.081538  0  3.674437  0  0  -0.117836  0  3.93117  0  0  -0.11774  0  3.952103  0  0  7.2e-05  -0.118024  0  3.917279  0
C  C80  1  0.64506339  0.18962419  0.38199727  1  0  -0.141567  0  3.762221  0  0  -0.158531  0  4.007373  0  0  -0.161576  0  4.028459  0  0  -0.103375  -0.156173  0  3.992171  0
C  C81  1  0.35494197  0.81037573  0.61799871  1  0  -0.141802  0  3.762244  0  0  -0.158719  0  4.007422  0  0  -0.161766  0  4.028512  0  0  -0.103401  -0.156362  0  3.992221  0
C  C82  1  0.11120885  0.99757389  0.35060021  1  0  -0.069689  0  3.675984  0  0  -0.111536  0  3.934095  0  0  -0.111079  0  3.954454  0  0  0.001199  -0.111848  0  3.920853  0
C  C83  1  0.88879270  0.00242697  0.64939967  1  0  -0.069775  0  3.676061  0  0  -0.111557  0  3.934156  0  0  -0.111102  0  3.954517  0  0  0.001196  -0.111869  0  3.920912  0
C  C84  1  0.70027282  0.25470903  0.31113753  1  0  -0.142949  0  3.797905  0  0  -0.162866  0  4.050976  0  0  -0.165937  0  4.072745  0  0  -0.104036  -0.160244  0  4.034481  0
C  C85  1  0.29973287  0.74529177  0.68885869  1  0  -0.142814  0  3.797844  0  0  -0.162698  0  4.050881  0  0  -0.16577  0  4.072648  0  0  -0.103964  -0.160075  0  4.034389  0
C  C86  1  0.86391558  0.43700504  0.27853336  1  0  -0.310216  0  3.726134  0  0  -0.354931  0  3.971315  0  0  -0.360423  0  3.979706  0  0  -0.163549  -0.350962  0  3.965114  0
C  C87  1  0.13609019  0.56299311  0.72146226  1  0  -0.310341  0  3.726169  0  0  -0.355115  0  3.971432  0  0  -0.360605  0  3.979816  0  0  -0.163597  -0.351145  0  3.965234  0
C  C88  1  0.63516303  0.16798742  0.57551770  1  0  -0.309783  0  3.716983  0  0  -0.354694  0  3.960566  0  0  -0.360205  0  3.968861  0  0  -0.163663  -0.350918  0  3.955114  0
C  C89  1  0.36484381  0.83202223  0.42448146  1  0  -0.309831  0  3.717034  0  0  -0.354688  0  3.960675  0  0  -0.360203  0  3.968974  0  0  -0.16362  -0.350914  0  3.955232  0
C  C90  1  0.75590096  0.36260912  0.54037452  1  0  -0.114197  0  3.735586  0  0  -0.133699  0  3.982725  0  0  -0.135839  0  4.003154  0  0  -0.093773  -0.132604  0  3.969811  0
C  C91  1  0.24411217  0.63739175  0.45962311  1  0  -0.114234  0  3.735435  0  0  -0.133698  0  3.98256  0  0  -0.135849  0  4.002992  0  0  -0.093821  -0.132602  0  3.969642  0
C  C92  1  0.80928491  0.42752649  0.46940452  1  0  -0.112765  0  3.737116  0  0  -0.131409  0  3.986349  0  0  -0.133469  0  4.006895  0  0  -0.093735  -0.130483  0  3.973384  0
C  C93  1  0.19072647  0.57247528  0.53059477  1  0  -0.112871  0  3.737131  0  0  -0.131453  0  3.986352  0  0  -0.133516  0  4.006903  0  0  -0.09363  -0.130525  0  3.973385  0
N  N94  1  0.37625573  0.31325785  0.88924476  1  0  -0.383635  0  3.334517  0  0  -0.301438  0  3.635708  0  0  -0.32167  0  3.648341  0  0  -0.361138  -0.287764  0  3.626839  0
N  N95  1  0.62374236  0.68674214  0.11075703  1  0  -0.383665  0  3.334392  0  0  -0.301451  0  3.635571  0  0  -0.321686  0  3.64821  0  0  -0.361162  -0.287773  0  3.626692  0
N  N96  1  0.40976944  0.39708584  0.07084207  1  0  -0.01604  0  3.542606  0  0  0.067218  0  3.774685  0  0  0.053186  0  3.800995  0  0  -0.238593  0.076478  0  3.75692  0
N  N97  1  0.59022904  0.60291237  0.92915854  1  0  -0.016061  0  3.542624  0  0  0.06718  0  3.774758  0  0  0.053147  0  3.801069  0  0  -0.238597  0.076442  0  3.756996  0
N  N98  1  0.87971586  0.87648973  0.31994436  1  0  -0.386055  0  3.339809  0  0  -0.302094  0  3.640252  0  0  -0.322281  0  3.651437  0  0  -0.362441  -0.288462  0  3.632485  0
N  N99  1  0.12028758  0.12350762  0.68005565  1  0  -0.386055  0  3.339733  0  0  -0.302108  0  3.640192  0  0  -0.322293  0  3.651365  0  0  -0.362481  -0.288479  0  3.632435  0
N  N100  1  0.01692861  0.06301751  0.38335211  1  0  -0.048742  0  3.566505  0  0  0.046725  0  3.783095  0  0  0.031898  0  3.809721  0  0  -0.235414  0.0565  0  3.764995  0
N  N101  1  0.98307102  0.93698078  0.61665179  1  0  -0.048625  0  3.566481  0  0  0.046808  0  3.783057  0  0  0.031978  0  3.809681  0  0  -0.235406  0.056586  0  3.764956  0
O  O102  1  0.74115060  0.58935650  0.31547125  1  0  -0.651508  0  2.029985  0  0  -0.570739  0  2.291653  0  0  -0.598734  0  2.278275  0  0  -0.33137  -0.551233  0  2.30021  0
O  O103  1  0.25884536  0.41064075  0.68452575  1  0  -0.651388  0  2.030066  0  0  -0.570685  0  2.291773  0  0  -0.598676  0  2.278392  0  0  -0.331286  -0.551179  0  2.300334  0
O  O104  1  0.91164949  0.60195631  0.20556931  1  0  -0.645811  0  1.8762  0  0  -0.605192  0  2.091164  0  0  -0.62688  0  2.080892  0  0  -0.351246  -0.59  0  2.097691  0
O  O105  1  0.08835468  0.39805164  0.79443322  1  0  -0.645867  0  1.876317  0  0  -0.605255  0  2.09126  0  0  -0.626942  0  2.080987  0  0  -0.351314  -0.590061  0  2.097791  0
O  O106  1  0.45138932  0.26305803  0.63170686  1  0  -0.644681  0  2.033445  0  0  -0.564543  0  2.29388  0  0  -0.592766  0  2.280532  0  0  -0.330947  -0.544739  0  2.302239  0
O  O107  1  0.54862243  0.73695887  0.36830155  1  0  -0.644602  0  2.0332  0  0  -0.564466  0  2.293667  0  0  -0.592686  0  2.280313  0  0  -0.330856  -0.544662  0  2.302025  0
O  O108  1  0.46586178  0.10643120  0.69025120  1  0  -0.646674  0  1.901073  0  0  -0.60268  0  2.121054  0  0  -0.62524  0  2.11098  0  0  -0.340428  -0.586844  0  2.127893  0
O  O109  1  0.53414109  0.89358197  0.30974926  1  0  -0.646704  0  1.901096  0  0  -0.602669  0  2.121076  0  0  -0.625234  0  2.111013  0  0  -0.34037  -0.586832  0  2.127921  0
