# generated using pymatgen
data_ZnH8C21Br6NO9
_symmetry_space_group_name_H-M   'P 1'
_cell_length_a   11.12965580
_cell_length_b   18.24291731
_cell_length_c   19.31750136
_cell_angle_alpha   91.47971607
_cell_angle_beta   89.40070819
_cell_angle_gamma   105.91243697
_symmetry_Int_Tables_number   1
_chemical_formula_structural   ZnH8C21Br6NO9
_chemical_formula_sum   'Zn2 H16 C42 Br12 N2 O18'
_cell_volume   3770.60334415
_cell_formula_units_Z   2
loop_
 _symmetry_equiv_pos_site_id
 _symmetry_equiv_pos_as_xyz
  1  'x, y, z'
loop_
 _atom_site_type_symbol
 _atom_site_label
 _atom_site_symmetry_multiplicity
 _atom_site_fract_x
 _atom_site_fract_y
 _atom_site_fract_z
 _atom_site_occupancy
 _atom_site_pbe_bader_charge
 _atom_site_pbe_bader_spin_density
 _atom_site_pbe_cm5_charge
 _atom_site_pbe_ddec_charge
 _atom_site_pbe_ddec_spin_density
 _atom_site_pbe_ddec_sum_bond_order
 _atom_site_pbe_magmom
Zn  Zn0  1  0.47759806  0.42206098  0.49626673  1  1.30801  0  0.692294  0.872906  0  2.369701  0
Zn  Zn1  1  0.54910780  0.59045068  0.50283410  1  1.302625  0  0.68789  0.857239  0  2.366529  0
H  H2  1  0.66023681  0.19999365  0.48217900  1  0.09604  0  0.111519  0.130292  0  0.987975  0
H  H3  1  0.78704817  0.61133122  0.88868399  1  0.588656  0  0.324768  0.351674  0  0.896333  0
H  H4  1  0.65841365  0.41988993  0.12619700  1  0.600746  0  0.322511  0.351642  0  0.899526  0
H  H5  1  0.52016611  0.60750150  0.87446646  1  0.613148  0  0.320894  0.350829  0  0.903937  0
H  H6  1  0.72008075  0.42333168  0.89036528  1  0.586633  0  0.324438  0.354942  0  0.891693  0
H  H7  1  0.46818376  0.60981111  0.11053043  1  0.587882  0  0.317975  0.350077  0  0.905344  0
H  H8  1  0.25061593  0.32592710  0.50862891  1  0.669866  0  0.312414  0.37598  0  0.952331  0
H  H9  1  0.76460384  0.69695383  0.49873380  1  0.682451  0  0.320887  0.385063  0  0.926975  0
H  H10  1  0.32453580  0.79396494  0.49463623  1  0.0809  0  0.114298  0.133469  0  0.980727  0
H  H11  1  0.65087648  0.33535273  0.48620191  1  0.137959  0  0.112115  0.088701  0  1.032274  0
H  H12  1  0.35633675  0.66351116  0.49755665  1  0.149542  0  0.117438  0.096435  0  1.019126  0
H  H13  1  0.58365266  0.94703713  0.39628589  1  0.110318  0  0.110228  0.130431  0  0.981645  0
H  H14  1  0.38574240  0.05449564  0.59053701  1  0.101618  0  0.109579  0.129483  0  0.98449  0
H  H15  1  0.79849304  0.58677889  0.28771790  1  0.63287  0  0.330385  0.364572  0  0.894102  0
H  H16  1  0.71236839  0.61538198  0.65608142  1  0.64349  0  0.307431  0.356294  0  0.958584  0
H  H17  1  0.77543990  0.57784808  0.12632873  1  0.601077  0  0.331506  0.371043  0  0.880316  0
C  C18  1  0.55881304  0.50607492  0.63140109  1  1.555947  0  0.214841  0.619167  0  4.143967  0
C  C19  1  0.58527181  0.52011068  0.07287397  1  -0.023105  0  -0.061943  -0.206735  0  4.18969  0
C  C20  1  0.34853293  0.25241163  0.49751892  1  1.180384  0  0.220233  0.444116  0  4.052272  0
C  C21  1  0.65230561  0.76235930  0.50395705  1  1.173914  0  0.220528  0.438701  0  4.062903  0
C  C22  1  0.34668748  0.17428138  0.49386910  1  -0.091364  0  -0.020441  -0.083376  0  3.866797  0
C  C23  1  0.64124133  0.83802032  0.50442562  1  -0.061143  0  -0.020161  -0.085063  0  3.868928  0
C  C24  1  0.45876860  0.15428330  0.48869944  1  0.096033  0  0.004541  0.086789  0  4.020447  0
C  C25  1  0.52316935  0.85038250  0.50091372  1  0.043026  0  0.004306  0.086645  0  4.021015  0
C  C26  1  0.57091928  0.21335813  0.48603908  1  0.019494  0  -0.097405  -0.200538  0  4.003988  0
C  C27  1  0.41806521  0.78651941  0.49759041  1  0.029132  0  -0.095926  -0.202545  0  4.000168  0
C  C28  1  0.56650734  0.28797975  0.48852799  1  0.415311  0  0.040376  0.114814  0  3.961967  0
C  C29  1  0.48594393  0.50354727  0.36895564  1  1.595216  0  0.218424  0.639205  0  4.153174  0
C  C30  1  0.43481360  0.71458643  0.49857858  1  0.444908  0  0.044112  0.123041  0  3.949225  0
C  C31  1  0.52205170  0.04271122  0.43406690  1  -0.1167  0  -0.014069  0.071545  0  3.940982  0
C  C32  1  0.44645919  0.95857435  0.55243906  1  -0.106603  0  -0.014132  0.070133  0  3.946364  0
C  C33  1  0.75522869  0.53249867  0.48088287  1  1.655448  0  0.215362  0.624528  0  4.183806  0
C  C34  1  0.27844312  0.48740443  0.53196419  1  1.64746  0  0.219628  0.629418  0  4.165344  0
C  C35  1  0.54061243  0.97063188  0.43911526  1  0.039179  0  -0.091801  -0.16845  0  3.979835  0
C  C36  1  0.42853023  0.03088016  0.54759340  1  0.01648  0  -0.089239  -0.162797  0  3.967508  0
C  C37  1  0.50426104  0.92763077  0.49855755  1  0.021385  0  -0.011723  0.034564  0  4.001949  0
C  C38  1  0.46712609  0.07459175  0.48866778  1  0.049952  0  -0.011145  0.035455  0  3.990339  0
C  C39  1  0.88486558  0.52310051  0.48045673  1  -0.041852  0  -0.029532  -0.076997  0  3.862557  0
C  C40  1  0.50480359  0.50793598  0.29166157  1  0.092293  0  -0.027027  -0.15045  0  3.944565  0
C  C41  1  0.14970460  0.49437906  0.54602838  1  -0.017521  0  -0.029959  -0.08672  0  3.874621  0
C  C42  1  0.92437374  0.47486296  0.52024719  1  0.01044  0  -0.037512  0.011269  0  4.052929  0
C  C43  1  0.04465281  0.45762856  0.51197586  1  0.009988  0  -0.031782  0.025561  0  4.044717  0
C  C44  1  0.62629504  0.54053679  0.26766921  1  0.52033  0  0.07548  0.203147  0  4.060038  0
C  C45  1  0.67220441  0.56226925  0.73890135  1  0.665389  0  0.08204  0.21439  0  4.054402  0
C  C46  1  0.65002761  0.54420154  0.19609381  1  0.481884  0  0.060485  0.131725  0  4.129116  0
C  C47  1  0.69161665  0.56249076  0.81121787  1  0.456416  0  0.068926  0.152099  0  4.086752  0
C  C48  1  0.55455201  0.51440719  0.14795535  1  0.052987  0  -0.043747  -0.105154  0  4.151529  0
C  C49  1  0.60870453  0.50981151  0.85293067  1  0.076297  0  -0.04402  -0.114414  0  4.15265  0
C  C50  1  0.43204083  0.48084911  0.17291506  1  -0.044799  0  -0.038074  -0.005142  0  3.992268  0
C  C51  1  0.57236201  0.50548417  0.70822544  1  0.026998  0  -0.042841  -0.211981  0  3.97391  0
C  C52  1  0.50762305  0.45402724  0.82200789  1  -0.087211  0  -0.040441  -0.003994  0  3.991146  0
C  C53  1  0.40767405  0.47873031  0.24422694  1  -0.07324  0  -0.032946  0.034663  0  3.989338  0
C  C54  1  0.48969913  0.45133959  0.75045552  1  -0.045932  0  -0.032853  0.044759  0  3.967637  0
C  C55  1  0.64905487  0.47074860  0.04171460  1  0.528003  0  0.053203  0.147637  0  4.108094  0
C  C56  1  0.55905926  0.57119360  0.96111635  1  0.515056  0  0.056128  0.159541  0  4.105987  0
C  C57  1  0.66645037  0.47096255  0.96966895  1  0.580778  0  0.054074  0.160353  0  4.125752  0
C  C58  1  0.54345412  0.57190392  0.03309550  1  0.489761  0  0.054619  0.16123  0  4.114339  0
C  C59  1  0.61807418  0.51954092  0.92964456  1  0.000765  0  -0.063229  -0.214191  0  4.198651  0
Br  Br60  1  0.03639973  0.37752737  0.44518583  1  0.009621  0  0.059921  0.015481  0  1.467005  0
Br  Br61  1  0.39540256  0.38629676  0.88144246  1  -0.022979  0  0.027048  -0.037854  0  1.505255  0
Br  Br62  1  0.24321698  0.43918169  0.27917476  1  -0.033763  0  0.010982  -0.060957  0  1.512693  0
Br  Br63  1  0.34606056  0.37975080  0.71303868  1  -0.018735  0  0.01664  -0.033014  0  1.513608  0
Br  Br64  1  0.82448568  0.42035957  0.59322165  1  -0.003441  0  0.066435  0.013257  0  1.47281  0
Br  Br65  1  0.18983306  0.10018940  0.49443971  1  -0.013579  0  0.040812  -0.018634  0  1.402565  0
Br  Br66  1  0.78833051  0.91977144  0.51147260  1  -0.000431  0  0.042163  -0.017581  0  1.396581  0
Br  Br67  1  0.57030386  0.09542511  0.35017993  1  -0.049311  0  0.029651  -0.056819  0  1.34415  0
Br  Br68  1  0.39471238  0.90410163  0.63502240  1  -0.044238  0  0.031125  -0.052719  0  1.338577  0
Br  Br69  1  0.14073787  0.57194682  0.61177872  1  0.008956  0  0.05697  0.007438  0  1.437543  0
Br  Br70  1  0.99635642  0.58154623  0.41458818  1  -0.008024  0  0.05224  0.000392  0  1.422378  0
Br  Br71  1  0.30385119  0.43736841  0.10817338  1  -0.020377  0  0.032752  -0.027607  0  1.482362  0
N  N72  1  0.45759439  0.30730665  0.49442443  1  -1.243658  0  -0.340468  -0.328668  0  3.484533  0
N  N73  1  0.54953797  0.70267385  0.50217914  1  -1.251545  0  -0.34108  -0.334968  0  3.497097  0
O  O74  1  0.51386100  0.44402622  0.59877400  1  -1.160925  0  -0.308823  -0.538458  0  2.451403  0
O  O75  1  0.75117144  0.61756169  0.70287889  1  -1.143425  0  -0.349563  -0.410133  0  2.270335  0
O  O76  1  0.77081651  0.57837464  0.17708383  1  -1.124006  0  -0.354278  -0.43355  0  2.283935  0
O  O77  1  0.78935505  0.61746911  0.83830778  1  -1.093552  0  -0.343114  -0.388805  0  2.262954  0
O  O78  1  0.68993209  0.41921558  0.07882838  1  -1.106923  0  -0.35681  -0.406721  0  2.253816  0
O  O79  1  0.50980158  0.61849638  0.92365130  1  -1.120842  0  -0.353669  -0.401165  0  2.254625  0
O  O80  1  0.72374298  0.42012533  0.94067276  1  -1.10213  0  -0.354497  -0.405418  0  2.259099  0
O  O81  1  0.48269774  0.62124847  0.06151249  1  -1.09724  0  -0.356755  -0.407763  0  2.267631  0
O  O82  1  0.24050696  0.26987558  0.50387846  1  -1.164117  0  -0.33595  -0.460626  0  2.345554  0
O  O83  1  0.76582346  0.75148604  0.50551568  1  -1.175645  0  -0.33083  -0.446674  0  2.297368  0
O  O84  1  0.50381195  0.56667020  0.40193793  1  -1.156319  0  -0.31453  -0.539175  0  2.313563  0
O  O85  1  0.59758275  0.57172821  0.60284500  1  -1.172998  0  -0.314138  -0.554884  0  2.339994  0
O  O86  1  0.45897520  0.43753852  0.39417848  1  -1.14024  0  -0.313559  -0.532668  0  2.317096  0
O  O87  1  0.66965078  0.47064950  0.47836290  1  -1.175175  0  -0.298687  -0.53547  0  2.375383  0
O  O88  1  0.36460210  0.54899351  0.53465961  1  -1.190206  0  -0.302235  -0.537711  0  2.396687  0
O  O89  1  0.73972003  0.59918004  0.48298808  1  -1.163006  0  -0.306465  -0.54707  0  2.333494  0
O  O90  1  0.29308342  0.42191312  0.51717001  1  -1.169827  0  -0.302086  -0.544708  0  2.404251  0
O  O91  1  0.72075734  0.56785809  0.31370721  1  -1.126936  0  -0.34313  -0.413764  0  2.315485  0
