# generated using pymatgen
data_Zn2H19C25(NO2)4
_symmetry_space_group_name_H-M   'P 1'
_cell_length_a   12.75860411
_cell_length_b   12.67368855
_cell_length_c   13.05562805
_cell_angle_alpha   68.36731130
_cell_angle_beta   66.09657005
_cell_angle_gamma   75.06070358
_symmetry_Int_Tables_number   1
_chemical_formula_structural   Zn2H19C25(NO2)4
_chemical_formula_sum   'Zn4 H38 C50 N8 O16'
_cell_volume   1779.41168131
_cell_formula_units_Z   2
loop_
 _symmetry_equiv_pos_site_id
 _symmetry_equiv_pos_as_xyz
  1  'x, y, z'
loop_
 _atom_site_type_symbol
 _atom_site_label
 _atom_site_symmetry_multiplicity
 _atom_site_fract_x
 _atom_site_fract_y
 _atom_site_fract_z
 _atom_site_occupancy
 _atom_site_hle17_bader_spin_density
 _atom_site_hle17_ddec_charge
 _atom_site_hle17_ddec_spin_density
 _atom_site_hle17_ddec_sum_bond_order
 _atom_site_hle17_magmom
 _atom_site_hse06_10hf_bader_spin_density
 _atom_site_hse06_10hf_ddec_charge
 _atom_site_hse06_10hf_ddec_spin_density
 _atom_site_hse06_10hf_ddec_sum_bond_order
 _atom_site_hse06_10hf_magmom
 _atom_site_hse06_bader_spin_density
 _atom_site_hse06_ddec_charge
 _atom_site_hse06_ddec_spin_density
 _atom_site_hse06_ddec_sum_bond_order
 _atom_site_hse06_magmom
 _atom_site_pbe_bader_spin_density
 _atom_site_pbe_cm5_charge
 _atom_site_pbe_ddec_charge
 _atom_site_pbe_ddec_spin_density
 _atom_site_pbe_ddec_sum_bond_order
 _atom_site_pbe_magmom
Zn  Zn0  1  0.22918187  0.29034942  0.40490015  1  0  0.966074  0  1.890631  0  0  0.770107  0  2.36703  0  0  0.819208  0  2.312897  0  0  0.685516  0.7358  0  2.404242  0
Zn  Zn1  1  0.77082022  0.70965231  0.59510042  1  0  0.966086  0  1.890667  0  0  0.770114  0  2.367064  0  0  0.81922  0  2.312929  0  0  0.685528  0.735803  0  2.404273  0
Zn  Zn2  1  0.78102021  0.82258964  0.04339813  1  0  0.962444  0  1.869697  0  0  0.762611  0  2.342993  0  0  0.813043  0  2.289184  0  0  0.677764  0.727447  0  2.379816  0
Zn  Zn3  1  0.21897881  0.17740949  0.95660154  1  0  0.962457  0  1.869691  0  0  0.762613  0  2.342992  0  0  0.81306  0  2.289154  0  0  0.677765  0.727441  0  2.379835  0
H  H4  1  0.58848704  0.99219091  0.39065145  1  0  0.143499  0  0.958158  0  0  0.148936  0  1.0216  0  0  0.153946  0  1.017695  0  0  0.116657  0.145219  0  1.024678  0
H  H5  1  0.41150918  0.00780993  0.60934869  1  0  0.143512  0  0.958128  0  0  0.148952  0  1.021552  0  0  0.15398  0  1.017626  0  0  0.116641  0.145232  0  1.024635  0
H  H6  1  0.74003712  0.87630696  0.26620563  1  0  0.090247  0  0.945247  0  0  0.096907  0  1.011908  0  0  0.099719  0  1.009443  0  0  0.119314  0.09475  0  1.013942  0
H  H7  1  0.25996048  0.12369646  0.73379457  1  0  0.090222  0  0.945203  0  0  0.096864  0  1.011896  0  0  0.099674  0  1.009432  0  0  0.119284  0.094706  0  1.013934  0
H  H8  1  0.58651481  0.99964963  0.01189658  1  0  0.07355  0  0.943271  0  0  0.082981  0  1.005659  0  0  0.085317  0  1.004131  0  0  0.115442  0.081282  0  1.006832  0
H  H9  1  0.41348454  0.00034693  0.98810314  1  0  0.073581  0  0.94329  0  0  0.083028  0  1.005658  0  0  0.085366  0  1.004127  0  0  0.115456  0.081329  0  1.006831  0
H  H10  1  0.42959198  0.12451603  0.12386576  1  0  0.126226  0  0.979786  0  0  0.130437  0  1.047608  0  0  0.134736  0  1.045462  0  0  0.108056  0.127214  0  1.049496  0
H  H11  1  0.57040939  0.87548481  0.87613160  1  0  0.126197  0  0.97978  0  0  0.130436  0  1.047569  0  0  0.134734  0  1.045424  0  0  0.108055  0.127211  0  1.049457  0
H  H12  1  0.06843534  0.46587925  0.06754013  1  0  0.142384  0  0.95795  0  0  0.146866  0  1.022543  0  0  0.151733  0  1.018901  0  0  0.115908  0.143329  0  1.02533  0
H  H13  1  0.93156602  0.53412161  0.93245952  1  0  0.142455  0  0.957916  0  0  0.14691  0  1.022531  0  0  0.151779  0  1.018887  0  0  0.115926  0.143374  0  1.025315  0
H  H14  1  0.18697786  0.32499038  0.18505965  1  0  0.094776  0  0.943599  0  0  0.101276  0  1.009332  0  0  0.104043  0  1.007158  0  0  0.122088  0.099069  0  1.011337  0
H  H15  1  0.81302350  0.67501047  0.81493924  1  0  0.094776  0  0.943558  0  0  0.101272  0  1.0093  0  0  0.104039  0  1.007127  0  0  0.122086  0.099065  0  1.011307  0
H  H16  1  0.08872872  0.51644326  0.41477720  1  0  0.07456  0  0.937649  0  0  0.08365  0  0.999439  0  0  0.086154  0  0.997872  0  0  0.115727  0.081789  0  1.000648  0
H  H17  1  0.91127286  0.48355590  0.58522375  1  0  0.074539  0  0.937632  0  0  0.083649  0  0.999409  0  0  0.086152  0  0.99784  0  0  0.115719  0.081785  0  1.000618  0
H  H18  1  0.96593330  0.66471334  0.30848162  1  0  0.122008  0  0.983747  0  0  0.125029  0  1.055848  0  0  0.129334  0  1.053141  0  0  0.106906  0.121756  0  1.058233  0
H  H19  1  0.03406742  0.33528583  0.69152044  1  0  0.122022  0  0.983761  0  0  0.125032  0  1.055867  0  0  0.129337  0  1.053161  0  0  0.106906  0.121761  0  1.058255  0
H  H20  1  0.03842648  0.14544763  0.78954022  1  0  0.120732  0  0.971583  0  0  0.124682  0  1.042473  0  0  0.128774  0  1.040133  0  0  0.107705  0.121589  0  1.044554  0
H  H21  1  0.96157373  0.85454894  0.21045991  1  0  0.120867  0  0.971495  0  0  0.124817  0  1.042376  0  0  0.128912  0  1.040027  0  0  0.107756  0.121716  0  1.044467  0
H  H22  1  0.91520119  0.01787038  0.97446864  1  0  0.073833  0  0.938801  0  0  0.083216  0  1.000193  0  0  0.085553  0  0.998717  0  0  0.115968  0.081508  0  1.001336  0
H  H23  1  0.08479646  0.98212616  0.02553022  1  0  0.073803  0  0.938859  0  0  0.083169  0  1.000269  0  0  0.085505  0  0.998797  0  0  0.115957  0.081465  0  1.001408  0
H  H24  1  0.84619971  0.85469609  0.79005069  1  0  0.097304  0  0.935919  0  0  0.105077  0  0.998288  0  0  0.108059  0  0.99546  0  0  0.125725  0.102733  0  1.000696  0
H  H25  1  0.15379772  0.14530214  0.20994533  1  0  0.097292  0  0.935794  0  0  0.105056  0  0.998168  0  0  0.108017  0  0.995361  0  0  0.125675  0.102711  0  1.000579  0
H  H26  1  0.96370065  0.97516883  0.59801953  1  0  0.132808  0  0.968251  0  0  0.13778  0  1.033665  0  0  0.142606  0  1.029781  0  0  0.113287  0.134254  0  1.036596  0
H  H27  1  0.03629934  0.02482943  0.40197854  1  0  0.13284  0  0.968159  0  0  0.137799  0  1.033582  0  0  0.142623  0  1.029699  0  0  0.113289  0.134274  0  1.036515  0
H  H28  1  0.24043152  0.31259815  0.61990001  1  0  0.089084  0  0.958975  0  0  0.094099  0  1.030042  0  0  0.096864  0  1.027364  0  0  0.118249  0.091954  0  1.032223  0
H  H29  1  0.75957135  0.68739760  0.38010244  1  0  0.089099  0  0.958912  0  0  0.09409  0  1.030054  0  0  0.096855  0  1.027376  0  0  0.118248  0.091945  0  1.032234  0
H  H30  1  0.36387626  0.39123966  0.67051645  1  0  0.136432  0  0.985635  0  0  0.144823  0  1.045736  0  0  0.148766  0  1.04341  0  0  0.113511  0.141986  0  1.047497  0
H  H31  1  0.63612350  0.60875355  0.32949275  1  0  0.13619  0  0.985894  0  0  0.144638  0  1.045944  0  0  0.14856  0  1.043626  0  0  0.113488  0.14181  0  1.04771  0
H  H32  1  0.53291717  0.54504439  0.29564562  1  0  0.125363  0  0.996336  0  0  0.130224  0  1.061547  0  0  0.134792  0  1.058837  0  0  0.10812  0.126877  0  1.06368  0
H  H33  1  0.46708123  0.45495913  0.70436419  1  0  0.125302  0  0.996457  0  0  0.130188  0  1.061634  0  0  0.134748  0  1.058928  0  0  0.108106  0.126841  0  1.063766  0
H  H34  1  0.40185477  0.45703796  0.26290418  1  0  0.074866  0  0.930751  0  0  0.084726  0  0.991562  0  0  0.08718  0  0.989685  0  0  0.118061  0.082867  0  0.993018  0
H  H35  1  0.59814361  0.54297237  0.73710008  1  0  0.074878  0  0.930673  0  0  0.084749  0  0.991488  0  0  0.087194  0  0.989617  0  0  0.118087  0.082889  0  0.992941  0
H  H36  1  0.56555114  0.55078210  0.07043504  1  0  0.12902  0  0.940247  0  0  0.149793  0  0.994994  0  0  0.152009  0  0.994453  0  0  0.095863  0.148259  0  0.995337  0
H  H37  1  0.43444583  0.44921959  0.92956374  1  0  0.12904  0  0.940201  0  0  0.149822  0  0.994943  0  0  0.152039  0  0.994402  0  0  0.095892  0.148287  0  0.995284  0
H  H38  1  0.58395308  0.66323423  0.93271024  1  0  0.141617  0  0.962813  0  0  0.155484  0  1.029608  0  0  0.15906  0  1.027387  0  0  0.093138  0.152895  0  1.031241  0
H  H39  1  0.41604668  0.33676576  0.06728883  1  0  0.141632  0  0.962815  0  0  0.1555  0  1.029607  0  0  0.159076  0  1.027388  0  0  0.093153  0.152911  0  1.031242  0
H  H40  1  0.47054891  0.68100904  0.06322238  1  0  0.129454  0  0.931135  0  0  0.150313  0  0.986204  0  0  0.152521  0  0.985942  0  0  0.098132  0.148817  0  0.986329  0
H  H41  1  0.52945075  0.31899179  0.93677489  1  0  0.129442  0  0.931159  0  0  0.150296  0  0.986234  0  0  0.152505  0  0.985973  0  0  0.098118  0.1488  0  0.986357  0
C  C42  1  0.40537991  0.13927229  0.33717527  1  0  0.621928  0  3.925809  0  0  0.577136  0  4.211661  0  0  0.61049  0  4.204416  0  0  0.199825  0.554538  0  4.215691  0
C  C43  1  0.59461599  0.86073110  0.66282178  1  0  0.621835  0  3.925955  0  0  0.577137  0  4.21176  0  0  0.610492  0  4.204515  0  0  0.199763  0.55454  0  4.215789  0
C  C44  1  0.49857215  0.06860668  0.26511247  1  0  0.012954  0  3.708734  0  0  0.033627  0  3.933035  0  0  0.031744  0  3.953006  0  0  0.012245  0.034899  0  3.919511  0
C  C45  1  0.50142493  0.93139415  0.73488657  1  0  0.01321  0  3.708554  0  0  0.033697  0  3.933064  0  0  0.031814  0  3.953041  0  0  0.012261  0.034969  0  3.919542  0
C  C46  1  0.58635909  0.99808308  0.30603132  1  0  -0.11427  0  3.664121  0  0  -0.135163  0  3.902515  0  0  -0.140208  0  3.921475  0  0  -0.069892  -0.131873  0  3.889946  0
C  C47  1  0.41363981  0.00191691  0.69396808  1  0  -0.114322  0  3.663971  0  0  -0.135156  0  3.902394  0  0  -0.140214  0  3.921343  0  0  -0.069828  -0.131862  0  3.889831  0
C  C48  1  0.66983162  0.93243823  0.23812430  1  0  0.129909  0  3.673608  0  0  0.100538  0  3.921719  0  0  0.106519  0  3.940017  0  0  0.050564  0.096636  0  3.909325  0
C  C49  1  0.33016779  0.06756436  0.76187702  1  0  0.129892  0  3.673538  0  0  0.100529  0  3.921649  0  0  0.106512  0  3.939955  0  0  0.050551  0.096627  0  3.909253  0
C  C50  1  0.58359358  0.00182486  0.09579763  1  0  0.109661  0  3.730068  0  0  0.080095  0  3.980256  0  0  0.085308  0  3.999962  0  0  0.040385  0.076478  0  3.967263  0
C  C51  1  0.41640799  0.99817430  0.90420332  1  0  0.109635  0  3.730047  0  0  0.080058  0  3.980231  0  0  0.08527  0  3.999941  0  0  0.040376  0.076441  0  3.967233  0
C  C52  1  0.49755322  0.07084560  0.15751624  1  0  -0.129265  0  3.703343  0  0  -0.149543  0  3.945599  0  0  -0.155494  0  3.966813  0  0  -0.080248  -0.1456  0  3.931572  0
C  C53  1  0.50244558  0.92915524  0.84248213  1  0  -0.129325  0  3.703339  0  0  -0.14957  0  3.945646  0  0  -0.155521  0  3.966861  0  0  -0.080259  -0.145624  0  3.931612  0
C  C54  1  0.93597006  0.66300481  0.11008840  1  0  0.622294  0  3.920882  0  0  0.577339  0  4.205261  0  0  0.610858  0  4.197933  0  0  0.200133  0.554678  0  4.209326  0
C  C55  1  0.06403267  0.33699863  0.88990978  1  0  0.622341  0  3.920732  0  0  0.577417  0  4.205089  0  0  0.610931  0  4.197765  0  0  0.200202  0.554754  0  4.209151  0
C  C56  1  0.00867183  0.57720649  0.17822383  1  0  0.006899  0  3.714248  0  0  0.027761  0  3.938981  0  0  0.025285  0  3.959674  0  0  0.010145  0.029405  0  3.924987  0
C  C57  1  0.99132953  0.42279437  0.82177506  1  0  0.007045  0  3.714113  0  0  0.027841  0  3.938914  0  0  0.025365  0  3.959607  0  0  0.010187  0.029487  0  3.924919  0
C  C58  1  0.07153481  0.48060121  0.14339626  1  0  -0.108403  0  3.651547  0  0  -0.127844  0  3.888523  0  0  -0.133038  0  3.908139  0  0  -0.066592  -0.124476  0  3.875493  0
C  C59  1  0.92846655  0.51939965  0.85660340  1  0  -0.108509  0  3.651503  0  0  -0.127919  0  3.888498  0  0  -0.133114  0  3.908113  0  0  -0.06662  -0.124555  0  3.87547  0
C  C60  1  0.13614731  0.40130169  0.20911651  1  0  0.139537  0  3.652714  0  0  0.110144  0  3.899336  0  0  0.116005  0  3.917595  0  0  0.058032  0.106225  0  3.887211  0
C  C61  1  0.86385491  0.59869917  0.79088204  1  0  0.139446  0  3.652717  0  0  0.110064  0  3.899321  0  0  0.115924  0  3.917579  0  0  0.057965  0.106145  0  3.8872  0
C  C62  1  0.08104986  0.50849362  0.33774283  1  0  0.112405  0  3.730812  0  0  0.083779  0  3.980895  0  0  0.089051  0  4.000004  0  0  0.042328  0.080411  0  3.967799  0
C  C63  1  0.91895012  0.49150468  0.66225831  1  0  0.112432  0  3.730736  0  0  0.083787  0  3.980814  0  0  0.089062  0  3.999919  0  0  0.042335  0.08042  0  3.967713  0
C  C64  1  0.01383870  0.59122696  0.27750178  1  0  -0.130918  0  3.711752  0  0  -0.153042  0  3.95813  0  0  -0.158651  0  3.979249  0  0  -0.080196  -0.14937  0  3.94418  0
C  C65  1  0.98616276  0.40877305  0.72249891  1  0  -0.130985  0  3.711797  0  0  -0.153081  0  3.958207  0  0  -0.158688  0  3.979324  0  0  -0.080214  -0.14941  0  3.944258  0
C  C66  1  0.08190523  0.14580717  0.56276983  1  0  0.628943  0  3.924297  0  0  0.583476  0  4.210237  0  0  0.617016  0  4.202622  0  0  0.203873  0.560758  0  4.214496  0
C  C67  1  0.91809928  0.85418937  0.43722479  1  0  0.628911  0  3.924103  0  0  0.583447  0  4.210022  0  0  0.616989  0  4.20241  0  0  0.203919  0.560726  0  4.214285  0
C  C68  1  0.01053859  0.07105402  0.67806004  1  0  0.00565  0  3.711317  0  0  0.025513  0  3.937269  0  0  0.023086  0  3.958101  0  0  0.008183  0.02716  0  3.923133  0
C  C69  1  0.98946505  0.92894253  0.32193645  1  0  0.005624  0  3.711204  0  0  0.025489  0  3.937111  0  0  0.023058  0  3.95795  0  0  0.008179  0.02714  0  3.92297  0
C  C70  1  0.99696939  0.08240580  0.78570084  1  0  -0.130141  0  3.707559  0  0  -0.151192  0  3.952808  0  0  -0.156917  0  3.974144  0  0  -0.078753  -0.147375  0  3.938647  0
C  C71  1  0.00303266  0.91758988  0.21429507  1  0  -0.130271  0  3.707476  0  0  -0.151314  0  3.952674  0  0  -0.157037  0  3.974009  0  0  -0.078802  -0.147489  0  3.93852  0
C  C72  1  0.92948619  0.01112574  0.88870430  1  0  0.11043  0  3.732287  0  0  0.08139  0  3.982413  0  0  0.086667  0  4.002008  0  0  0.041539  0.077793  0  3.969363  0
C  C73  1  0.07051392  0.98887166  0.11129328  1  0  0.110475  0  3.732204  0  0  0.081439  0  3.982342  0  0  0.086715  0  4.001941  0  0  0.041564  0.077834  0  3.969304  0
C  C74  1  0.89069925  0.91972812  0.78572350  1  0  0.141116  0  3.658263  0  0  0.111104  0  3.903948  0  0  0.1176  0  3.921303  0  0  0.056047  0.10681  0  3.89241  0
C  C75  1  0.10930086  0.08026926  0.21427178  1  0  0.141037  0  3.658358  0  0  0.111032  0  3.904051  0  0  0.117543  0  3.921412  0  0  0.05607  0.106738  0  3.89251  0
C  C76  1  0.95624926  0.98789270  0.67884791  1  0  -0.107273  0  3.669847  0  0  -0.127259  0  3.907839  0  0  -0.132506  0  3.927386  0  0  -0.066495  -0.123806  0  3.894791  0
C  C77  1  0.04375267  0.01210385  0.32114926  1  0  -0.10724  0  3.669732  0  0  -0.127201  0  3.907695  0  0  -0.132444  0  3.927234  0  0  -0.066464  -0.123756  0  3.894648  0
C  C78  1  0.30625055  0.36479466  0.55099743  1  0  0.13862  0  3.683505  0  0  0.106309  0  3.934713  0  0  0.112883  0  3.953413  0  0  0.051929  0.102103  0  3.921963  0
C  C79  1  0.69375027  0.63520365  0.44900566  1  0  0.138709  0  3.683305  0  0  0.106376  0  3.934523  0  0  0.112949  0  3.953217  0  0  0.051964  0.102168  0  3.921776  0
C  C80  1  0.37632359  0.40991201  0.57827331  1  0  -0.148962  0  3.652845  0  0  -0.166753  0  3.890862  0  0  -0.174107  0  3.911069  0  0  -0.074037  -0.1619  0  3.877195  0
C  C81  1  0.62367464  0.59008633  0.42173462  1  0  -0.148803  0  3.652973  0  0  -0.166564  0  3.891059  0  0  -0.173895  0  3.911252  0  0  -0.073984  -0.161727  0  3.877401  0
C  C82  1  0.46117164  0.47588726  0.48738559  1  0  0.104073  0  3.732875  0  0  0.116022  0  3.961234  0  0  0.120015  0  3.982468  0  0  0.019465  0.113489  0  3.946721  0
C  C83  1  0.53882625  0.52411368  0.51262459  1  0  0.104093  0  3.732849  0  0  0.11582  0  3.961444  0  0  0.119812  0  3.982675  0  0  0.019385  0.113294  0  3.946927  0
C  C84  1  0.46982244  0.49410474  0.37138321  1  0  -0.155995  0  3.678529  0  0  -0.171405  0  3.918343  0  0  -0.17924  0  3.939151  0  0  -0.078818  -0.16633  0  3.904478  0
C  C85  1  0.53017649  0.50590132  0.62862316  1  0  -0.155877  0  3.678592  0  0  -0.171272  0  3.918502  0  0  -0.179098  0  3.939305  0  0  -0.078727  -0.166198  0  3.904637  0
C  C86  1  0.39634592  0.44575102  0.35191010  1  0  0.124824  0  3.726931  0  0  0.092998  0  3.977915  0  0  0.098964  0  3.997855  0  0  0.045533  0.089157  0  3.964387  0
C  C87  1  0.60365399  0.55425417  0.64809467  1  0  0.124756  0  3.726959  0  0  0.092921  0  3.977965  0  0  0.098896  0  3.997906  0  0  0.045426  0.089078  0  3.964438  0
C  C88  1  0.56066972  0.64350356  0.02775462  1  0  -0.455584  0  3.678775  0  0  -0.526901  0  3.906015  0  0  -0.534604  0  3.908676  0  0  -0.245285  -0.521449  0  3.903906  0
C  C89  1  0.43932844  0.35649557  0.97224462  1  0  -0.455587  0  3.678813  0  0  -0.526909  0  3.906052  0  0  -0.534617  0  3.908717  0  0  -0.245293  -0.521454  0  3.90394  0
C  C90  1  0.63696555  0.69398526  0.05680459  1  0  0.730188  0  3.85453  0  0  0.694923  0  4.141284  0  0  0.727815  0  4.135522  0  0  0.200355  0.672608  0  4.144259  0
C  C91  1  0.36303529  0.30601302  0.94319468  1  0  0.730211  0  3.85471  0  0  0.694917  0  4.141477  0  0  0.727812  0  4.135716  0  0  0.200378  0.6726  0  4.144456  0
N  N92  1  0.66823584  0.93342377  0.13507771  1  0  -0.332249  0  3.325026  0  0  -0.249942  0  3.602165  0  0  -0.268394  0  3.617752  0  0  -0.33083  -0.237319  0  3.591387  0
N  N93  1  0.33176466  0.06657708  0.86492151  1  0  -0.332238  0  3.325014  0  0  -0.24993  0  3.602154  0  0  -0.268386  0  3.617748  0  0  -0.330811  -0.237304  0  3.591371  0
N  N94  1  0.14046548  0.41469818  0.30509339  1  0  -0.329835  0  3.325644  0  0  -0.248459  0  3.604545  0  0  -0.26632  0  3.619002  0  0  -0.331506  -0.23625  0  3.594584  0
N  N95  1  0.85953599  0.58530183  0.69490729  1  0  -0.329802  0  3.325616  0  0  -0.248421  0  3.604504  0  0  -0.266284  0  3.618963  0  0  -0.331488  -0.236213  0  3.594541  0
N  N96  1  0.87731286  0.93094808  0.88919997  1  0  -0.322304  0  3.319214  0  0  -0.240822  0  3.595557  0  0  -0.259135  0  3.610834  0  0  -0.326044  -0.228233  0  3.584933  0
N  N97  1  0.12268554  0.06904932  0.11079829  1  0  -0.322238  0  3.319112  0  0  -0.240777  0  3.59547  0  0  -0.259088  0  3.610743  0  0  -0.326061  -0.228182  0  3.584842  0
N  N98  1  0.31584897  0.38175011  0.43964897  1  0  -0.335091  0  3.331663  0  0  -0.251684  0  3.608183  0  0  -0.270896  0  3.624154  0  0  -0.333112  -0.238694  0  3.597181  0
N  N99  1  0.68414957  0.61825250  0.56035498  1  0  -0.335149  0  3.331685  0  0  -0.251715  0  3.608193  0  0  -0.270932  0  3.624166  0  0  -0.333111  -0.238724  0  3.597186  0
O  O100  1  0.34664269  0.22320390  0.28115539  1  0  -0.639987  0  2.024248  0  0  -0.57085  0  2.289753  0  0  -0.600597  0  2.276074  0  0  -0.330808  -0.549811  0  2.298285  0
O  O101  1  0.65335887  0.77680207  0.71883925  1  0  -0.640048  0  2.024382  0  0  -0.570916  0  2.28986  0  0  -0.600663  0  2.27618  0  0  -0.330763  -0.549874  0  2.298393  0
O  O102  1  0.38821899  0.11554302  0.44393867  1  0  -0.586537  0  1.915518  0  0  -0.541601  0  2.128698  0  0  -0.564868  0  2.120297  0  0  -0.308819  -0.525268  0  2.133946  0
O  O103  1  0.61177348  0.88446037  0.55606050  1  0  -0.586503  0  1.915588  0  0  -0.541612  0  2.128773  0  0  -0.564876  0  2.120372  0  0  -0.308837  -0.525278  0  2.134018  0
O  O104  1  0.93612318  0.65149125  0.01894257  1  0  -0.584788  0  1.919476  0  0  -0.538464  0  2.136035  0  0  -0.561822  0  2.126887  0  0  -0.306502  -0.522207  0  2.141891  0
O  O105  1  0.06388087  0.34850874  0.98105481  1  0  -0.584834  0  1.919457  0  0  -0.538523  0  2.136013  0  0  -0.561882  0  2.126863  0  0  -0.306556  -0.522268  0  2.14187  0
O  O106  1  0.87416016  0.74655640  0.15189143  1  0  -0.642727  0  2.010293  0  0  -0.571974  0  2.27331  0  0  -0.601336  0  2.259695  0  0  -0.327738  -0.551208  0  2.281838  0
O  O107  1  0.12584270  0.25344616  0.84810548  1  0  -0.642721  0  2.010158  0  0  -0.571966  0  2.273159  0  0  -0.601326  0  2.259539  0  0  -0.327749  -0.551206  0  2.281703  0
O  O108  1  0.09740567  0.12990485  0.46855395  1  0  -0.587953  0  1.905586  0  0  -0.542847  0  2.117964  0  0  -0.565886  0  2.109101  0  0  -0.309216  -0.52665  0  2.123543  0
O  O109  1  0.90259857  0.87009347  0.53144855  1  0  -0.588013  0  1.905235  0  0  -0.542914  0  2.117601  0  0  -0.565962  0  2.10875  0  0  -0.309275  -0.526715  0  2.123181  0
O  O110  1  0.12464833  0.22480382  0.56933687  1  0  -0.645158  0  2.039502  0  0  -0.571481  0  2.304184  0  0  -0.600916  0  2.289881  0  0  -0.32967  -0.55064  0  2.313253  0
O  O111  1  0.87534984  0.77519530  0.43066161  1  0  -0.645091  0  2.039628  0  0  -0.571386  0  2.304277  0  0  -0.600819  0  2.289978  0  0  -0.329672  -0.550545  0  2.313345  0
O  O112  1  0.64568454  0.65717549  0.15658557  1  0  -0.634317  0  1.930566  0  0  -0.5857  0  2.146012  0  0  -0.60959  0  2.136499  0  0  -0.324166  -0.568913  0  2.15199  0
O  O113  1  0.35431750  0.34282021  0.84341340  1  0  -0.634396  0  1.930698  0  0  -0.585744  0  2.14613  0  0  -0.609641  0  2.13662  0  0  -0.324205  -0.568951  0  2.152105  0
O  O114  1  0.69023331  0.77809411  0.97441627  1  0  -0.663935  0  2.011093  0  0  -0.588171  0  2.271594  0  0  -0.618128  0  2.257561  0  0  -0.332977  -0.56709  0  2.280383  0
O  O115  1  0.30976473  0.22190588  0.02558347  1  0  -0.663951  0  2.011209  0  0  -0.588151  0  2.271683  0  0  -0.618107  0  2.257649  0  0  -0.332956  -0.567061  0  2.280466  0
