# generated using pymatgen
data_AlH3C8NO5F3
_symmetry_space_group_name_H-M   'P 1'
_cell_length_a   6.66940938
_cell_length_b   8.77407349
_cell_length_c   11.30093129
_cell_angle_alpha   85.37451050
_cell_angle_beta   71.09796953
_cell_angle_gamma   76.24347512
_symmetry_Int_Tables_number   1
_chemical_formula_structural   AlH3C8NO5F3
_chemical_formula_sum   'Al2 H6 C16 N2 O10 F6'
_cell_volume   607.69361962
_cell_formula_units_Z   2
loop_
 _symmetry_equiv_pos_site_id
 _symmetry_equiv_pos_as_xyz
  1  'x, y, z'
loop_
 _atom_site_type_symbol
 _atom_site_label
 _atom_site_symmetry_multiplicity
 _atom_site_fract_x
 _atom_site_fract_y
 _atom_site_fract_z
 _atom_site_occupancy
 _atom_site_pbe_bader_charge
 _atom_site_pbe_bader_spin_density
 _atom_site_pbe_cm5_charge
 _atom_site_pbe_ddec_charge
 _atom_site_pbe_ddec_spin_density
 _atom_site_pbe_ddec_sum_bond_order
 _atom_site_pbe_magmom
Al  Al0  1  0.48627995  0.52008716  0.49559650  1  2.50491  0  0.399296  1.648465  0  2.557407  0
Al  Al1  1  0.98550895  0.51898474  0.49768601  1  2.505556  0  0.398026  1.649008  0  2.573533  0
H  H2  1  0.76654708  0.65291682  0.36853403  1  0.629083  0  0.358571  0.439959  0  0.838214  0
H  H3  1  0.20257947  0.39872653  0.63114483  1  0.634085  0  0.347068  0.427571  0  0.866454  0
H  H4  1  0.71478932  0.88679281  0.54792036  1  0.468678  0  0.303593  0.307688  0  0.979227  0
H  H5  1  0.55499230  0.07547705  0.55614674  1  0.452579  0  0.295707  0.288987  0  0.996904  0
H  H6  1  0.24548179  0.15334981  0.46965775  1  0.487919  0  0.301382  0.305685  0  0.991021  0
H  H7  1  0.40877513  0.96536338  0.45392510  1  0.467769  0  0.297217  0.28943  0  0.98749  0
C  C8  1  0.37229929  0.49766174  0.27103824  1  1.643841  0  0.269589  0.661946  0  4.116894  0
C  C9  1  0.13586418  0.80258205  0.50244305  1  1.531075  0  0.258433  0.606634  0  4.074387  0
C  C10  1  0.60008545  0.52145349  0.72337966  1  1.636214  0  0.268158  0.658802  0  4.107712  0
C  C11  1  0.83268632  0.23578364  0.49610217  1  1.516487  0  0.25437  0.598306  0  4.090066  0
C  C12  1  0.87851825  0.06335046  0.50694316  1  0.449074  0  0.076545  0.04772  0  4.018662  0
C  C13  1  0.08623983  0.97545614  0.50047546  1  0.48519  0  0.078681  0.050141  0  4.018464  0
C  C14  1  0.44393482  0.48597251  0.13015171  1  0.075722  0  -0.01044  -0.145588  0  3.939529  0
C  C15  1  0.40288038  0.36840993  0.06640160  1  0.045701  0  -0.006597  -0.018951  0  4.014778  0
C  C16  1  0.53521391  0.60236004  0.06010914  1  0.559808  0  0.10232  0.167494  0  4.076174  0
C  C17  1  0.33130887  0.23632126  0.13107137  1  0.579344  0  0.095326  0.135455  0  4.066188  0
C  C18  1  0.27668891  0.12624799  0.07409764  1  0.575524  0  0.087936  0.08413  0  4.147061  0
C  C19  1  0.53485650  0.50344152  0.86416978  1  0.05491  0  -0.010707  -0.146666  0  3.921643  0
C  C20  1  0.58219115  0.60954765  0.92902817  1  0.508706  0  0.102881  0.166984  0  4.072865  0
C  C21  1  0.44038650  0.37955215  0.93295500  1  0.092363  0  -0.00533  -0.011363  0  4.001626  0
C  C22  1  0.38708082  0.26160077  0.87752140  1  0.584225  0  0.089053  0.122101  0  4.062234  0
C  C23  1  0.30257381  0.14064478  0.94555339  1  0.556347  0  0.085691  0.079299  0  4.154775  0
N  N24  1  0.70130100  0.00063314  0.51986066  1  -1.204187  0  -0.603075  -0.594267  0  3.406841  0
N  N25  1  0.26121662  0.03776962  0.49260043  1  -1.248224  0  -0.603028  -0.59019  0  3.415441  0
O  O26  1  0.51893974  0.48611310  0.32169960  1  -1.240423  0  -0.22729  -0.572135  0  2.319435  0
O  O27  1  0.98060991  0.73201484  0.51941487  1  -1.269679  0  -0.236477  -0.595752  0  2.397617  0
O  O28  1  0.80327767  0.50548992  0.67000811  1  -1.245692  0  -0.227786  -0.578853  0  2.328982  0
O  O29  1  0.63693837  0.30667373  0.50471685  1  -1.262127  0  -0.243814  -0.598221  0  2.385025  0
O  O30  1  0.45299462  0.55149832  0.67150478  1  -1.229165  0  -0.230035  -0.572981  0  2.315101  0
O  O31  1  0.98789134  0.30576757  0.48076710  1  -1.270711  0  -0.240271  -0.602327  0  2.441072  0
O  O32  1  0.16831055  0.52454520  0.32482026  1  -1.247789  0  -0.229638  -0.58297  0  2.325528  0
O  O33  1  0.33570345  0.73251007  0.48355392  1  -1.263808  0  -0.242979  -0.597777  0  2.34962  0
O  O34  1  0.74390237  0.58850873  0.44341668  1  -1.433666  0  -0.447994  -0.996661  0  2.201353  0
O  O35  1  0.22875270  0.45109243  0.55051574  1  -1.437554  0  -0.45033  -0.994438  0  2.207876  0
F  F36  1  0.67038804  0.72882338  0.86859765  1  -0.610811  0  -0.082273  -0.100513  0  1.364101  0
F  F37  1  0.57571441  0.71767404  0.11538654  1  -0.618423  0  -0.085537  -0.107348  0  1.368405  0
F  F38  1  0.42080069  0.26059986  0.75279316  1  -0.627951  0  -0.063404  -0.084075  0  1.471479  0
F  F39  1  0.25124984  0.03292041  0.88904365  1  -0.604194  0  -0.081836  -0.08546  0  1.372537  0
F  F40  1  0.20559912  0.00335661  0.13844419  1  -0.609078  0  -0.080346  -0.08486  0  1.382406  0
F  F41  1  0.32336587  0.21127108  0.25165729  1  -0.621631  0  -0.060655  -0.074409  0  1.46362  0
