# generated using pymatgen
data_ZnH15C21N2O5
_symmetry_space_group_name_H-M   'P 1'
_cell_length_a   8.19020740
_cell_length_b   13.87723423
_cell_length_c   23.42679025
_cell_angle_alpha   99.28079317
_cell_angle_beta   89.99927639
_cell_angle_gamma   107.17253632
_symmetry_Int_Tables_number   1
_chemical_formula_structural   ZnH15C21N2O5
_chemical_formula_sum   'Zn4 H60 C84 N8 O20'
_cell_volume   2507.42670067
_cell_formula_units_Z   4
loop_
 _symmetry_equiv_pos_site_id
 _symmetry_equiv_pos_as_xyz
  1  'x, y, z'
loop_
 _atom_site_type_symbol
 _atom_site_label
 _atom_site_symmetry_multiplicity
 _atom_site_fract_x
 _atom_site_fract_y
 _atom_site_fract_z
 _atom_site_occupancy
 _atom_site_pbe_bader_charge
 _atom_site_pbe_bader_spin_density
 _atom_site_pbe_cm5_charge
 _atom_site_pbe_ddec_charge
 _atom_site_pbe_ddec_spin_density
 _atom_site_pbe_ddec_sum_bond_order
 _atom_site_pbe_magmom
Zn  Zn0  1  0.08022649  0.92095102  0.49796724  1  1.293253  0  0.669377  0.822311  0  2.403774  0
Zn  Zn1  1  0.15924344  0.07896038  0.00202734  1  1.293222  0  0.669603  0.821875  0  2.404823  0
Zn  Zn2  1  0.91977402  0.07904992  0.50203395  1  1.293233  0  0.66936  0.822324  0  2.403755  0
Zn  Zn3  1  0.84075867  0.92104132  0.99797264  1  1.293184  0  0.669669  0.821963  0  2.404628  0
H  H4  1  0.46986117  0.93492433  0.08119897  1  0.117323  0  0.105717  0.109618  0  1.026613  0
H  H5  1  0.53551040  0.06489265  0.41884912  1  0.109805  0  0.10556  0.109273  0  1.026624  0
H  H6  1  0.53014140  0.06507584  0.91880044  1  0.117364  0  0.105703  0.109593  0  1.026616  0
H  H7  1  0.46448965  0.93510982  0.58115093  1  0.109796  0  0.105556  0.109308  0  1.02655  0
H  H8  1  0.54239482  0.77030932  0.41520199  1  0.11937  0  0.10782  0.113081  0  1.046733  0
H  H9  1  0.77197109  0.22971948  0.08479834  1  0.115288  0  0.107572  0.112301  0  1.047124  0
H  H10  1  0.45760409  0.22969085  0.58479870  1  0.119354  0  0.107829  0.113124  0  1.046661  0
H  H11  1  0.22802736  0.77028223  0.91520377  1  0.115026  0  0.107604  0.112337  0  1.047079  0
H  H12  1  0.37006800  0.89226146  0.42960369  1  0.125804  0  0.122764  0.099096  0  1.002632  0
H  H13  1  0.47763568  0.10773550  0.07039038  1  0.165171  0  0.123237  0.100099  0  1.003028  0
H  H14  1  0.62992609  0.10773642  0.57039678  1  0.125773  0  0.122763  0.099095  0  1.002587  0
H  H15  1  0.52236072  0.89226697  0.92961095  1  0.165208  0  0.123221  0.100102  0  1.003032  0
H  H16  1  0.59096679  0.96633844  0.34033635  1  0.093942  0  0.102548  0.102759  0  1.043364  0
H  H17  1  0.62465347  0.03355430  0.15975640  1  0.077024  0  0.102742  0.102094  0  1.043965  0
H  H18  1  0.40903334  0.03366174  0.65966519  1  0.093957  0  0.102531  0.10275  0  1.043369  0
H  H19  1  0.37534925  0.96644127  0.84024215  1  0.077123  0  0.10273  0.102148  0  1.043933  0
H  H20  1  0.03643135  0.71801239  0.53248852  1  0.125015  0  0.123475  0.100614  0  0.983353  0
H  H21  1  0.31823872  0.28192105  0.96749343  1  0.118366  0  0.123334  0.100946  0  0.983427  0
H  H22  1  0.96357122  0.28198779  0.46751303  1  0.125052  0  0.123477  0.100634  0  0.983353  0
H  H23  1  0.68176378  0.71808141  0.03250619  1  0.118367  0  0.123361  0.100956  0  0.983441  0
H  H24  1  0.61644823  0.85375817  0.14328709  1  0.084005  0  0.111974  0.131966  0  0.990273  0
H  H25  1  0.76310670  0.14599760  0.35667163  1  0.120644  0  0.112087  0.132475  0  0.990649  0
H  H26  1  0.38355388  0.14624353  0.85671289  1  0.084033  0  0.111964  0.131954  0  0.990327  0
H  H27  1  0.23689213  0.85400486  0.64332756  1  0.120571  0  0.112107  0.13252  0  0.99069  0
H  H28  1  0.42236468  0.86810350  0.25056251  1  0.071887  0  0.107421  0.12505  0  0.999192  0
H  H29  1  0.55445820  0.13186980  0.24952766  1  0.08818  0  0.107551  0.125061  0  0.998667  0
H  H30  1  0.57763621  0.13189820  0.74943832  1  0.072054  0  0.107412  0.125042  0  0.999184  0
H  H31  1  0.44554001  0.86812655  0.75047096  1  0.088225  0  0.107537  0.125039  0  0.998682  0
H  H32  1  0.19835608  0.58807614  0.52372770  1  0.08709  0  0.111506  0.115328  0  1.01183  0
H  H33  1  0.61016906  0.41190298  0.97624818  1  0.086666  0  0.111821  0.11558  0  1.012509  0
H  H34  1  0.80164688  0.41192481  0.47627434  1  0.087126  0  0.111448  0.115196  0  1.011775  0
H  H35  1  0.38983672  0.58809873  0.02375180  1  0.086597  0  0.111823  0.115561  0  1.012522  0
H  H36  1  0.98748575  0.71450158  0.09993975  1  0.092902  0  0.105212  0.10839  0  0.99588  0
H  H37  1  0.27362936  0.28533314  0.40017776  1  0.094172  0  0.105312  0.108027  0  0.995526  0
H  H38  1  0.01251681  0.28549859  0.90005837  1  0.092896  0  0.105205  0.108375  0  0.995833  0
H  H39  1  0.72636466  0.71466703  0.59982165  1  0.094219  0  0.10533  0.108074  0  0.995503  0
H  H40  1  0.86998121  0.74763914  0.33413977  1  0.091946  0  0.10733  0.114266  0  0.991495  0
H  H41  1  0.12235509  0.25234101  0.16577813  1  0.074005  0  0.106808  0.112938  0  0.992005  0
H  H42  1  0.13001853  0.25236026  0.66585956  1  0.091953  0  0.107332  0.114281  0  0.991508  0
H  H43  1  0.87764581  0.74766070  0.83422270  1  0.073991  0  0.106815  0.112943  0  0.991962  0
H  H44  1  0.13460099  0.63133566  0.16298932  1  0.085508  0  0.108414  0.123636  0  0.98418  0
H  H45  1  0.50384708  0.36849605  0.33711217  1  0.079814  0  0.10815  0.123239  0  0.983883  0
H  H46  1  0.86539875  0.36866374  0.83700873  1  0.085513  0  0.108406  0.123626  0  0.984152  0
H  H47  1  0.49614496  0.63150258  0.66288624  1  0.079492  0  0.108138  0.123171  0  0.983953  0
H  H48  1  0.71117741  0.56005736  0.43259769  1  0.073457  0  0.096802  0.139229  0  1.029585  0
H  H49  1  0.15104569  0.43990958  0.06736322  1  0.083493  0  0.097126  0.139577  0  1.028208  0
H  H50  1  0.28882708  0.43994664  0.56740336  1  0.073403  0  0.0968  0.139235  0  1.02953  0
H  H51  1  0.84895734  0.56008907  0.93263775  1  0.083556  0  0.097122  0.13959  0  1.028182  0
H  H52  1  0.73706438  0.69461432  0.44541510  1  0.108152  0  0.103023  0.163056  0  1.000447  0
H  H53  1  0.04225800  0.30536139  0.05453059  1  0.106184  0  0.102839  0.162702  0  1.000745  0
H  H54  1  0.26293766  0.30538968  0.55458595  1  0.108245  0  0.103002  0.163014  0  1.000446  0
H  H55  1  0.95774258  0.69463725  0.94546910  1  0.106207  0  0.102842  0.162722  0  1.000735  0
H  H56  1  0.60739102  0.61610230  0.38546825  1  0.059328  0  0.096782  0.141871  0  0.998626  0
H  H57  1  0.99123511  0.38385573  0.11450519  1  0.056199  0  0.096755  0.141609  0  0.999109  0
H  H58  1  0.39261186  0.38390094  0.61453273  1  0.059289  0  0.096783  0.141841  0  0.998604  0
H  H59  1  0.00876632  0.61614215  0.88549528  1  0.056213  0  0.096754  0.141611  0  0.999096  0
H  H60  1  0.70205843  0.64784266  0.24263453  1  0.068432  0  0.10739  0.123332  0  0.987702  0
H  H61  1  0.05441915  0.35221516  0.25728691  1  0.068594  0  0.107179  0.122336  0  0.987833  0
H  H62  1  0.29793842  0.35215828  0.75736537  1  0.068404  0  0.107414  0.123392  0  0.987665  0
H  H63  1  0.94557449  0.64778424  0.74271242  1  0.068721  0  0.107174  0.122361  0  0.987842  0
C  C64  1  0.39580906  0.86985190  0.10009895  1  -0.114916  0  -0.083498  -0.074747  0  3.986879  0
C  C65  1  0.52649279  0.12998015  0.39997421  1  -0.087198  0  -0.083274  -0.074413  0  3.986373  0
C  C66  1  0.60419152  0.13014674  0.89989946  1  -0.114834  0  -0.083465  -0.074654  0  3.986775  0
C  C67  1  0.47350650  0.87002079  0.60002527  1  -0.087249  0  -0.083269  -0.0744  0  3.986321  0
C  C68  1  0.83663843  0.91950969  0.39887035  1  1.570944  0  0.209477  0.582652  0  4.19408  0
C  C69  1  0.91688340  0.08044541  0.10110375  1  1.558143  0  0.208199  0.580306  0  4.196081  0
C  C70  1  0.16336177  0.08048819  0.60113055  1  1.571024  0  0.209513  0.582679  0  4.194026  0
C  C71  1  0.08311398  0.91955171  0.89889579  1  1.558045  0  0.20825  0.580385  0  4.195893  0
C  C72  1  0.43133189  0.75475721  0.44153159  1  -0.037941  0  -0.077332  -0.153621  0  3.919583  0
C  C73  1  0.67644135  0.24526507  0.05846857  1  -0.092895  0  -0.076491  -0.151903  0  3.918271  0
C  C74  1  0.56866740  0.24524374  0.55846917  1  -0.037945  0  -0.077342  -0.153659  0  3.919533  0
C  C75  1  0.32355832  0.75473664  0.94153226  1  -0.092631  0  -0.07652  -0.151893  0  3.918157  0
C  C76  1  0.13191958  0.88477878  0.05273998  1  1.585933  0  0.211464  0.587116  0  4.184393  0
C  C77  1  0.24775336  0.11510129  0.44739094  1  1.568042  0  0.212985  0.590036  0  4.186553  0
C  C78  1  0.86807260  0.11521527  0.94725885  1  1.585955  0  0.211581  0.587285  0  4.184355  0
C  C79  1  0.75224600  0.88489736  0.55260961  1  1.568002  0  0.212976  0.590008  0  4.186629  0
C  C80  1  0.21850823  0.83167199  0.08815055  1  0.043685  0  -0.026831  -0.057598  0  3.981524  0
C  C81  1  0.38745462  0.16820107  0.41198179  1  0.030385  0  -0.027108  -0.059237  0  3.982972  0
C  C82  1  0.78149594  0.16832894  0.91184808  1  0.04365  0  -0.026873  -0.05774  0  3.981527  0
C  C83  1  0.61254100  0.83179986  0.58801769  1  0.030454  0  -0.027125  -0.059304  0  3.983076  0
C  C84  1  0.74130808  0.86324685  0.34305148  1  -0.061729  0  -0.030809  -0.069871  0  4.001046  0
C  C85  1  0.87806473  0.13669401  0.15695017  1  -0.030964  0  -0.032197  -0.071451  0  4.000616  0
C  C86  1  0.25869250  0.13675180  0.65694906  1  -0.0617  0  -0.030812  -0.069876  0  4.000987  0
C  C87  1  0.12194105  0.86330770  0.84305024  1  -0.030989  0  -0.03219  -0.071379  0  4.000614  0
C  C88  1  0.38590816  0.66916663  0.46943609  1  -0.077828  0  0.014705  0.063639  0  3.960722  0
C  C89  1  0.71662108  0.33084844  0.03055274  1  0.045807  0  0.015825  0.06562  0  3.958689  0
C  C90  1  0.61409274  0.33083508  0.53056517  1  -0.077848  0  0.014677  0.063633  0  3.960823  0
C  C91  1  0.28337943  0.66915250  0.96944802  1  0.045962  0  0.015856  0.065619  0  3.958646  0
C  C92  1  0.33597436  0.82316046  0.44902406  1  0.52326  0  0.058029  0.11026  0  3.901986  0
C  C93  1  0.51266744  0.17683732  0.05097222  1  0.478543  0  0.057078  0.107306  0  3.90327  0
C  C94  1  0.66402211  0.17683971  0.55097620  1  0.523495  0  0.058027  0.110242  0  3.901889  0
C  C95  1  0.48733017  0.82316515  0.94902911  1  0.478468  0  0.057061  0.107264  0  3.903296  0
C  C96  1  0.61567627  0.89681114  0.31892161  1  -0.05288  0  -0.083647  -0.065951  0  3.988849  0
C  C97  1  0.71893933  0.10311493  0.18113518  1  -0.047563  0  -0.083492  -0.064085  0  3.988184  0
C  C98  1  0.38432385  0.10318903  0.68107908  1  -0.052881  0  -0.08365  -0.065956  0  3.988828  0
C  C99  1  0.28106209  0.89688295  0.81886401  1  -0.047659  0  -0.083484  -0.064211  0  3.988351  0
C  C100  1  0.49431661  0.60055598  0.46728464  1  0.652206  0  0.15576  0.274923  0  3.891549  0
C  C101  1  0.89367197  0.39946427  0.03271303  1  0.627684  0  0.154675  0.272781  0  3.891497  0
C  C102  1  0.50568550  0.39944573  0.53271577  1  0.652313  0  0.155773  0.274928  0  3.891657  0
C  C103  1  0.10633098  0.60053667  0.96728731  1  0.62736  0  0.154671  0.272759  0  3.89152  0
C  C104  1  0.14923005  0.72529987  0.50684909  1  0.427434  0  0.051432  0.09392  0  3.933335  0
C  C105  1  0.42377547  0.27466594  0.99313458  1  0.457843  0  0.050988  0.092674  0  3.932897  0
C  C106  1  0.85076962  0.27470184  0.49315217  1  0.427321  0  0.051475  0.093933  0  3.933306  0
C  C107  1  0.57622703  0.72533652  0.00686547  1  0.457705  0  0.051014  0.092716  0  3.932908  0
C  C108  1  0.47830822  0.82412417  0.13454396  1  0.009672  0  -0.099091  -0.20679  0  4.003887  0
C  C109  1  0.65470687  0.17570913  0.36549941  1  -0.050751  0  -0.099123  -0.207265  0  4.004886  0
C  C110  1  0.52169267  0.17587754  0.86545559  1  0.009694  0  -0.099092  -0.206789  0  4.004035  0
C  C111  1  0.34528792  0.82429257  0.63449971  1  -0.050821  0  -0.099089  -0.207299  0  4.004729  0
C  C112  1  0.52097737  0.84192579  0.26860225  1  0.01529  0  -0.107298  -0.216107  0  4.00166  0
C  C113  1  0.67925309  0.15802416  0.23146135  1  -0.032699  0  -0.107101  -0.216259  0  4.001858  0
C  C114  1  0.47902314  0.15807515  0.73139851  1  0.01512  0  -0.107279  -0.21613  0  4.00155  0
C  C115  1  0.32074787  0.84197524  0.76853841  1  -0.032761  0  -0.107058  -0.216148  0  4.001912  0
C  C116  1  0.23811650  0.65383543  0.50163586  1  0.054424  0  -0.074943  -0.154356  0  3.95177  0
C  C117  1  0.58414372  0.34615668  0.99835402  1  0.008728  0  -0.074537  -0.154075  0  3.951967  0
C  C118  1  0.76188324  0.34616398  0.49836561  1  0.054493  0  -0.074859  -0.1542  0  3.951712  0
C  C119  1  0.41585801  0.65384426  0.00164589  1  0.008857  0  -0.074597  -0.1541  0  3.952014  0
C  C120  1  0.12481901  0.74466176  0.11007017  1  -0.022506  0  -0.081398  -0.067022  0  3.987542  0
C  C121  1  0.38078250  0.25519173  0.39006054  1  -0.025259  0  -0.080991  -0.065056  0  3.984783  0
C  C122  1  0.87518195  0.25533764  0.88992788  1  -0.022501  0  -0.081397  -0.066954  0  3.987519  0
C  C123  1  0.61921434  0.74480920  0.60993851  1  -0.025367  0  -0.081013  -0.065093  0  3.984783  0
C  C124  1  0.77174646  0.77311749  0.31522450  1  0.027656  0  -0.084301  -0.074307  0  4.005932  0
C  C125  1  0.99869874  0.22685369  0.18473657  1  -0.00664  0  -0.083154  -0.07202  0  4.004614  0
C  C126  1  0.22825328  0.22688192  0.68477612  1  0.027659  0  -0.084308  -0.074305  0  4.005855  0
C  C127  1  0.00130216  0.77314801  0.81526426  1  -0.006515  0  -0.083159  -0.071974  0  4.004467  0
C  C128  1  0.38156852  0.73948103  0.15760827  1  0.373656  0  0.081994  0.253859  0  4.054153  0
C  C129  1  0.64263935  0.26039288  0.34247331  1  0.409031  0  0.08179  0.25324  0  4.054048  0
C  C130  1  0.61843282  0.26051913  0.84239028  1  0.373629  0  0.081982  0.253834  0  4.05434  0
C  C131  1  0.35735589  0.73960729  0.65752524  1  0.409196  0  0.081727  0.253215  0  4.053974  0
C  C132  1  0.55329733  0.75222870  0.24143102  1  0.408704  0  0.088134  0.273111  0  4.046182  0
C  C133  1  0.80135830  0.24772960  0.25859930  1  0.427125  0  0.088179  0.271992  0  4.04441  0
C  C134  1  0.44670234  0.24777300  0.75856938  1  0.408933  0  0.088136  0.273219  0  4.04601  0
C  C135  1  0.19863816  0.75227056  0.74139925  1  0.427151  0  0.088108  0.271904  0  4.044433  0
C  C136  1  0.20580462  0.69827823  0.14494909  1  -0.024662  0  -0.099442  -0.19784  0  3.998652  0
C  C137  1  0.50811732  0.30157953  0.35516920  1  -0.048132  0  -0.099099  -0.197648  0  3.998787  0
C  C138  1  0.79419795  0.30172193  0.85504947  1  -0.024762  0  -0.099434  -0.197836  0  3.998675  0
C  C139  1  0.49187670  0.69842064  0.64482892  1  -0.047725  0  -0.099067  -0.19754  0  3.998898  0
C  C140  1  0.64660096  0.61808078  0.43067211  1  -0.104092  0  -0.240091  -0.463966  0  3.933663  0
C  C141  1  0.02842542  0.38189596  0.06930122  1  -0.118373  0  -0.240119  -0.463511  0  3.932645  0
C  C142  1  0.35340032  0.38192169  0.56932923  1  -0.104127  0  -0.240043  -0.463867  0  3.933496  0
C  C143  1  0.97157516  0.61810269  0.93069889  1  -0.118444  0  -0.240099  -0.463518  0  3.932615  0
C  C144  1  0.67886700  0.71763685  0.26467413  1  -0.063332  0  -0.106868  -0.214038  0  4.011499  0
C  C145  1  0.96143025  0.28236150  0.23529490  1  -0.002494  0  -0.106586  -0.212557  0  4.010783  0
C  C146  1  0.32113351  0.28236409  0.73532621  1  -0.063577  0  -0.106889  -0.21416  0  4.011487  0
C  C147  1  0.03856660  0.71763944  0.76470458  1  -0.002732  0  -0.106584  -0.212649  0  4.010746  0
N  N148  1  0.19887345  0.80971872  0.48181814  1  -1.250336  0  -0.325245  -0.209333  0  3.530601  0
N  N149  1  0.38900976  0.19025297  0.01817496  1  -1.265934  0  -0.326098  -0.208762  0  3.529194  0
N  N150  1  0.80112507  0.19028069  0.51818247  1  -1.250537  0  -0.325274  -0.209361  0  3.530472  0
N  N151  1  0.61099068  0.80975026  0.98182516  1  -1.265977  0  -0.326093  -0.208803  0  3.529236  0
N  N152  1  0.44768927  0.53050492  0.50008960  1  -0.780012  0  -0.205943  -0.212385  0  3.316423  0
N  N153  1  0.91715445  0.46952902  0.99991841  1  -0.759297  0  -0.205832  -0.211816  0  3.315607  0
N  N154  1  0.55231208  0.46949526  0.49991066  1  -0.745488  0  -0.205993  -0.212487  0  3.316501  0
N  N155  1  0.08284935  0.53047116  0.00008228  1  -0.741681  0  -0.205829  -0.211794  0  3.315558  0
O  O156  1  0.22420630  0.96843335  0.03903302  1  -1.18293  0  -0.314866  -0.554346  0  2.358128  0
O  O157  1  0.25624825  0.03143021  0.46106710  1  -1.175952  0  -0.315723  -0.555174  0  2.358758  0
O  O158  1  0.77579573  0.03157064  0.96096674  1  -1.183027  0  -0.314898  -0.554391  0  2.358449  0
O  O159  1  0.74374905  0.96856920  0.53893181  1  -1.175903  0  -0.315764  -0.555204  0  2.358674  0
O  O160  1  0.93446935  0.87731168  0.42083931  1  -1.178544  0  -0.321548  -0.561134  0  2.354752  0
O  O161  1  0.05681818  0.12267833  0.07907355  1  -1.176446  0  -0.320523  -0.559371  0  2.355526  0
O  O162  1  0.06552315  0.12268544  0.57916280  1  -1.178547  0  -0.321562  -0.561165  0  2.354692  0
O  O163  1  0.94318912  0.87732643  0.92092543  1  -1.176539  0  -0.32048  -0.559346  0  2.355627  0
O  O164  1  0.81050721  0.00359215  0.42103117  1  -1.171087  0  -0.315793  -0.539931  0  2.314982  0
O  O165  1  0.80655570  0.99639057  0.07895222  1  -1.165768  0  -0.31521  -0.538825  0  2.31507  0
O  O166  1  0.18949696  0.99640879  0.57896916  1  -1.171051  0  -0.315812  -0.539914  0  2.315017  0
O  O167  1  0.19345336  0.00361037  0.92104811  1  -1.16559  0  -0.31531  -0.538963  0  2.314751  0
O  O168  1  0.97295797  0.84328586  0.03911138  1  -1.182916  0  -0.317316  -0.549638  0  2.325845  0
O  O169  1  0.13035255  0.15663373  0.46105628  1  -1.167733  0  -0.317906  -0.551013  0  2.327143  0
O  O170  1  0.02704947  0.15671431  0.96088675  1  -1.182833  0  -0.31738  -0.549739  0  2.325614  0
O  O171  1  0.86964790  0.84336952  0.53894640  1  -1.167705  0  -0.317867  -0.550963  0  2.327308  0
O  O172  1  0.46052559  0.69206138  0.19239827  1  -1.101472  0  -0.162284  -0.230057  0  2.527162  0
O  O173  1  0.76898591  0.30785874  0.30767697  1  -1.103106  0  -0.162853  -0.229684  0  2.52555  0
O  O174  1  0.53947409  0.30794032  0.80760214  1  -1.101507  0  -0.162281  -0.23009  0  2.527178  0
O  O175  1  0.23100528  0.69214066  0.69232023  1  -1.103228  0  -0.162789  -0.229657  0  2.525558  0
