# generated using pymatgen
data_Zn4H22C44O21
_symmetry_space_group_name_H-M   'P 1'
_cell_length_a   15.06350045
_cell_length_b   15.17998887
_cell_length_c   17.81118099
_cell_angle_alpha   80.81494063
_cell_angle_beta   80.46531042
_cell_angle_gamma   89.62511261
_symmetry_Int_Tables_number   1
_chemical_formula_structural   Zn4H22C44O21
_chemical_formula_sum   'Zn4 H22 C44 O21'
_cell_volume   3964.18020703
_cell_formula_units_Z   1
loop_
 _symmetry_equiv_pos_site_id
 _symmetry_equiv_pos_as_xyz
  1  'x, y, z'
loop_
 _atom_site_type_symbol
 _atom_site_label
 _atom_site_symmetry_multiplicity
 _atom_site_fract_x
 _atom_site_fract_y
 _atom_site_fract_z
 _atom_site_occupancy
 _atom_site_pbe_bader_charge
 _atom_site_pbe_bader_spin_density
 _atom_site_pbe_cm5_charge
 _atom_site_pbe_ddec_charge
 _atom_site_pbe_ddec_spin_density
 _atom_site_pbe_ddec_sum_bond_order
 _atom_site_pbe_magmom
Zn  Zn0  1  0.43088491  0.44369964  0.42843138  1  1.315404  0  0.675157  0.975552  0  2.349613  0
Zn  Zn1  1  0.54478777  0.39495237  0.56039272  1  1.317412  0  0.678997  0.96758  0  2.367794  0
Zn  Zn2  1  0.41886744  0.56559131  0.56299736  1  1.317562  0  0.678581  0.965788  0  2.335015  0
Zn  Zn3  1  0.59751271  0.57436658  0.44370784  1  1.315407  0  0.672776  0.967319  0  2.373041  0
H  H4  1  0.69690273  0.66780105  0.93951381  1  0.063199  0  0.101492  0.112383  0  1.010296  0
H  H5  1  0.99616846  0.66956573  0.49657503  1  0.063262  0  0.102549  0.115597  0  1.006432  0
H  H6  1  0.98860504  0.29707061  0.54796678  1  0.025118  0  0.10086  0.112905  0  1.010402  0
H  H7  1  0.14114366  0.72584587  0.48385551  1  0.602625  0  0.341478  0.367283  0  0.869209  0
H  H8  1  0.14083077  0.37229537  0.52865808  1  0.089101  0  0.106797  0.113194  0  0.985935  0
H  H9  1  0.60417494  0.13837157  0.50855326  1  0.116814  0  0.109561  0.12651  0  1.001458  0
H  H10  1  0.73398374  0.94779474  0.52111475  1  0.615545  0  0.331118  0.366058  0  0.891124  0
H  H11  1  0.51506528  0.55057757  0.79431595  1  0.119261  0  0.105774  0.124558  0  1.037641  0
H  H12  1  0.26441067  0.03954261  0.44454212  1  0.596844  0  0.339903  0.367212  0  0.869878  0
H  H13  1  0.66920838  0.76057094  0.50250226  1  0.65333  0  0.308594  0.367898  0  0.944012  0
H  H14  1  0.40081751  0.30634730  0.72697057  1  0.650324  0  0.311422  0.371267  0  0.935923  0
H  H15  1  0.84845053  0.59444477  0.50416992  1  0.084045  0  0.10658  0.113693  0  0.992405  0
H  H16  1  0.47490618  0.47876599  0.19436152  1  0.087315  0  0.105622  0.108862  0  1.026114  0
H  H17  1  0.67015632  0.64139432  0.83033948  1  0.586249  0  0.341115  0.365314  0  0.869309  0
H  H18  1  0.42754755  0.40571283  0.13165601  1  0.039926  0  0.104705  0.106707  0  1.011959  0
H  H19  1  0.33782729  0.16899979  0.45088294  1  0.077169  0  0.102802  0.121706  0  1.013011  0
H  H20  1  0.38632072  0.85145044  0.48373250  1  0.110397  0  0.111282  0.12754  0  0.996493  0
H  H21  1  0.36313296  0.31248759  0.05367611  1  0.097937  0  0.107967  0.114812  0  0.991561  0
H  H22  1  0.72376415  0.69231469  0.06690258  1  0.051432  0  0.100652  0.101941  0  0.994014  0
H  H23  1  0.68430331  0.66034756  0.21029241  1  0.090013  0  0.105556  0.111145  0  0.997281  0
H  H24  1  0.32677881  0.22495230  0.89659065  1  0.628725  0  0.332969  0.369774  0  0.885676  0
H  H25  1  0.84737097  0.24115449  0.55622378  1  0.591941  0  0.339686  0.364558  0  0.871197  0
C  C26  1  0.72880498  0.46538676  0.52179797  1  1.57711  0  0.231405  0.634227  0  4.135318  0
C  C27  1  0.44316686  0.42188947  0.06914072  1  -0.002354  0  -0.09034  -0.130676  0  4.021106  0
C  C28  1  0.40658030  0.36954628  0.02608436  1  -0.036468  0  -0.087957  -0.106074  0  4.010989  0
C  C29  1  0.26003830  0.50785719  0.50805170  1  1.576137  0  0.235551  0.646055  0  4.131369  0
C  C30  1  0.42434915  0.38863174  0.94419132  1  -0.061756  0  -0.012327  -0.0083  0  4.00847  0
C  C31  1  0.47811435  0.46602814  0.90600746  1  0.042996  0  -0.008079  0.047791  0  3.953513  0
C  C32  1  0.38986926  0.33134036  0.90032606  1  0.461214  0  0.066706  0.147653  0  4.078233  0
C  C33  1  0.40558200  0.34961816  0.82015964  1  0.595885  0  0.065001  0.164923  0  4.120022  0
C  C34  1  0.48245664  0.48901155  0.82552581  1  -0.009733  0  -0.09258  -0.141576  0  3.962916  0
C  C35  1  0.82599959  0.45361816  0.52740350  1  0.025179  0  -0.023123  -0.129501  0  3.941892  0
C  C36  1  0.16014089  0.51371062  0.51207876  1  -0.005969  0  -0.01697  -0.111217  0  3.947152  0
C  C37  1  0.64741640  0.62829041  0.17399599  1  -0.017884  0  -0.088766  -0.093561  0  4.012732  0
C  C38  1  0.02771634  0.60446462  0.50531403  1  0.040676  0  -0.11549  -0.29733  0  4.019359  0
C  C39  1  0.11943566  0.59891386  0.50357326  1  0.45321  0  0.078137  0.284861  0  4.109242  0
C  C40  1  0.10799947  0.43677408  0.52324428  1  -0.018716  0  -0.083289  -0.141097  0  3.952769  0
C  C41  1  0.47878430  0.25943325  0.48238663  1  1.558148  0  0.226105  0.605696  0  4.153901  0
C  C42  1  0.01328173  0.44010343  0.52761372  1  -0.005541  0  -0.00886  0.098712  0  4.039425  0
C  C43  1  0.97310803  0.52619223  0.51691623  1  -0.026348  0  -0.011628  0.089747  0  4.045842  0
C  C44  1  0.87978961  0.52982583  0.51566084  1  -0.004458  0  -0.079077  -0.124198  0  3.952471  0
C  C45  1  0.86570314  0.36808947  0.54106116  1  0.418459  0  0.081758  0.294524  0  4.09465  0
C  C46  1  0.95764890  0.36254931  0.54004053  1  0.067624  0  -0.118226  -0.304891  0  4.018424  0
C  C47  1  0.47189747  0.16189733  0.48087301  1  -0.029211  0  -0.020434  -0.00324  0  4.024314  0
C  C48  1  0.52909955  0.52462329  0.16427689  1  0.013538  0  -0.076684  -0.119292  0  3.934973  0
C  C49  1  0.52331466  0.82944056  0.49918941  1  0.006653  0  -0.033986  -0.155962  0  4.048179  0
C  C50  1  0.61263309  0.96012215  0.50643487  1  0.508725  0  0.071193  0.152555  0  4.063045  0
C  C51  1  0.60667026  0.86894472  0.50516912  1  0.517689  0  0.064177  0.160035  0  4.10995  0
C  C52  1  0.44917920  0.88269316  0.48926630  1  0.044905  0  -0.086493  -0.121232  0  3.963912  0
C  C53  1  0.51570960  0.73183292  0.50288734  1  1.496698  0  0.227827  0.618352  0  4.131815  0
C  C54  1  0.45616952  0.97570876  0.48479868  1  -0.025854  0  -0.01646  -0.022099  0  3.995989  0
C  C55  1  0.53830761  0.01579522  0.49617563  1  0.01683  0  -0.01045  0.008653  0  4.016836  0
C  C56  1  0.54362893  0.10861222  0.49653702  1  0.003472  0  -0.088695  -0.146488  0  3.935786  0
C  C57  1  0.39228587  0.12475708  0.46478713  1  -0.017484  0  -0.121265  -0.287495  0  4.023726  0
C  C58  1  0.38401614  0.03363434  0.46849962  1  0.481235  0  0.082319  0.276297  0  4.082332  0
C  C59  1  0.55034597  0.53985834  0.08314133  1  -0.085862  0  -0.009843  0.014348  0  3.956737  0
C  C60  1  0.45391597  0.45575204  0.69878416  1  1.514708  0  0.226779  0.619768  0  4.122451  0
C  C61  1  0.55096287  0.54906641  0.29469180  1  1.484068  0  0.227113  0.613038  0  4.15184  0
C  C62  1  0.57584462  0.56777290  0.20938278  1  0.017708  0  -0.030135  -0.06022  0  4.018624  0
C  C63  1  0.44703302  0.43221643  0.78311040  1  -0.058377  0  -0.037741  -0.159282  0  4.061257  0
C  C64  1  0.66891505  0.64557865  0.09483164  1  -0.026401  0  -0.095963  -0.143551  0  3.999319  0
C  C65  1  0.62092895  0.60305373  0.04791069  1  -0.023479  0  -0.005901  0.115546  0  4.052005  0
C  C66  1  0.50509004  0.49350152  0.03467156  1  -0.026502  0  -0.000403  0.047976  0  3.967422  0
C  C67  1  0.52445270  0.51476472  0.95269685  1  0.066909  0  -0.005936  -0.062774  0  3.885575  0
C  C68  1  0.59531687  0.58007206  0.92065678  1  0.482333  0  0.086536  0.281582  0  4.072559  0
C  C69  1  0.64178388  0.62074360  0.96659288  1  0.006036  0  -0.122331  -0.317303  0  4.050706  0
O  O70  1  0.49754304  0.49553067  0.49692375  1  -1.233681  0  -0.578843  -1.037773  0  2.565072  0
O  O71  1  0.45851759  0.38929634  0.66019647  1  -1.177521  0  -0.321219  -0.581894  0  2.309854  0
O  O72  1  0.59685141  0.59069740  0.33320325  1  -1.167416  0  -0.322873  -0.557368  0  2.331699  0
O  O73  1  0.45330339  0.53720876  0.66746117  1  -1.160904  0  -0.306054  -0.521971  0  2.261049  0
O  O74  1  0.48611246  0.49315719  0.32295517  1  -1.176927  0  -0.321127  -0.556828  0  2.341079  0
O  O75  1  0.34218797  0.25586764  0.93703482  1  -1.129304  0  -0.353627  -0.432166  0  2.258736  0
O  O76  1  0.81084098  0.29424988  0.55111338  1  -1.106167  0  -0.348537  -0.433618  0  2.27272  0
O  O77  1  0.17613070  0.67191190  0.49089991  1  -1.117612  0  -0.351412  -0.440665  0  2.262923  0
O  O78  1  0.69176739  0.99684144  0.51615976  1  -1.113908  0  -0.354073  -0.427411  0  2.257827  0
O  O79  1  0.30748488  0.99340437  0.45634275  1  -1.120212  0  -0.354599  -0.448426  0  2.256813  0
O  O80  1  0.68300102  0.82159346  0.51236671  1  -1.171055  0  -0.371075  -0.470611  0  2.281291  0
O  O81  1  0.42777639  0.31138333  0.44563714  1  -1.16651  0  -0.316254  -0.546282  0  2.301333  0
O  O82  1  0.37495410  0.28768294  0.78245524  1  -1.169727  0  -0.366796  -0.464367  0  2.278543  0
O  O83  1  0.61929962  0.59927674  0.84197656  1  -1.118192  0  -0.340737  -0.429665  0  2.307225  0
O  O84  1  0.59007624  0.68960005  0.48684147  1  -1.184533  0  -0.31377  -0.56893  0  2.319554  0
O  O85  1  0.67106685  0.41328385  0.56812626  1  -1.160098  0  -0.311506  -0.532905  0  2.322157  0
O  O86  1  0.29275887  0.53945487  0.55997661  1  -1.152205  0  -0.311977  -0.539539  0  2.306394  0
O  O87  1  0.71222110  0.52941183  0.47027868  1  -1.178194  0  -0.319575  -0.557925  0  2.329911  0
O  O88  1  0.30207029  0.47086591  0.45366585  1  -1.166028  0  -0.311546  -0.546496  0  2.299383  0
O  O89  1  0.53582349  0.28339278  0.52145343  1  -1.170943  0  -0.31683  -0.548127  0  2.347569  0
O  O90  1  0.43840837  0.69423854  0.52181068  1  -1.160972  0  -0.302741  -0.519171  0  2.299098  0
