# generated using pymatgen
data_ZnH17C16NO4
_symmetry_space_group_name_H-M   'P 1'
_cell_length_a   9.98411085
_cell_length_b   11.21406304
_cell_length_c   16.13805217
_cell_angle_alpha   90.54587893
_cell_angle_beta   79.47191209
_cell_angle_gamma   84.31365320
_symmetry_Int_Tables_number   1
_chemical_formula_structural   ZnH17C16NO4
_chemical_formula_sum   'Zn2 H34 C32 N2 O8'
_cell_volume   1766.99157231
_cell_formula_units_Z   2
loop_
 _symmetry_equiv_pos_site_id
 _symmetry_equiv_pos_as_xyz
  1  'x, y, z'
loop_
 _atom_site_type_symbol
 _atom_site_label
 _atom_site_symmetry_multiplicity
 _atom_site_fract_x
 _atom_site_fract_y
 _atom_site_fract_z
 _atom_site_occupancy
 _atom_site_pbe_bader_charge
 _atom_site_pbe_bader_spin_density
 _atom_site_pbe_cm5_charge
 _atom_site_pbe_ddec_charge
 _atom_site_pbe_ddec_spin_density
 _atom_site_pbe_ddec_sum_bond_order
 _atom_site_pbe_magmom
Zn  Zn0  1  0.64052169  0.51083230  0.47918801  1  1.280055  0  0.660947  0.849655  0  2.436003  0
Zn  Zn1  1  0.36100127  0.48848872  0.51742393  1  1.281584  0  0.661283  0.850746  0  2.432579  0
H  H2  1  0.55588541  0.69921382  0.94209425  1  0.052995  0  0.099103  0.093776  0  0.993123  0
H  H3  1  0.11394901  0.40341144  0.58231530  1  0.455848  0  0.326356  0.294684  0  0.893087  0
H  H4  1  0.31751230  0.81176098  0.97094955  1  0.031715  0  0.085089  0.108887  0  1.010001  0
H  H5  1  0.18492014  0.71755136  0.97219732  1  0.018654  0  0.085452  0.109513  0  1.017833  0
H  H6  1  0.16204098  0.84110403  0.04478819  1  0.01864  0  0.08606  0.111102  0  1.00656  0
H  H7  1  0.21508437  0.65040792  0.11881018  1  0.020277  0  0.091202  0.082712  0  0.994849  0
H  H8  1  0.34655029  0.74468004  0.11637120  1  0.021806  0  0.092406  0.086752  0  0.973029  0
H  H9  1  0.77130917  0.25783439  0.03768291  1  0.004721  0  0.086337  0.113636  0  1.019865  0
H  H10  1  0.65314046  0.17120138  0.00175170  1  0.020293  0  0.083635  0.104988  0  1.013556  0
H  H11  1  0.82718477  0.15620742  0.95053293  1  0.02843  0  0.086485  0.113119  0  1.000944  0
H  H12  1  0.67174652  0.27984503  0.86738291  1  0.039113  0  0.092227  0.087864  0  0.976467  0
H  H13  1  0.44878756  0.30970569  0.05450956  1  0.047594  0  0.099414  0.093572  0  0.99492  0
H  H14  1  0.80299503  0.35937445  0.89225383  1  0.034288  0  0.089253  0.07918  0  0.992333  0
H  H15  1  0.98655996  0.36735625  0.97218394  1  0.015224  0  0.083826  0.105343  0  1.035915  0
H  H16  1  0.09723900  0.24050201  0.99034986  1  0.01912  0  0.083447  0.107394  0  1.006228  0
H  H17  1  0.97188457  0.30770145  0.07462405  1  0.038351  0  0.084625  0.107927  0  1.016085  0
H  H18  1  0.20617659  0.36411391  0.08368990  1  0.016076  0  0.087849  0.075438  0  0.983566  0
H  H19  1  0.09470489  0.49136527  0.07089691  1  0.016666  0  0.085458  0.069188  0  1.009629  0
H  H20  1  0.20008877  0.50848947  0.92361680  1  0.029493  0  0.090731  0.085816  0  0.98919  0
H  H21  1  0.27781659  0.36015666  0.91760505  1  0.020414  0  0.093057  0.092077  0  0.971406  0
H  H22  1  0.91022832  0.64284005  0.15449873  1  0.002466  0  0.082219  0.10461  0  1.014042  0
H  H23  1  0.95723954  0.71281066  0.05669703  1  0.010834  0  0.082099  0.104764  0  1.033208  0
H  H24  1  0.38429795  0.10657253  0.49834887  1  0.092944  0  0.106323  0.106001  0  0.98495  0
H  H25  1  0.86285228  0.79847566  0.14522706  1  0.015469  0  0.084968  0.109725  0  1.002962  0
H  H26  1  0.70598684  0.75287065  0.04713851  1  0.024687  0  0.084945  0.068923  0  0.985054  0
H  H27  1  0.66184572  0.67992921  0.14325633  1  0.026668  0  0.088048  0.080794  0  0.992272  0
H  H28  1  0.79590540  0.48952352  0.07779537  1  0.032331  0  0.094613  0.094364  0  0.987298  0
H  H29  1  0.83618968  0.56214701  0.98092127  1  0.012322  0  0.090612  0.086122  0  0.981888  0
H  H30  1  0.61646809  0.89266916  0.47606153  1  0.085866  0  0.106154  0.105333  0  0.986319  0
H  H31  1  0.69904906  0.09868040  0.47033362  1  0.1043  0  0.104256  0.120842  0  0.991394  0
H  H32  1  0.30155314  0.90006977  0.51110333  1  0.06275  0  0.10509  0.12108  0  0.990954  0
H  H33  1  0.88683304  0.42941253  0.55401942  1  0.152694  0  0.143671  0.111292  0  0.945774  0
H  H34  1  0.11375360  0.57157991  0.44475041  1  0.147484  0  0.143534  0.111575  0  0.948032  0
H  H35  1  0.88793766  0.59590102  0.41541574  1  0.441196  0  0.325982  0.293278  0  0.895455  0
C  C36  1  0.43614410  0.73129674  0.50209680  1  1.537105  0  0.204921  0.635288  0  4.182013  0
C  C37  1  0.47324382  0.39630155  0.02834036  1  -0.042005  0  -0.074409  -0.14023  0  3.645984  0
C  C38  1  0.40176390  0.59135691  0.03453197  1  0.012568  0  0.005057  0.063928  0  3.603367  0
C  C39  1  0.60312044  0.41714910  0.96195521  1  0.022231  0  0.00503  0.064425  0  3.598905  0
C  C40  1  0.48740209  0.50315943  0.24791318  1  0.114038  0  -0.064329  -0.223427  0  4.007948  0
C  C41  1  0.51434963  0.49895633  0.74873881  1  0.154685  0  -0.06491  -0.223534  0  4.009095  0
C  C42  1  0.62598219  0.52944880  0.01590219  1  0.012461  0  0.004362  0.060963  0  3.634861  0
C  C43  1  0.37917559  0.47866552  0.98063437  1  0.042236  0  0.00299  0.060927  0  3.633846  0
C  C44  1  0.49536059  0.50612615  0.08400834  1  0.113326  0  0.000884  0.053334  0  3.815644  0
C  C45  1  0.50920316  0.50240328  0.91248396  1  0.101094  0  0.000929  0.059354  0  3.809344  0
C  C46  1  0.48877218  0.50488583  0.17218999  1  -0.461743  0  -0.035112  -0.03549  0  4.119834  0
C  C47  1  0.56485866  0.26793871  0.48704321  1  1.535141  0  0.205042  0.63591  0  4.181134  0
C  C48  1  0.51455612  0.50118230  0.82432520  1  -0.496909  0  -0.036398  -0.036589  0  4.114341  0
C  C49  1  0.40890621  0.86332528  0.49987216  1  0.083016  0  -0.093074  -0.227485  0  3.884572  0
C  C50  1  0.59178915  0.13561380  0.48066524  1  -0.057356  0  -0.091606  -0.226703  0  3.884324  0
C  C51  1  0.29719787  0.68967783  0.07592471  1  0.016922  0  -0.160965  -0.140878  0  4.004275  0
C  C52  1  0.23690019  0.76942362  0.01253663  1  -0.063954  0  -0.241461  -0.346015  0  3.978112  0
C  C53  1  0.70920704  0.31950633  0.92056035  1  -0.016336  0  -0.160261  -0.13866  0  3.996319  0
C  C54  1  0.74223070  0.22094732  0.98099009  1  -0.050304  0  -0.24311  -0.348523  0  3.977133  0
C  C55  1  0.24924252  0.44012073  0.96013133  1  -0.01946  0  -0.160444  -0.188902  0  3.974713  0
C  C56  1  0.14845320  0.40858271  0.03857682  1  -0.007447  0  -0.165317  -0.087022  0  3.96278  0
C  C57  1  0.04517795  0.32670850  0.01795540  1  -0.085225  0  -0.246292  -0.361923  0  4.001946  0
C  C58  1  0.51117429  0.93524812  0.48661039  1  -0.087523  0  -0.07682  -0.030345  0  4.027465  0
C  C59  1  0.75756923  0.56061076  0.03866773  1  -0.012116  0  -0.161238  -0.191563  0  3.972691  0
C  C60  1  0.74204528  0.68142503  0.08665012  1  -0.019929  0  -0.165441  -0.085586  0  3.961143  0
C  C61  1  0.87526197  0.71073969  0.11219861  1  -0.032515  0  -0.24465  -0.353649  0  3.985764  0
C  C62  1  0.48950689  0.06382557  0.48835853  1  -0.093277  0  -0.077322  -0.031127  0  4.027318  0
C  C63  1  0.07312171  0.51047089  0.49373010  1  0.717325  0  0.121124  0.16536  0  3.873638  0
C  C64  1  0.92774137  0.48997518  0.50474308  1  0.679452  0  0.122152  0.167696  0  3.870685  0
C  C65  1  0.49017154  0.50124557  0.33686762  1  1.656069  0  0.212816  0.673197  0  4.246239  0
C  C66  1  0.51132900  0.49882223  0.65970069  1  1.664621  0  0.215302  0.677266  0  4.239473  0
C  C67  1  0.53202292  0.61226796  0.96799311  1  -0.034474  0  -0.074479  -0.14281  0  3.638762  0
N  N68  1  0.15623917  0.46029147  0.53766726  1  -1.186787  0  -0.417746  -0.35749  0  3.215681  0
N  N69  1  0.84515183  0.53939032  0.46016544  1  -1.175707  0  -0.418827  -0.357921  0  3.216187  0
O  O70  1  0.56098386  0.68623603  0.48851882  1  -1.17485  0  -0.326102  -0.566393  0  2.316276  0
O  O71  1  0.44009851  0.31320183  0.50142493  1  -1.169396  0  -0.326317  -0.566946  0  2.315615  0
O  O72  1  0.33146047  0.67257919  0.51820684  1  -1.148354  0  -0.3296  -0.559388  0  2.259984  0
O  O73  1  0.66970851  0.32672713  0.47786317  1  -1.144526  0  -0.330059  -0.560225  0  2.260634  0
O  O74  1  0.60756752  0.50375954  0.35726430  1  -1.144584  0  -0.321983  -0.548403  0  2.246176  0
O  O75  1  0.39495632  0.49108850  0.63907182  1  -1.14145  0  -0.324251  -0.552381  0  2.245095  0
O  O76  1  0.37590881  0.49720226  0.38683189  1  -1.158163  0  -0.321875  -0.564768  0  2.262904  0
O  O77  1  0.62472012  0.50667044  0.60963613  1  -1.161272  0  -0.322969  -0.565345  0  2.263228  0
