# generated using pymatgen
data_Cd3H60C70S2(N9O8)2
_symmetry_space_group_name_H-M   'P 1'
_cell_length_a   10.23994645
_cell_length_b   13.46177018
_cell_length_c   15.94970247
_cell_angle_alpha   107.37582099
_cell_angle_beta   99.43185851
_cell_angle_gamma   97.33559936
_symmetry_Int_Tables_number   1
_chemical_formula_structural   Cd3H60C70S2(N9O8)2
_chemical_formula_sum   'Cd3 H60 C70 S2 N18 O16'
_cell_volume   2033.18243368
_cell_formula_units_Z   1
loop_
 _symmetry_equiv_pos_site_id
 _symmetry_equiv_pos_as_xyz
  1  'x, y, z'
loop_
 _atom_site_type_symbol
 _atom_site_label
 _atom_site_symmetry_multiplicity
 _atom_site_fract_x
 _atom_site_fract_y
 _atom_site_fract_z
 _atom_site_occupancy
 _atom_site_pbe_bader_charge
 _atom_site_pbe_bader_spin_density
 _atom_site_pbe_cm5_charge
 _atom_site_pbe_ddec_charge
 _atom_site_pbe_ddec_spin_density
 _atom_site_pbe_ddec_sum_bond_order
 _atom_site_pbe_magmom
Cd  Cd0  1  0.67091295  0.10202543  0.55079402  1  1.28914  0  0.779536  0.880232  0  2.237174  0
Cd  Cd1  1  0.32907967  0.89796321  0.44920170  1  1.288971  0  0.779487  0.880136  0  2.237364  0
Cd  Cd2  1  0.50000152  0.49999714  0.99999844  1  1.333718  0  0.809047  0.962644  0  2.254508  0
H  H3  1  0.15424252  0.09783085  0.54777119  1  0.136931  0  0.110396  0.129559  0  1.025416  0
H  H4  1  0.84575208  0.90216170  0.45223014  1  0.136913  0  0.110389  0.129554  0  1.025449  0
H  H5  1  0.45885365  0.37983687  0.68192210  1  0.151249  0  0.112456  0.127472  0  0.993186  0
H  H6  1  0.54114364  0.62015499  0.31806992  1  0.15104  0  0.112454  0.127545  0  0.993173  0
H  H7  1  0.04806237  0.37832799  0.71382942  1  0.139839  0  0.108807  0.115713  0  1.02801  0
H  H8  1  0.95193664  0.62167098  0.28616651  1  0.139935  0  0.108822  0.115698  0  1.028075  0
H  H9  1  0.63130504  0.27881618  0.46169332  1  0.115807  0  0.125342  0.105162  0  0.97475  0
H  H10  1  0.36869064  0.72118119  0.53830373  1  0.115774  0  0.125329  0.105165  0  0.974757  0
H  H11  1  0.62724095  0.31310903  0.31376072  1  0.15481  0  0.113175  0.139139  0  1.016631  0
H  H12  1  0.37276045  0.68689149  0.68623836  1  0.154844  0  0.113187  0.139158  0  1.01665  0
H  H13  1  0.69224862  0.99374802  0.20222688  1  0.091691  0  0.104314  0.105236  0  1.043  0
H  H14  1  0.30775710  0.00625411  0.79777116  1  0.091702  0  0.104339  0.105245  0  1.042989  0
H  H15  1  0.69729946  0.97409372  0.35483366  1  0.122749  0  0.11486  0.086027  0  1.020514  0
H  H16  1  0.30270309  0.02590763  0.64516386  1  0.121996  0  0.114889  0.086088  0  1.020467  0
H  H17  1  0.64145344  0.24950365  0.15518690  1  0.134187  0  0.117545  0.08836  0  1.025053  0
H  H18  1  0.35855304  0.75050164  0.84481330  1  0.134385  0  0.117537  0.088359  0  1.025123  0
H  H19  1  0.66330841  0.96460457  0.95088436  1  0.096795  0  0.111843  0.072142  0  1.029297  0
H  H20  1  0.33669114  0.03540072  0.04911515  1  0.096702  0  0.11187  0.072146  0  1.029319  0
H  H21  1  0.60144671  0.21058731  0.89003855  1  0.113348  0  0.107201  0.112558  0  1.032179  0
H  H22  1  0.39855778  0.78941800  0.10996020  1  0.111306  0  0.107185  0.112583  0  1.03215  0
H  H23  1  0.60449303  0.22298844  0.73583385  1  0.111364  0  0.122619  0.102803  0  0.996295  0
H  H24  1  0.39550616  0.77701135  0.26416105  1  0.111439  0  0.122652  0.102888  0  0.996284  0
H  H25  1  0.69204294  0.92247846  0.64522253  1  0.11031  0  0.122673  0.099436  0  0.982093  0
H  H26  1  0.30795968  0.07752281  0.35478063  1  0.110311  0  0.122689  0.099449  0  0.982025  0
H  H27  1  0.70187739  0.89978562  0.79633004  1  0.106499  0  0.111548  0.118638  0  0.998887  0
H  H28  1  0.29812343  0.10021645  0.20367315  1  0.106817  0  0.11157  0.118682  0  0.998884  0
H  H29  1  0.42157703  0.35474688  0.11264146  1  0.157881  0  0.11862  0.10317  0  1.027193  0
H  H30  1  0.57842207  0.64525200  0.88736259  1  0.157889  0  0.118621  0.103159  0  1.027205  0
H  H31  1  0.24084192  0.20400069  0.10073169  1  0.106745  0  0.113299  0.118588  0  1.00901  0
H  H32  1  0.75915577  0.79600056  0.89927347  1  0.106792  0  0.113281  0.118542  0  1.008943  0
H  H33  1  0.14948793  0.13936321  0.81310696  1  0.083511  0  0.117596  0.130524  0  0.983867  0
H  H34  1  0.85050706  0.86063483  0.18689961  1  0.083471  0  0.117636  0.130544  0  0.983767  0
H  H35  1  0.33071907  0.29533787  0.83653765  1  0.121539  0  0.118204  0.093676  0  1.012927  0
H  H36  1  0.66927369  0.70465944  0.16346349  1  0.120948  0  0.118199  0.093636  0  1.013002  0
H  H37  1  0.00719402  0.03430808  0.87600411  1  0.16012  0  0.118083  0.079548  0  1.059519  0
H  H38  1  0.99279734  0.96569550  0.12400417  1  0.160165  0  0.118054  0.079522  0  1.059563  0
H  H39  1  0.24867888  0.61136036  0.97452274  1  0.139206  0  0.120585  0.049682  0  1.038785  0
H  H40  1  0.75131643  0.38863150  0.02546970  1  0.139248  0  0.120568  0.049627  0  1.038812  0
H  H41  1  0.93620916  0.62692534  0.00577616  1  0.06876  0  0.102766  0.119845  0  0.999189  0
H  H42  1  0.06379121  0.37307523  0.99421969  1  0.068731  0  0.102801  0.119934  0  0.999225  0
H  H43  1  0.04412929  0.75125354  0.06841674  1  0.053586  0  0.098844  0.112986  0  1.009189  0
H  H44  1  0.95587095  0.24874617  0.93158452  1  0.053558  0  0.09885  0.113005  0  1.009203  0
H  H45  1  0.07214222  0.67581252  0.96201753  1  0.068902  0  0.113356  0.133039  0  0.989517  0
H  H46  1  0.92786069  0.32419435  0.03798335  1  0.068956  0  0.113376  0.133101  0  0.9895  0
H  H47  1  0.00027778  0.55486644  0.13579132  1  0.053087  0  0.103746  0.120613  0  0.999267  0
H  H48  1  0.99972479  0.44513489  0.86420746  1  0.053047  0  0.103752  0.120635  0  0.999261  0
H  H49  1  0.17635171  0.55700727  0.17243370  1  0.111109  0  0.116192  0.142275  0  0.977186  0
H  H50  1  0.82364965  0.44299329  0.82756287  1  0.110985  0  0.116159  0.142252  0  0.977152  0
H  H51  1  0.11150003  0.67639918  0.20317206  1  0.117758  0  0.105124  0.132973  0  1.01234  0
H  H52  1  0.88850468  0.32360298  0.79682464  1  0.117724  0  0.105122  0.132945  0  1.012394  0
H  H53  1  0.03426381  0.06501903  0.38226373  1  0.093959  0  0.111201  0.092039  0  1.007097  0
H  H54  1  0.96573500  0.93498700  0.61774091  1  0.093912  0  0.111189  0.092041  0  1.007104  0
H  H55  1  0.96912029  0.46188248  0.35721716  1  0.101559  0  0.117544  0.092303  0  0.999987  0
H  H56  1  0.03088125  0.53812281  0.64278317  1  0.101661  0  0.117582  0.092392  0  0.999908  0
H  H57  1  0.97854256  0.32333859  0.22256024  1  0.110378  0  0.107503  0.128652  0  1.006034  0
H  H58  1  0.02147243  0.67666906  0.77744330  1  0.110377  0  0.107481  0.128583  0  1.006016  0
H  H59  1  0.00299910  0.13757152  0.14539734  1  0.048977  0  0.09776  0.05467  0  1.072335  0
H  H60  1  0.99702205  0.86243688  0.85460953  1  0.048998  0  0.09777  0.054691  0  1.072447  0
H  H61  1  0.01870286  0.25032617  0.46984255  1  0.086364  0  0.105533  0.113753  0  1.040745  0
H  H62  1  0.98129019  0.74968065  0.53016110  1  0.086459  0  0.105511  0.113786  0  1.040676  0
C  C63  1  0.08786997  0.23212877  0.63051939  1  0.02954  0  -0.018631  -0.023636  0  3.972152  0
C  C64  1  0.91212814  0.76786619  0.36947979  1  0.029816  0  -0.01862  -0.023652  0  3.972264  0
C  C65  1  0.18435269  0.17972687  0.59253437  1  -0.087544  0  -0.075097  -0.115372  0  3.906798  0
C  C66  1  0.81564091  0.82026569  0.40746499  1  -0.087599  0  -0.075114  -0.115357  0  3.90681  0
C  C67  1  0.31749368  0.23366772  0.61021645  1  -0.014575  0  -0.021596  -0.037105  0  3.977001  0
C  C68  1  0.68250186  0.76632489  0.38977998  1  -0.014011  0  -0.021643  -0.037143  0  3.977052  0
C  C69  1  0.35485978  0.33892237  0.66808796  1  -0.026179  0  -0.074369  -0.096548  0  3.925209  0
C  C70  1  0.64514028  0.66106871  0.33190350  1  -0.025804  0  -0.074294  -0.096668  0  3.925486  0
C  C71  1  0.25818992  0.38966225  0.70662821  1  -0.191029  0  -0.020871  -0.088003  0  3.997508  0
C  C72  1  0.74181006  0.61033675  0.29336594  1  -0.191298  0  -0.020948  -0.088043  0  3.997684  0
C  C73  1  0.12477909  0.33772632  0.68682463  1  -0.078563  0  -0.073832  -0.102509  0  3.955176  0
C  C74  1  0.87522090  0.66227266  0.31317077  1  -0.078715  0  -0.073774  -0.10231  0  3.95516  0
C  C75  1  0.94244710  0.17911740  0.60853239  1  1.564254  0  0.180663  0.538623  0  4.263382  0
C  C76  1  0.05755141  0.82087912  0.39146974  1  1.564186  0  0.180713  0.53847  0  4.263491  0
C  C77  1  0.42321143  0.18010501  0.56962813  1  1.577038  0  0.198122  0.567044  0  4.239362  0
C  C78  1  0.57678501  0.81988278  0.43037214  1  1.576299  0  0.19818  0.566961  0  4.239396  0
C  C79  1  0.64516855  0.21855368  0.40224433  1  0.479258  0  0.054719  0.100256  0  3.931666  0
C  C80  1  0.35482789  0.78144686  0.59775363  1  0.479236  0  0.054744  0.100235  0  3.93173  0
C  C81  1  0.64243381  0.23688039  0.32062458  1  -0.037701  0  -0.073268  -0.159043  0  3.888154  0
C  C82  1  0.35756797  0.76312173  0.67937495  1  -0.036743  0  -0.073254  -0.158995  0  3.88812  0
C  C83  1  0.65864815  0.15503290  0.24651387  1  -0.013742  0  0.009046  0.103607  0  4.002263  0
C  C84  1  0.34135518  0.84497160  0.75348581  1  -0.014608  0  0.009052  0.103619  0  4.002247  0
C  C85  1  0.67901828  0.05843735  0.25840855  1  -0.048733  0  -0.078176  -0.15621  0  3.939387  0
C  C86  1  0.32098565  0.94156557  0.74159015  1  -0.048754  0  -0.078188  -0.156214  0  3.939417  0
C  C87  1  0.68150337  0.04731469  0.34213175  1  0.478541  0  0.046342  0.093442  0  3.956434  0
C  C88  1  0.31849900  0.95268585  0.65786617  1  0.479151  0  0.046273  0.093374  0  3.956503  0
C  C89  1  0.65332746  0.17130398  0.15969064  1  0.625279  0  0.081454  0.061604  0  3.876753  0
C  C90  1  0.34667549  0.82869892  0.84030922  1  0.625233  0  0.081501  0.061619  0  3.876949  0
C  C91  1  0.65731023  0.04273784  0.94406853  1  0.659156  0  0.073944  0.055516  0  3.926418  0
C  C92  1  0.34269328  0.95726745  0.05593074  1  0.658983  0  0.073869  0.055425  0  3.926447  0
C  C93  1  0.65288610  0.05429298  0.85579233  1  -0.004633  0  0.008358  0.104778  0  4.009863  0
C  C94  1  0.34711543  0.94571231  0.14420738  1  -0.004222  0  0.008367  0.104868  0  4.009842  0
C  C95  1  0.62421029  0.14620846  0.83774628  1  -0.036833  0  -0.078572  -0.158514  0  3.921283  0
C  C96  1  0.37579284  0.85379524  0.16225317  1  -0.035075  0  -0.078507  -0.158494  0  3.921348  0
C  C97  1  0.62402785  0.15267154  0.75263908  1  0.447985  0  0.045815  0.087717  0  3.941218  0
C  C98  1  0.37597115  0.84732743  0.24735684  1  0.44789  0  0.045697  0.087491  0  3.941344  0
C  C99  1  0.67375926  0.98446144  0.70170338  1  0.544988  0  0.055147  0.10502  0  3.939831  0
C  C100  1  0.32624159  0.01553669  0.29829689  1  0.545063  0  0.055115  0.105031  0  3.939807  0
C  C101  1  0.67783753  0.97216883  0.78562057  1  -0.06012  0  -0.074308  -0.162402  0  3.9332  0
C  C102  1  0.32216443  0.02783407  0.21437919  1  -0.060554  0  -0.074332  -0.162508  0  3.933189  0
C  C103  1  0.35933147  0.30479331  0.04749145  1  0.464709  0  0.049613  0.09617  0  3.930708  0
C  C104  1  0.64066880  0.69520637  0.95251168  1  0.464765  0  0.049682  0.09629  0  3.930679  0
C  C105  1  0.26022297  0.22053324  0.04064364  1  -0.035902  0  -0.073109  -0.155098  0  3.914062  0
C  C106  1  0.73977456  0.77946719  0.95936317  1  -0.036253  0  -0.073091  -0.155037  0  3.914138  0
C  C107  1  0.18175608  0.15888401  0.95559563  1  -0.034786  0  0.012581  0.102519  0  4.019879  0
C  C108  1  0.81824026  0.84111563  0.04441023  1  -0.034714  0  0.012624  0.102572  0  4.020026  0
C  C109  1  0.20860303  0.18477633  0.88030515  1  0.027325  0  -0.071854  -0.16172  0  3.904232  0
C  C110  1  0.79139290  0.81522176  0.11969838  1  0.027256  0  -0.071953  -0.161828  0  3.904136  0
C  C111  1  0.30942299  0.27074375  0.89287187  1  0.462975  0  0.051187  0.103807  0  3.935167  0
C  C112  1  0.69057259  0.72925273  0.10713247  1  0.463451  0  0.051161  0.103874  0  3.935021  0
C  C113  1  0.07193908  0.07218128  0.94364622  1  0.590199  0  0.082601  0.0534  0  3.881706  0
C  C114  1  0.92805684  0.92782075  0.05636023  1  0.590912  0  0.082597  0.053379  0  3.881698  0
C  C115  1  0.24095125  0.59457573  0.03730265  1  1.336168  0  0.165774  0.284129  0  4.114251  0
C  C116  1  0.75904816  0.40542089  0.96269082  1  1.336062  0  0.165726  0.284163  0  4.114313  0
C  C117  1  0.04054550  0.67071595  0.02333309  1  0.272989  0  -0.130368  -0.281226  0  3.916232  0
C  C118  1  0.95945949  0.32928298  0.97666718  1  0.272956  0  -0.130451  -0.2814  0  3.916346  0
C  C119  1  0.10282869  0.60066575  0.14943401  1  0.213282  0  -0.133773  -0.276222  0  3.86104  0
C  C120  1  0.89717529  0.39933320  0.85056366  1  0.213383  0  -0.133768  -0.276216  0  3.86102  0
C  C121  1  0.02383985  0.12477595  0.34899125  1  0.487682  0  0.037182  0.082209  0  3.979213  0
C  C122  1  0.97615976  0.87522928  0.65101326  1  0.487564  0  0.037218  0.082174  0  3.979068  0
C  C123  1  0.99008764  0.41110034  0.39850217  1  0.676979  0  0.07884  0.057242  0  3.895989  0
C  C124  1  0.00990815  0.58890574  0.60149779  1  0.676999  0  0.078764  0.057188  0  3.895899  0
C  C125  1  0.99435353  0.26880360  0.26023938  1  -0.067146  0  -0.086341  -0.174405  0  3.933431  0
C  C126  1  0.00566051  0.73120401  0.73976720  1  -0.067113  0  -0.086358  -0.174324  0  3.933289  0
C  C127  1  0.00557185  0.16484182  0.21750764  1  0.511019  0  0.025474  0.07648  0  4.029662  0
C  C128  1  0.99444336  0.83516658  0.78249864  1  0.510787  0  0.025518  0.076499  0  4.02979  0
C  C129  1  0.99996222  0.30194061  0.35305365  1  -0.03793  0  0.004664  0.105884  0  4.018376  0
C  C130  1  0.00004049  0.69806939  0.64695116  1  -0.037865  0  0.004526  0.105605  0  4.01826  0
C  C131  1  0.01485001  0.22737904  0.39791709  1  0.015359  0  -0.078157  -0.15222  0  3.90026  0
C  C132  1  0.98514816  0.77262860  0.60208540  1  0.015399  0  -0.078132  -0.152191  0  3.900193  0
S  S133  1  0.30708348  0.51846673  0.78879962  1  3.180077  0  0.504643  1.18005  0  6.208727  0
S  S134  1  0.69291925  0.48153542  0.21119687  1  3.18037  0  0.504655  1.180137  0  6.208499  0
N  N135  1  0.66360286  0.12543433  0.41259592  1  -1.199158  0  -0.325449  -0.23078  0  3.517449  0
N  N136  1  0.33639458  0.87456620  0.58740276  1  -1.19922  0  -0.325501  -0.230843  0  3.517643  0
N  N137  1  0.66253605  0.09424446  0.09048633  1  -0.779986  0  -0.211653  -0.169008  0  3.320151  0
N  N138  1  0.33746845  0.90576084  0.90951305  1  -0.780023  0  -0.211725  -0.1691  0  3.320338  0
N  N139  1  0.65614595  0.12268514  0.01336380  1  -0.766892  0  -0.212486  -0.16988  0  3.292322  0
N  N140  1  0.34385954  0.87732016  0.98663630  1  -0.766753  0  -0.212395  -0.169735  0  3.292142  0
N  N141  1  0.64746075  0.07285102  0.68546221  1  -1.22263  0  -0.32057  -0.225019  0  3.494923  0
N  N142  1  0.35253691  0.92714634  0.31453504  1  -1.222574  0  -0.320498  -0.224926  0  3.494901  0
N  N143  1  0.38282856  0.33008630  0.97483685  1  -1.218912  0  -0.32533  -0.245487  0  3.493139  0
N  N144  1  0.61716797  0.66991022  0.02516509  1  -1.218548  0  -0.325367  -0.24564  0  3.493067  0
N  N145  1  0.05457079  0.04123098  0.01128892  1  -0.787553  0  -0.205189  -0.161057  0  3.321927  0
N  N146  1  0.94542659  0.95876469  0.98871727  1  -0.762512  0  -0.205232  -0.161074  0  3.32187  0
N  N147  1  0.13051128  0.61782642  0.06756711  1  -1.211991  0  -0.282286  0.030841  0  3.734145  0
N  N148  1  0.86948933  0.38217096  0.93242918  1  -1.211725  0  -0.282199  0.0309  0  3.734274  0
N  N149  1  0.00588601  0.44713866  0.48505085  1  -0.796682  0  -0.210913  -0.166865  0  3.30125  0
N  N150  1  0.99409574  0.55286662  0.51494814  1  -0.778915  0  -0.210792  -0.16689  0  3.301369  0
N  N151  1  0.01999390  0.09298681  0.25975995  1  -1.224373  0  -0.330247  -0.290701  0  3.359685  0
N  N152  1  0.98001636  0.90702159  0.74024645  1  -1.22433  0  -0.330184  -0.290581  0  3.359558  0
O  O153  1  0.90751022  0.08298106  0.55750693  1  -1.172176  0  -0.332072  -0.553587  0  2.172799  0
O  O154  1  0.09248716  0.91701953  0.44248674  1  -1.172024  0  -0.332064  -0.553464  0  2.172773  0
O  O155  1  0.85934596  0.23524728  0.64057460  1  -1.165977  0  -0.338519  -0.558215  0  2.187561  0
O  O156  1  0.14065568  0.76474515  0.35943681  1  -1.165935  0  -0.33858  -0.55817  0  2.187742  0
O  O157  1  0.39263421  0.08237828  0.52185017  1  -1.215144  0  -0.343109  -0.603536  0  2.350004  0
O  O158  1  0.60735695  0.91760788  0.47815354  1  -1.214829  0  -0.343078  -0.603397  0  2.349941  0
O  O159  1  0.54116963  0.23505539  0.58756367  1  -1.163977  0  -0.328237  -0.549635  0  2.21613  0
O  O160  1  0.45882259  0.76493169  0.41242911  1  -1.164171  0  -0.328303  -0.549667  0  2.216206  0
O  O161  1  0.35459305  0.49458059  0.87289801  1  -1.342793  0  -0.374047  -0.663059  0  2.377863  0
O  O162  1  0.64540815  0.50541524  0.12709543  1  -1.342999  0  -0.374041  -0.663089  0  2.377902  0
O  O163  1  0.41608942  0.57680926  0.76340561  1  -1.340523  0  -0.346973  -0.597615  0  2.155897  0
O  O164  1  0.58390838  0.42319288  0.23659164  1  -1.340714  0  -0.34693  -0.597604  0  2.155766  0
O  O165  1  0.18628811  0.56561851  0.79359209  1  -1.344612  0  -0.352225  -0.615311  0  2.17345  0
O  O166  1  0.81371250  0.43437889  0.20640295  1  -1.344522  0  -0.352307  -0.61542  0  2.173393  0
O  O167  1  0.32895364  0.55585689  0.07533713  1  -1.162771  0  -0.317311  -0.472417  0  2.304471  0
O  O168  1  0.67104614  0.44414132  0.92465617  1  -1.162811  0  -0.317252  -0.472375  0  2.304349  0
