# generated using pymatgen
data_Li4H10C8O13
_symmetry_space_group_name_H-M   'P 1'
_cell_length_a   5.46451760
_cell_length_b   5.46448288
_cell_length_c   24.43465014
_cell_angle_alpha   89.99988619
_cell_angle_beta   90.00005383
_cell_angle_gamma   118.47848733
_symmetry_Int_Tables_number   1
_chemical_formula_structural   Li4H10C8O13
_chemical_formula_sum   'Li8 H20 C16 O26'
_cell_volume   641.34841353
_cell_formula_units_Z   2
loop_
 _symmetry_equiv_pos_site_id
 _symmetry_equiv_pos_as_xyz
  1  'x, y, z'
loop_
 _atom_site_type_symbol
 _atom_site_label
 _atom_site_symmetry_multiplicity
 _atom_site_fract_x
 _atom_site_fract_y
 _atom_site_fract_z
 _atom_site_occupancy
 _atom_site_hle17_bader_spin_density
 _atom_site_hle17_ddec_charge
 _atom_site_hle17_ddec_spin_density
 _atom_site_hle17_ddec_sum_bond_order
 _atom_site_hle17_magmom
 _atom_site_hse06_10hf_bader_spin_density
 _atom_site_hse06_10hf_ddec_charge
 _atom_site_hse06_10hf_ddec_spin_density
 _atom_site_hse06_10hf_ddec_sum_bond_order
 _atom_site_hse06_10hf_magmom
 _atom_site_hse06_bader_spin_density
 _atom_site_hse06_ddec_charge
 _atom_site_hse06_ddec_spin_density
 _atom_site_hse06_ddec_sum_bond_order
 _atom_site_hse06_magmom
 _atom_site_pbe_bader_spin_density
 _atom_site_pbe_cm5_charge
 _atom_site_pbe_ddec_charge
 _atom_site_pbe_ddec_spin_density
 _atom_site_pbe_ddec_sum_bond_order
 _atom_site_pbe_magmom
Li  Li0  1  0.93981177  0.37064414  0.80419774  1  0  0.851969  0  0.385211  0  0  0.810595  0  0.48932  0  0  0.820581  0  0.472267  0  0  0.516949  0.80335  0  0.501626  0
Li  Li1  1  0.06018062  0.62936045  0.30419903  1  0  0.851945  0  0.385233  0  0  0.810571  0  0.48934  0  0  0.820557  0  0.472287  0  0  0.51695  0.803327  0  0.501646  0
Li  Li2  1  0.37063808  0.93981536  0.19580088  1  0  0.851966  0  0.385204  0  0  0.810599  0  0.489296  0  0  0.820583  0  0.472246  0  0  0.516943  0.803357  0  0.5016  0
Li  Li3  1  0.62936149  0.06018607  0.69580130  1  0  0.851967  0  0.385195  0  0  0.810592  0  0.489303  0  0  0.820578  0  0.47225  0  0  0.516943  0.803347  0  0.501608  0
Li  Li4  1  0.46732630  0.03193698  0.96697767  1  0  0.858151  0  0.377023  0  0  0.815948  0  0.484436  0  0  0.825974  0  0.467384  0  0  0.515486  0.808619  0  0.496785  0
Li  Li5  1  0.53268413  0.96805787  0.46697972  1  0  0.858129  0  0.377014  0  0  0.815929  0  0.484443  0  0  0.825954  0  0.46739  0  0  0.51547  0.8086  0  0.496791  0
Li  Li6  1  0.03194537  0.46731601  0.03302104  1  0  0.858149  0  0.377003  0  0  0.815942  0  0.48443  0  0  0.82597  0  0.467376  0  0  0.515465  0.808613  0  0.496777  0
Li  Li7  1  0.96805503  0.53268479  0.53302337  1  0  0.858147  0  0.377003  0  0  0.815932  0  0.484452  0  0  0.825959  0  0.467397  0  0  0.515449  0.808602  0  0.496801  0
H  H8  1  0.47358235  0.28825274  0.76937830  1  0  0.435519  0  0.865504  0  0  0.405344  0  0.927525  0  0  0.416426  0  0.911273  0  0  0.304172  0.397516  0  0.939008  0
H  H9  1  0.52640891  0.71174592  0.26937965  1  0  0.435507  0  0.86552  0  0  0.405336  0  0.927537  0  0  0.416418  0  0.911285  0  0  0.304147  0.397508  0  0.939019  0
H  H10  1  0.28824256  0.47357997  0.23062119  1  0  0.435502  0  0.865543  0  0  0.405325  0  0.927568  0  0  0.416406  0  0.911317  0  0  0.304146  0.397496  0  0.939051  0
H  H11  1  0.71174968  0.52642112  0.73062102  1  0  0.435498  0  0.865537  0  0  0.405324  0  0.927556  0  0  0.416405  0  0.911306  0  0  0.304156  0.397496  0  0.939038  0
H  H12  1  0.46745868  0.93119829  0.83499482  1  0  0.395247  0  0.910652  0  0  0.369599  0  0.979044  0  0  0.380643  0  0.962961  0  0  0.312722  0.361837  0  0.990192  0
H  H13  1  0.53253738  0.06880604  0.33499358  1  0  0.395212  0  0.910734  0  0  0.369555  0  0.97912  0  0  0.380599  0  0.963037  0  0  0.312687  0.361793  0  0.990291  0
H  H14  1  0.93118946  0.46745145  0.16500583  1  0  0.395227  0  0.910683  0  0  0.369587  0  0.979059  0  0  0.380628  0  0.962981  0  0  0.312701  0.361826  0  0.990205  0
H  H15  1  0.06880927  0.53255232  0.66500552  1  0  0.395202  0  0.910711  0  0  0.369552  0  0.979113  0  0  0.380596  0  0.963031  0  0  0.31268  0.361791  0  0.990254  0
H  H16  1  0.41252553  0.52034237  0.93853066  1  0  0.391923  0  0.916273  0  0  0.365561  0  0.983542  0  0  0.377122  0  0.966769  0  0  0.311413  0.357448  0  0.995285  0
H  H17  1  0.58748040  0.47965481  0.43853171  1  0  0.391888  0  0.91638  0  0  0.365551  0  0.983567  0  0  0.377104  0  0.966802  0  0  0.311425  0.357438  0  0.995307  0
H  H18  1  0.52033709  0.41250903  0.06146841  1  0  0.39188  0  0.916377  0  0  0.365548  0  0.983568  0  0  0.377102  0  0.966802  0  0  0.311411  0.357433  0  0.995314  0
H  H19  1  0.47965768  0.58748735  0.56146816  1  0  0.391882  0  0.916354  0  0  0.365549  0  0.983561  0  0  0.377105  0  0.966793  0  0  0.311421  0.357435  0  0.995304  0
H  H20  1  0.62274200  0.63601668  0.83937024  1  0  0.07722  0  0.916023  0  0  0.087449  0  0.975033  0  0  0.08983  0  0.973164  0  0  0.133384  0.08568  0  0.976615  0
H  H21  1  0.37725589  0.36398760  0.33936966  1  0  0.077242  0  0.915988  0  0  0.087472  0  0.974939  0  0  0.089848  0  0.973073  0  0  0.133387  0.085703  0  0.976519  0
H  H22  1  0.63600872  0.62273864  0.16062961  1  0  0.077224  0  0.915928  0  0  0.08747  0  0.974917  0  0  0.089845  0  0.973049  0  0  0.133372  0.085696  0  0.976497  0
H  H23  1  0.36398818  0.37726517  0.66063024  1  0  0.077196  0  0.916014  0  0  0.087446  0  0.974962  0  0  0.089822  0  0.973094  0  0  0.133375  0.085677  0  0.976544  0
H  H24  1  0.87200888  0.67588974  0.92617199  1  0  0.079952  0  0.91831  0  0  0.084829  0  0.984816  0  0  0.087812  0  0.98225  0  0  0.136229  0.082621  0  0.98691  0
H  H25  1  0.12798294  0.32409712  0.42617261  1  0  0.079969  0  0.918283  0  0  0.084858  0  0.984803  0  0  0.08784  0  0.982239  0  0  0.136273  0.082654  0  0.986898  0
H  H26  1  0.67590247  0.87201462  0.07382619  1  0  0.08001  0  0.918302  0  0  0.08488  0  0.984807  0  0  0.087861  0  0.982248  0  0  0.136278  0.082677  0  0.986902  0
H  H27  1  0.32410274  0.12799207  0.57382692  1  0  0.079992  0  0.918315  0  0  0.084873  0  0.984833  0  0  0.087849  0  0.982282  0  0  0.136272  0.08267  0  0.986928  0
C  C28  1  0.98845541  0.10667134  0.94096464  1  0  0.691013  0  3.830973  0  0  0.642252  0  4.130211  0  0  0.674501  0  4.12122  0  0  0.240695  0.620319  0  4.135807  0
C  C29  1  0.01154304  0.89332164  0.44096540  1  0  0.691045  0  3.830939  0  0  0.642415  0  4.130021  0  0  0.674664  0  4.121023  0  0  0.240733  0.620481  0  4.13562  0
C  C30  1  0.10667111  0.98844930  0.05903481  1  0  0.691251  0  3.830717  0  0  0.642503  0  4.129919  0  0  0.674753  0  4.12092  0  0  0.240762  0.620559  0  4.135534  0
C  C31  1  0.89332930  0.01155127  0.55903572  1  0  0.691249  0  3.830763  0  0  0.642538  0  4.129947  0  0  0.674788  0  4.12095  0  0  0.24077  0.620607  0  4.135543  0
C  C32  1  0.05009794  0.93642789  0.82549269  1  0  0.678198  0  3.843847  0  0  0.624171  0  4.155062  0  0  0.657223  0  4.145896  0  0  0.237327  0.601656  0  4.160824  0
C  C33  1  0.94990743  0.06358070  0.32549318  1  0  0.678112  0  3.843782  0  0  0.624024  0  4.155016  0  0  0.657071  0  4.145861  0  0  0.237244  0.601518  0  4.160768  0
C  C34  1  0.93642228  0.05009768  0.17450596  1  0  0.678066  0  3.843621  0  0  0.624028  0  4.154864  0  0  0.657074  0  4.145709  0  0  0.237232  0.601514  0  4.160624  0
C  C35  1  0.06357348  0.94989977  0.67450956  1  0  0.678147  0  3.843623  0  0  0.624093  0  4.154861  0  0  0.657136  0  4.145708  0  0  0.237262  0.601582  0  4.160618  0
C  C36  1  0.77125982  0.84608412  0.85406328  1  0  0.057442  0  3.65019  0  0  0.031889  0  3.903673  0  0  0.033066  0  3.909639  0  0  0.010594  0.030919  0  3.899823  0
C  C37  1  0.22874173  0.15392004  0.35406317  1  0  0.057304  0  3.650325  0  0  0.031932  0  3.903569  0  0  0.033122  0  3.909534  0  0  0.010597  0.03096  0  3.899725  0
C  C38  1  0.84608326  0.77125876  0.14593530  1  0  0.0575  0  3.650093  0  0  0.031941  0  3.903606  0  0  0.033133  0  3.909572  0  0  0.010653  0.030986  0  3.899736  0
C  C39  1  0.15392576  0.22875145  0.64593555  1  0  0.057479  0  3.650092  0  0  0.031997  0  3.903495  0  0  0.03319  0  3.909465  0  0  0.010607  0.031031  0  3.899641  0
C  C40  1  0.79024016  0.82115785  0.91726820  1  0  0.061081  0  3.638463  0  0  0.035045  0  3.89187  0  0  0.036162  0  3.898054  0  0  0.012962  0.034119  0  3.887812  0
C  C41  1  0.20976012  0.17883535  0.41726849  1  0  0.061189  0  3.638279  0  0  0.034998  0  3.891809  0  0  0.036108  0  3.897997  0  0  0.012941  0.034066  0  3.887757  0
C  C42  1  0.82116294  0.79023539  0.08272997  1  0  0.061  0  3.638639  0  0  0.034983  0  3.892054  0  0  0.03609  0  3.898246  0  0  0.012939  0.034048  0  3.888008  0
C  C43  1  0.17884494  0.20976915  0.58273310  1  0  0.061006  0  3.63864  0  0  0.034889  0  3.892154  0  0  0.035999  0  3.898343  0  0  0.012874  0.033952  0  3.888109  0
O  O44  1  0.17133792  0.17788625  0.80431802  1  0  -0.673178  0  1.945665  0  0  -0.617436  0  2.167736  0  0  -0.640996  0  2.155693  0  0  -0.346366  -0.601182  0  2.175799  0
O  O45  1  0.82865448  0.82211834  0.30432020  1  0  -0.67307  0  1.945526  0  0  -0.617364  0  2.167676  0  0  -0.640925  0  2.15564  0  0  -0.346317  -0.601109  0  2.175735  0
O  O46  1  0.17788349  0.17134491  0.19568193  1  0  -0.673095  0  1.945462  0  0  -0.617377  0  2.167576  0  0  -0.640938  0  2.15554  0  0  -0.346332  -0.60112  0  2.175639  0
O  O47  1  0.82212143  0.82865237  0.69568205  1  0  -0.673093  0  1.945701  0  0  -0.617383  0  2.167837  0  0  -0.640941  0  2.155801  0  0  -0.346291  -0.601127  0  2.175897  0
O  O48  1  0.65459273  0.34540675  0.75000009  1  0  -0.983262  0  1.838432  0  0  -0.939791  0  2.027796  0  0  -0.95659  0  1.992197  0  0  -0.688491  -0.927942  0  2.052742  0
O  O49  1  0.34539852  0.65459209  0.25000020  1  0  -0.983253  0  1.838446  0  0  -0.939776  0  2.027799  0  0  -0.95658  0  1.992195  0  0  -0.68844  -0.927925  0  2.052744  0
O  O50  1  0.14223267  0.76134626  0.82526724  1  0  -0.699921  0  1.973645  0  0  -0.653382  0  2.212198  0  0  -0.67572  0  2.19712  0  0  -0.370042  -0.637859  0  2.22222  0
O  O51  1  0.85776255  0.23866023  0.32526804  1  0  -0.699895  0  1.973578  0  0  -0.653341  0  2.212147  0  0  -0.675675  0  2.197068  0  0  -0.37003  -0.637815  0  2.222168  0
O  O52  1  0.76133583  0.14222996  0.17473142  1  0  -0.69985  0  1.973586  0  0  -0.653311  0  2.21214  0  0  -0.675641  0  2.197057  0  0  -0.369999  -0.637785  0  2.222162  0
O  O53  1  0.23866162  0.85776332  0.67473346  1  0  -0.69994  0  1.973589  0  0  -0.653386  0  2.21214  0  0  -0.675725  0  2.197074  0  0  -0.370032  -0.63786  0  2.222158  0
O  O54  1  0.67433994  0.03822160  0.84198183  1  0  -0.640145  0  2.14528  0  0  -0.595603  0  2.377853  0  0  -0.609792  0  2.360451  0  0  -0.454261  -0.585469  0  2.389692  0
O  O55  1  0.32565979  0.96178266  0.34197894  1  0  -0.640081  0  2.145364  0  0  -0.595562  0  2.377829  0  0  -0.60975  0  2.360415  0  0  -0.454222  -0.585437  0  2.389717  0
O  O56  1  0.03820985  0.67432934  0.15802013  1  0  -0.640174  0  2.145397  0  0  -0.595612  0  2.37792  0  0  -0.609798  0  2.360506  0  0  -0.454246  -0.585493  0  2.389785  0
O  O57  1  0.96178026  0.32566408  0.65801968  1  0  -0.640123  0  2.145307  0  0  -0.59558  0  2.377827  0  0  -0.609766  0  2.360413  0  0  -0.454212  -0.585459  0  2.389693  0
O  O58  1  0.52394479  0.73069686  0.94073241  1  0  -0.638833  0  2.129001  0  0  -0.597503  0  2.364304  0  0  -0.610973  0  2.34538  0  0  -0.454098  -0.587772  0  2.377345  0
O  O59  1  0.47605930  0.26930029  0.44073108  1  0  -0.638843  0  2.129056  0  0  -0.597512  0  2.364388  0  0  -0.610975  0  2.345471  0  0  -0.454101  -0.587778  0  2.377431  0
O  O60  1  0.73069291  0.52393292  0.05926702  1  0  -0.638822  0  2.12922  0  0  -0.59752  0  2.364505  0  0  -0.610983  0  2.34559  0  0  -0.454068  -0.587783  0  2.377547  0
O  O61  1  0.26930736  0.47606349  0.55926883  1  0  -0.638812  0  2.129205  0  0  -0.597476  0  2.36452  0  0  -0.610941  0  2.345602  0  0  -0.454058  -0.587741  0  2.377567  0
O  O62  1  0.24792006  0.19394891  0.93349851  1  0  -0.689143  0  1.985246  0  0  -0.639408  0  2.218072  0  0  -0.663344  0  2.205712  0  0  -0.354191  -0.622757  0  2.226246  0
O  O63  1  0.75209205  0.80604209  0.43350109  1  0  -0.689157  0  1.985443  0  0  -0.639485  0  2.218237  0  0  -0.663413  0  2.205868  0  0  -0.354193  -0.622835  0  2.226415  0
O  O64  1  0.19396052  0.24790666  0.06650143  1  0  -0.689247  0  1.985245  0  0  -0.63955  0  2.218109  0  0  -0.663478  0  2.205739  0  0  -0.354252  -0.622898  0  2.226295  0
O  O65  1  0.80604652  0.75210010  0.56650076  1  0  -0.689173  0  1.985331  0  0  -0.639488  0  2.218184  0  0  -0.663418  0  2.205815  0  0  -0.354185  -0.622838  0  2.226362  0
O  O66  1  0.88446569  0.24027178  0.96560502  1  0  -0.744868  0  1.939023  0  0  -0.699441  0  2.181343  0  0  -0.720208  0  2.166577  0  0  -0.408733  -0.685065  0  2.191342  0
O  O67  1  0.11554375  0.75972101  0.46560586  1  0  -0.744896  0  1.938928  0  0  -0.699508  0  2.181191  0  0  -0.720276  0  2.166421  0  0  -0.408778  -0.685129  0  2.191191  0
O  O68  1  0.24028734  0.88446175  0.03439443  1  0  -0.744946  0  1.938825  0  0  -0.69954  0  2.181153  0  0  -0.720308  0  2.166382  0  0  -0.408771  -0.685157  0  2.191157  0
O  O69  1  0.75972069  0.11554738  0.53439567  1  0  -0.744981  0  1.938785  0  0  -0.699574  0  2.181107  0  0  -0.720342  0  2.166337  0  0  -0.408791  -0.685196  0  2.191105  0
