# generated using pymatgen
data_CdPH11(C4Cl)2
_symmetry_space_group_name_H-M   'P 1'
_cell_length_a   7.09170306
_cell_length_b   12.14458303
_cell_length_c   12.80318890
_cell_angle_alpha   90.00034077
_cell_angle_beta   93.49141678
_cell_angle_gamma   90.00065634
_symmetry_Int_Tables_number   1
_chemical_formula_structural   CdPH11(C4Cl)2
_chemical_formula_sum   'Cd4 P4 H44 C32 Cl8'
_cell_volume   1100.63793063
_cell_formula_units_Z   4
loop_
 _symmetry_equiv_pos_site_id
 _symmetry_equiv_pos_as_xyz
  1  'x, y, z'
loop_
 _atom_site_type_symbol
 _atom_site_label
 _atom_site_symmetry_multiplicity
 _atom_site_fract_x
 _atom_site_fract_y
 _atom_site_fract_z
 _atom_site_occupancy
 _atom_site_hle17_bader_spin_density
 _atom_site_hle17_ddec_charge
 _atom_site_hle17_ddec_spin_density
 _atom_site_hle17_ddec_sum_bond_order
 _atom_site_hle17_magmom
 _atom_site_hse06_10hf_bader_spin_density
 _atom_site_hse06_10hf_ddec_charge
 _atom_site_hse06_10hf_ddec_spin_density
 _atom_site_hse06_10hf_ddec_sum_bond_order
 _atom_site_hse06_10hf_magmom
 _atom_site_hse06_bader_spin_density
 _atom_site_hse06_ddec_charge
 _atom_site_hse06_ddec_spin_density
 _atom_site_hse06_ddec_sum_bond_order
 _atom_site_hse06_magmom
 _atom_site_pbe_bader_spin_density
 _atom_site_pbe_cm5_charge
 _atom_site_pbe_ddec_charge
 _atom_site_pbe_ddec_spin_density
 _atom_site_pbe_ddec_sum_bond_order
 _atom_site_pbe_magmom
Cd  Cd0  1  0.25478922  0.02334971  0.05382422  1  0  0.735064  0  2.084535  0  0  0.578397  0  2.548823  0  0  0.615465  0  2.516116  0  0  0.507704  0.552458  0  2.570918  0
Cd  Cd1  1  0.24521109  0.52334914  0.44617237  1  0  0.735076  0  2.084495  0  0  0.578397  0  2.548787  0  0  0.615465  0  2.516079  0  0  0.507704  0.552465  0  2.570859  0
Cd  Cd2  1  0.74521329  0.97665080  0.94616875  1  0  0.735099  0  2.084506  0  0  0.578422  0  2.548785  0  0  0.61549  0  2.516079  0  0  0.507733  0.552483  0  2.570868  0
Cd  Cd3  1  0.75479007  0.47665054  0.55382993  1  0  0.735063  0  2.084509  0  0  0.578382  0  2.54879  0  0  0.615449  0  2.516087  0  0  0.507701  0.552448  0  2.570877  0
P  P4  1  0.26759519  0.08753205  0.24373666  1  0  0.426163  0  3.67647  0  0  0.420831  0  4.109753  0  0  0.422683  0  4.116776  0  0  0.023734  0.419374  0  4.104872  0
P  P5  1  0.23240359  0.58753267  0.25625946  1  0  0.426164  0  3.676553  0  0  0.420841  0  4.109817  0  0  0.422693  0  4.116838  0  0  0.023699  0.419392  0  4.10492  0
P  P6  1  0.73241296  0.91247010  0.75625414  1  0  0.426295  0  3.676462  0  0  0.420954  0  4.109706  0  0  0.422807  0  4.116727  0  0  0.023757  0.419505  0  4.10481  0
P  P7  1  0.76759477  0.41247031  0.74374587  1  0  0.426238  0  3.676643  0  0  0.420899  0  4.109863  0  0  0.422753  0  4.116879  0  0  0.023725  0.419442  0  4.104992  0
H  H8  1  0.38520711  0.96358126  0.44035070  1  0  0.081157  0  0.968287  0  0  0.09456  0  1.029395  0  0  0.096856  0  1.028535  0  0  0.098026  0.092886  0  1.030131  0
H  H9  1  0.11478654  0.46357351  0.05964738  1  0  0.081165  0  0.968333  0  0  0.094568  0  1.029431  0  0  0.096862  0  1.028578  0  0  0.097976  0.092897  0  1.030162  0
H  H10  1  0.61479117  0.03642419  0.55964370  1  0  0.081196  0  0.968197  0  0  0.09459  0  1.02933  0  0  0.096884  0  1.028476  0  0  0.098006  0.092918  0  1.030061  0
H  H11  1  0.88520899  0.53642041  0.94035708  1  0  0.08122  0  0.968108  0  0  0.094563  0  1.029296  0  0  0.096857  0  1.028442  0  0  0.098017  0.092889  0  1.030023  0
H  H12  1  0.21928877  0.81873042  0.53690578  1  0  0.089889  0  0.969484  0  0  0.099755  0  1.033311  0  0  0.102247  0  1.032815  0  0  0.094053  0.09795  0  1.033735  0
H  H13  1  0.28069676  0.31872221  0.96309750  1  0  0.089896  0  0.969597  0  0  0.099796  0  1.033348  0  0  0.102294  0  1.032844  0  0  0.094075  0.097982  0  1.033776  0
H  H14  1  0.78070246  0.18127339  0.46309074  1  0  0.090019  0  0.969651  0  0  0.099827  0  1.033508  0  0  0.102338  0  1.032989  0  0  0.094109  0.098016  0  1.033936  0
H  H15  1  0.71929600  0.68127089  0.03691468  1  0  0.089932  0  0.969465  0  0  0.099775  0  1.033311  0  0  0.102279  0  1.032799  0  0  0.094069  0.097955  0  1.03376  0
H  H16  1  0.89715242  0.75905816  0.47531411  1  0  0.082783  0  1.002599  0  0  0.089169  0  1.074742  0  0  0.0921  0  1.073101  0  0  0.082726  0.086992  0  1.076047  0
H  H17  1  0.60283771  0.25904847  0.02468992  1  0  0.08286  0  1.002614  0  0  0.089199  0  1.074781  0  0  0.09213  0  1.073139  0  0  0.082754  0.087029  0  1.076077  0
H  H18  1  0.10284161  0.24095140  0.52467859  1  0  0.082828  0  1.002496  0  0  0.089162  0  1.074698  0  0  0.092094  0  1.073056  0  0  0.082737  0.086994  0  1.075992  0
H  H19  1  0.39715363  0.74094216  0.97532144  1  0  0.082867  0  1.002547  0  0  0.089222  0  1.074718  0  0  0.092154  0  1.073074  0  0  0.082758  0.087048  0  1.076034  0
H  H20  1  0.73907554  0.84377226  0.31583617  1  0  0.087868  0  0.963987  0  0  0.098466  0  1.025936  0  0  0.101373  0  1.024451  0  0  0.094076  0.0963  0  1.027219  0
H  H21  1  0.76090221  0.34376299  0.18417342  1  0  0.087794  0  0.964009  0  0  0.098379  0  1.025984  0  0  0.101294  0  1.024489  0  0  0.094003  0.096197  0  1.027277  0
H  H22  1  0.26091710  0.15624224  0.68415961  1  0  0.087844  0  0.964143  0  0  0.098387  0  1.026142  0  0  0.101295  0  1.024656  0  0  0.094024  0.096241  0  1.027398  0
H  H23  1  0.23908350  0.65622764  0.81584089  1  0  0.087845  0  0.96408  0  0  0.098435  0  1.02604  0  0  0.101342  0  1.024556  0  0  0.094085  0.096281  0  1.027305  0
H  H24  1  0.90436282  0.98336808  0.21595571  1  0  0.083063  0  0.986455  0  0  0.090566  0  1.058532  0  0  0.09333  0  1.057037  0  0  0.087434  0.088541  0  1.059682  0
H  H25  1  0.59562336  0.48335750  0.28404946  1  0  0.083077  0  0.986486  0  0  0.090478  0  1.058688  0  0  0.093267  0  1.057166  0  0  0.08738  0.088454  0  1.059839  0
H  H26  1  0.09564391  0.01664314  0.78403583  1  0  0.083213  0  0.986521  0  0  0.090636  0  1.058699  0  0  0.093409  0  1.057191  0  0  0.087478  0.088611  0  1.059851  0
H  H27  1  0.40436512  0.51663560  0.71595712  1  0  0.083132  0  0.986476  0  0  0.090521  0  1.058673  0  0  0.093306  0  1.057154  0  0  0.087431  0.088498  0  1.059823  0
H  H28  1  0.99062573  0.20253551  0.23049690  1  0  0.144921  0  0.952775  0  0  0.166104  0  1.009743  0  0  0.167644  0  1.009592  0  0  0.095241  0.164906  0  1.009974  0
H  H29  1  0.50937736  0.70253307  0.26950331  1  0  0.144932  0  0.952716  0  0  0.166103  0  1.009718  0  0  0.167643  0  1.009565  0  0  0.09527  0.164906  0  1.009957  0
H  H30  1  0.00938809  0.79747158  0.76949798  1  0  0.144884  0  0.952719  0  0  0.166139  0  1.009608  0  0  0.167684  0  1.009454  0  0  0.095271  0.16493  0  1.009858  0
H  H31  1  0.49063088  0.29746250  0.73050233  1  0  0.144993  0  0.95259  0  0  0.166168  0  1.009589  0  0  0.167707  0  1.009435  0  0  0.09529  0.164962  0  1.009834  0
H  H32  1  0.20158880  0.28059973  0.22209034  1  0  0.142744  0  0.97638  0  0  0.163631  0  1.034273  0  0  0.163822  0  1.037904  0  0  0.094636  0.163404  0  1.031861  0
H  H33  1  0.29841249  0.78060093  0.27791164  1  0  0.142683  0  0.976388  0  0  0.163595  0  1.034255  0  0  0.163787  0  1.037885  0  0  0.094621  0.163368  0  1.031848  0
H  H34  1  0.79842080  0.71940407  0.77790676  1  0  0.142594  0  0.976503  0  0  0.163578  0  1.034298  0  0  0.163771  0  1.037927  0  0  0.094565  0.16335  0  1.031891  0
H  H35  1  0.70159716  0.21939711  0.72209249  1  0  0.142646  0  0.976457  0  0  0.163591  0  1.034269  0  0  0.163783  0  1.037898  0  0  0.094617  0.163364  0  1.031862  0
H  H36  1  0.13541830  0.23265342  0.34693795  1  0  0.149006  0  0.96608  0  0  0.169496  0  1.024182  0  0  0.170839  0  1.02471  0  0  0.091404  0.168427  0  1.023934  0
H  H37  1  0.36458341  0.73265428  0.15305986  1  0  0.148959  0  0.966125  0  0  0.169444  0  1.024245  0  0  0.170788  0  1.024772  0  0  0.091397  0.168374  0  1.024007  0
H  H38  1  0.86459269  0.76734791  0.65305528  1  0  0.148977  0  0.966161  0  0  0.169487  0  1.024265  0  0  0.170814  0  1.024812  0  0  0.091392  0.168438  0  1.023995  0
H  H39  1  0.63542625  0.26734293  0.84694583  1  0  0.148922  0  0.966229  0  0  0.169445  0  1.024311  0  0  0.170771  0  1.024861  0  0  0.091407  0.168412  0  1.024026  0
H  H40  1  0.58781701  0.03987834  0.30569504  1  0  0.146026  0  0.96216  0  0  0.164156  0  1.024698  0  0  0.165395  0  1.025538  0  0  0.097707  0.163195  0  1.024201  0
H  H41  1  0.91217714  0.53987072  0.19430242  1  0  0.14602  0  0.962135  0  0  0.164145  0  1.024683  0  0  0.165385  0  1.025522  0  0  0.097658  0.163185  0  1.024184  0
H  H42  1  0.41218270  0.96012053  0.69430175  1  0  0.14604  0  0.962064  0  0  0.164168  0  1.024602  0  0  0.165407  0  1.025444  0  0  0.097686  0.163205  0  1.024111  0
H  H43  1  0.08782826  0.46013062  0.80569845  1  0  0.146031  0  0.962201  0  0  0.164147  0  1.024766  0  0  0.165388  0  1.0256  0  0  0.097662  0.163184  0  1.024278  0
H  H44  1  0.48591680  0.14404156  0.38623230  1  0  0.146751  0  0.950904  0  0  0.168157  0  1.007953  0  0  0.169842  0  1.007672  0  0  0.098481  0.166861  0  1.008275  0
H  H45  1  0.01407888  0.64403405  0.11376482  1  0  0.14678  0  0.950915  0  0  0.168176  0  1.007991  0  0  0.169861  0  1.00771  0  0  0.098464  0.166878  0  1.008317  0
H  H46  1  0.51408573  0.85595730  0.61376379  1  0  0.146771  0  0.950981  0  0  0.168173  0  1.008022  0  0  0.169864  0  1.007734  0  0  0.098476  0.166876  0  1.008347  0
H  H47  1  0.98593217  0.35596482  0.88623779  1  0  0.146772  0  0.950911  0  0  0.168193  0  1.007954  0  0  0.169878  0  1.007673  0  0  0.098486  0.166897  0  1.008276  0
H  H48  1  0.56689862  0.17874333  0.26153959  1  0  0.150206  0  0.947381  0  0  0.173975  0  1.000195  0  0  0.175115  0  1.001312  0  0  0.102925  0.173084  0  0.999521  0
H  H49  1  0.93309407  0.67873778  0.23845626  1  0  0.150229  0  0.947393  0  0  0.174018  0  1.000187  0  0  0.175159  0  1.001302  0  0  0.102954  0.173127  0  0.999514  0
H  H50  1  0.43311241  0.82125553  0.73845989  1  0  0.150164  0  0.947261  0  0  0.173917  0  1.000103  0  0  0.175056  0  1.001221  0  0  0.102938  0.173027  0  0.999428  0
H  H51  1  0.06690283  0.32126603  0.76154278  1  0  0.150163  0  0.947259  0  0  0.17392  0  1.000102  0  0  0.175058  0  1.001222  0  0  0.102932  0.173029  0  0.999432  0
C  C52  1  0.15550502  0.98490238  0.32242374  1  0  -0.114977  0  3.770908  0  0  -0.078073  0  4.004755  0  0  -0.082376  0  4.031144  0  0  -0.028518  -0.075202  0  3.986862  0
C  C53  1  0.34449188  0.48490268  0.17757457  1  0  -0.114871  0  3.770859  0  0  -0.077974  0  4.004696  0  0  -0.082277  0  4.031087  0  0  -0.028508  -0.075109  0  3.98681  0
C  C54  1  0.84450452  0.01509895  0.67756555  1  0  -0.115024  0  3.771074  0  0  -0.078067  0  4.004849  0  0  -0.082372  0  4.031243  0  0  -0.028575  -0.075199  0  3.986961  0
C  C55  1  0.65550365  0.51509206  0.82243068  1  0  -0.114952  0  3.770818  0  0  -0.077952  0  4.004516  0  0  -0.082256  0  4.030911  0  0  -0.028524  -0.075085  0  3.986625  0
C  C56  1  0.24315217  0.93818172  0.41310325  1  0  -0.070655  0  3.747329  0  0  -0.088356  0  3.985843  0  0  -0.089357  0  4.007183  0  0  -0.086293  -0.087545  0  3.971302  0
C  C57  1  0.25684523  0.43818004  0.08689793  1  0  -0.07089  0  3.747185  0  0  -0.088589  0  3.985712  0  0  -0.089594  0  4.007051  0  0  -0.086297  -0.087776  0  3.971169  0
C  C58  1  0.75685601  0.06181632  0.58689302  1  0  -0.070772  0  3.746894  0  0  -0.088508  0  3.985417  0  0  -0.089513  0  4.00676  0  0  -0.086326  -0.087698  0  3.970875  0
C  C59  1  0.74313763  0.56181471  0.91311160  1  0  -0.070774  0  3.74684  0  0  -0.088472  0  3.985374  0  0  -0.089475  0  4.006714  0  0  -0.086318  -0.087647  0  3.970814  0
C  C60  1  0.15002435  0.85721379  0.46791996  1  0  -0.070233  0  3.761757  0  0  -0.081621  0  4.007858  0  0  -0.084679  0  4.030835  0  0  -0.092944  -0.0795  0  3.992255  0
C  C61  1  0.34997281  0.35720169  0.03207841  1  0  -0.070038  0  3.7616  0  0  -0.08142  0  4.007604  0  0  -0.084479  0  4.030576  0  0  -0.092854  -0.079297  0  3.992017  0
C  C62  1  0.84998093  0.14279495  0.53206450  1  0  -0.070223  0  3.761551  0  0  -0.081529  0  4.007591  0  0  -0.084599  0  4.03056  0  0  -0.092916  -0.079405  0  3.991997  0
C  C63  1  0.65000724  0.64278729  0.96793493  1  0  -0.070246  0  3.761602  0  0  -0.081582  0  4.007649  0  0  -0.084649  0  4.030624  0  0  -0.092935  -0.079456  0  3.992054  0
C  C64  1  0.96874123  0.82332726  0.43341051  1  0  -0.071273  0  3.762229  0  0  -0.083582  0  4.007094  0  0  -0.085298  0  4.028895  0  0  -0.094152  -0.082258  0  3.992254  0
C  C65  1  0.53124735  0.32332310  0.06659072  1  0  -0.071493  0  3.762706  0  0  -0.083771  0  4.007593  0  0  -0.08549  0  4.0294  0  0  -0.094264  -0.082453  0  3.992754  0
C  C66  1  0.03125420  0.17667325  0.56658067  1  0  -0.071442  0  3.762796  0  0  -0.083715  0  4.007654  0  0  -0.085435  0  4.029465  0  0  -0.094274  -0.082396  0  3.992815  0
C  C67  1  0.46874119  0.67666999  0.93342368  1  0  -0.071396  0  3.762645  0  0  -0.083692  0  4.007516  0  0  -0.08541  0  4.02932  0  0  -0.094217  -0.082385  0  3.992697  0
C  C68  1  0.88023611  0.87036740  0.34363026  1  0  -0.074061  0  3.773765  0  0  -0.083889  0  4.016222  0  0  -0.086386  0  4.037792  0  0  -0.094508  -0.082165  0  4.001628  0
C  C69  1  0.61975341  0.37036112  0.15636970  1  0  -0.073965  0  3.773781  0  0  -0.083765  0  4.016163  0  0  -0.08627  0  4.037738  0  0  -0.094435  -0.082023  0  4.001563  0
C  C70  1  0.11976353  0.12964052  0.65635637  1  0  -0.07394  0  3.774278  0  0  -0.083704  0  4.016675  0  0  -0.086201  0  4.038249  0  0  -0.094383  -0.081994  0  4.002075  0
C  C71  1  0.38023226  0.62963280  0.84363914  1  0  -0.073892  0  3.77417  0  0  -0.083713  0  4.016579  0  0  -0.086211  0  4.038157  0  0  -0.094428  -0.081985  0  4.001971  0
C  C72  1  0.97347843  0.94988200  0.28763932  1  0  -0.080654  0  3.757245  0  0  -0.097575  0  3.996688  0  0  -0.099513  0  4.019209  0  0  -0.089921  -0.09613  0  3.981424  0
C  C73  1  0.52651411  0.44988285  0.21236274  1  0  -0.080624  0  3.757187  0  0  -0.097477  0  3.996652  0  0  -0.099438  0  4.019163  0  0  -0.089845  -0.096031  0  3.981381  0
C  C74  1  0.02652692  0.05011604  0.71235608  1  0  -0.080861  0  3.75761  0  0  -0.097775  0  3.997035  0  0  -0.099721  0  4.019551  0  0  -0.089968  -0.096336  0  3.981785  0
C  C75  1  0.47347722  0.55011930  0.78764783  1  0  -0.080841  0  3.757579  0  0  -0.097705  0  3.997026  0  0  -0.099662  0  4.019543  0  0  -0.089979  -0.096262  0  3.981762  0
C  C76  1  0.13571084  0.21305677  0.26348056  1  0  -0.475009  0  3.637149  0  0  -0.53555  0  3.864399  0  0  -0.540597  0  3.874189  0  0  -0.252408  -0.531808  0  3.857758  0
C  C77  1  0.36428341  0.71305404  0.23651691  1  0  -0.474937  0  3.637342  0  0  -0.535458  0  3.864512  0  0  -0.540509  0  3.874314  0  0  -0.252386  -0.531717  0  3.857887  0
C  C78  1  0.86429590  0.78694868  0.73651098  1  0  -0.474873  0  3.637325  0  0  -0.53554  0  3.864412  0  0  -0.540578  0  3.874223  0  0  -0.252327  -0.531808  0  3.857753  0
C  C79  1  0.63572343  0.28694565  0.76348947  1  0  -0.474969  0  3.637416  0  0  -0.535542  0  3.864561  0  0  -0.540571  0  3.874365  0  0  -0.252421  -0.531831  0  3.857894  0
C  C80  1  0.49979248  0.11399504  0.30618324  1  0  -0.47204  0  3.626373  0  0  -0.533008  0  3.854807  0  0  -0.537328  0  3.862586  0  0  -0.244399  -0.529803  0  3.849568  0
C  C81  1  0.00019978  0.61399123  0.19381438  1  0  -0.47209  0  3.626399  0  0  -0.533078  0  3.854807  0  0  -0.537397  0  3.862583  0  0  -0.244353  -0.529869  0  3.849565  0
C  C82  1  0.50021570  0.88600465  0.69381225  1  0  -0.472077  0  3.626263  0  0  -0.533008  0  3.854683  0  0  -0.537332  0  3.862455  0  0  -0.244397  -0.529802  0  3.849446  0
C  C83  1  0.99979997  0.38601505  0.80618865  1  0  -0.472006  0  3.626258  0  0  -0.533014  0  3.854746  0  0  -0.537332  0  3.862526  0  0  -0.244364  -0.529802  0  3.849486  0
Cl  Cl84  1  0.41374211  0.09131819  0.89688555  1  0  -0.513161  0  1.073741  0  0  -0.441464  0  1.363213  0  0  -0.459443  0  1.344316  0  0  -0.281229  -0.428489  0  1.375782  0
Cl  Cl85  1  0.08626423  0.59131850  0.60311320  1  0  -0.513158  0  1.073756  0  0  -0.44144  0  1.363196  0  0  -0.459418  0  1.344295  0  0  -0.281228  -0.428492  0  1.375808  0
Cl  Cl86  1  0.58626039  0.90868315  0.10310663  1  0  -0.51317  0  1.0738  0  0  -0.441455  0  1.363235  0  0  -0.459432  0  1.344334  0  0  -0.281241  -0.428475  0  1.375793  0
Cl  Cl87  1  0.91373695  0.40867707  0.39689144  1  0  -0.513177  0  1.073752  0  0  -0.441443  0  1.363156  0  0  -0.459421  0  1.34426  0  0  -0.281241  -0.428495  0  1.375761  0
Cl  Cl88  1  0.06607880  0.85412162  0.99695443  1  0  -0.52358  0  0.988484  0  0  -0.454169  0  1.261079  0  0  -0.471758  0  1.242685  0  0  -0.303776  -0.441496  0  1.273424  0
Cl  Cl89  1  0.43391731  0.35412225  0.50304627  1  0  -0.523575  0  0.988497  0  0  -0.454155  0  1.261066  0  0  -0.471745  0  1.242673  0  0  -0.303768  -0.441483  0  1.273404  0
Cl  Cl90  1  0.93391952  0.14587807  0.00304544  1  0  -0.523563  0  0.988465  0  0  -0.454144  0  1.261053  0  0  -0.471733  0  1.242659  0  0  -0.30377  -0.441477  0  1.273399  0
Cl  Cl91  1  0.56608664  0.64587579  0.49695065  1  0  -0.523547  0  0.98847  0  0  -0.454131  0  1.261048  0  0  -0.47172  0  1.242655  0  0  -0.303763  -0.441457  0  1.273391  0
