# generated using pymatgen
data_ErH13(C4O3)4
_symmetry_space_group_name_H-M   'P 1'
_cell_length_a   7.16199158
_cell_length_b   10.84727461
_cell_length_c   11.07945218
_cell_angle_alpha   85.91954637
_cell_angle_beta   78.38292595
_cell_angle_gamma   78.48410393
_symmetry_Int_Tables_number   1
_chemical_formula_structural   ErH13(C4O3)4
_chemical_formula_sum   'Er2 H26 C32 O24'
_cell_volume   825.70729876
_cell_formula_units_Z   2
loop_
 _symmetry_equiv_pos_site_id
 _symmetry_equiv_pos_as_xyz
  1  'x, y, z'
loop_
 _atom_site_type_symbol
 _atom_site_label
 _atom_site_symmetry_multiplicity
 _atom_site_fract_x
 _atom_site_fract_y
 _atom_site_fract_z
 _atom_site_occupancy
 _atom_site_hle17_bader_spin_density
 _atom_site_hle17_ddec_charge
 _atom_site_hle17_ddec_spin_density
 _atom_site_hle17_ddec_sum_bond_order
 _atom_site_hle17_magmom
 _atom_site_hse06_10hf_bader_spin_density
 _atom_site_hse06_10hf_ddec_charge
 _atom_site_hse06_10hf_ddec_spin_density
 _atom_site_hse06_10hf_ddec_sum_bond_order
 _atom_site_hse06_10hf_magmom
 _atom_site_hse06_bader_spin_density
 _atom_site_hse06_ddec_charge
 _atom_site_hse06_ddec_spin_density
 _atom_site_hse06_ddec_sum_bond_order
 _atom_site_hse06_magmom
 _atom_site_pbe_bader_spin_density
 _atom_site_pbe_cm5_charge
 _atom_site_pbe_ddec_charge
 _atom_site_pbe_ddec_spin_density
 _atom_site_pbe_ddec_sum_bond_order
 _atom_site_pbe_magmom
Er  Er0  1  0.16897957  0.24471638  0.43555905  1  0  2.208499  0  1.573764  0  0  2.062755  0  2.049647  0  0  2.110362  0  2.011934  0  0  1.475201  2.026815  0  2.079492  0
Er  Er1  1  0.83108194  0.75527076  0.56438116  1  0  2.208008  0  1.574054  0  0  2.062136  0  2.050257  0  0  2.109785  0  2.012491  0  0  1.474984  2.02618  0  2.080103  0
H  H2  1  0.67404622  0.23546586  0.70599246  1  0  0.440171  0  0.746821  0  0  0.420587  0  0.799427  0  0  0.430604  0  0.789206  0  0  0.364465  0.413301  0  0.80709  0
H  H3  1  0.32593817  0.76454977  0.29397668  1  0  0.439953  0  0.747101  0  0  0.420381  0  0.799646  0  0  0.430397  0  0.789439  0  0  0.364451  0.413105  0  0.807279  0
H  H4  1  0.95201324  0.42326568  0.62367912  1  0  0.447815  0  0.84481  0  0  0.418738  0  0.905446  0  0  0.429379  0  0.889964  0  0  0.306635  0.411298  0  0.916251  0
H  H5  1  0.04795814  0.57671791  0.37626947  1  0  0.447679  0  0.845019  0  0  0.418532  0  0.905783  0  0  0.429178  0  0.89029  0  0  0.306602  0.411088  0  0.916595  0
H  H6  1  0.82758804  0.43107877  0.52395152  1  0  0.439207  0  0.839548  0  0  0.414049  0  0.902087  0  0  0.424427  0  0.886698  0  0  0.31346  0.406679  0  0.913039  0
H  H7  1  0.17238480  0.56890952  0.47599837  1  0  0.4393  0  0.839566  0  0  0.414019  0  0.902179  0  0  0.42442  0  0.886763  0  0  0.313372  0.406643  0  0.913138  0
H  H8  1  0.61630602  0.16567920  0.41025595  1  0  0.456673  0  0.822132  0  0  0.426906  0  0.882657  0  0  0.437975  0  0.866343  0  0  0.308912  0.419026  0  0.894266  0
H  H9  1  0.38387157  0.83438640  0.58959529  1  0  0.456457  0  0.822483  0  0  0.426803  0  0.882754  0  0  0.437873  0  0.866437  0  0  0.309021  0.418919  0  0.894369  0
H  H10  1  0.52206656  0.05240694  0.38829109  1  0  0.441437  0  0.817917  0  0  0.420208  0  0.878059  0  0  0.428035  0  0.867627  0  0  0.329359  0.414672  0  0.884288  0
H  H11  1  0.47796591  0.94717326  0.61295316  1  0  0.440835  0  0.818215  0  0  0.419809  0  0.877915  0  0  0.427601  0  0.868036  0  0  0.328989  0.414289  0  0.884107  0
H  H12  1  0.39003325  0.39076583  0.54793667  1  0  0.458062  0  0.832097  0  0  0.42837  0  0.891663  0  0  0.438663  0  0.876544  0  0  0.31473  0.421236  0  0.902185  0
H  H13  1  0.60994033  0.60922077  0.45206019  1  0  0.458143  0  0.832046  0  0  0.42854  0  0.89146  0  0  0.438826  0  0.876343  0  0  0.314801  0.421401  0  0.901994  0
H  H14  1  0.42362156  0.44033062  0.40854080  1  0  0.446352  0  0.84531  0  0  0.418921  0  0.901471  0  0  0.428784  0  0.887122  0  0  0.316098  0.411941  0  0.911637  0
H  H15  1  0.57637689  0.55965312  0.59146049  1  0  0.446595  0  0.845003  0  0  0.419  0  0.901377  0  0  0.428861  0  0.887036  0  0  0.316127  0.412018  0  0.911546  0
H  H16  1  0.22304237  0.83289865  0.07413807  1  0  0.111873  0  0.969484  0  0  0.11971  0  1.035341  0  0  0.123072  0  1.033446  0  0  0.104818  0.117282  0  1.036744  0
H  H17  1  0.77695817  0.16708117  0.92582443  1  0  0.11169  0  0.969654  0  0  0.11965  0  1.035328  0  0  0.122995  0  1.033478  0  0  0.104719  0.117201  0  1.036778  0
H  H18  1  0.33681804  0.03656075  0.05004645  1  0  0.105486  0  0.940813  0  0  0.116238  0  0.997216  0  0  0.119428  0  0.995688  0  0  0.10722  0.113885  0  0.998612  0
H  H19  1  0.66318512  0.96341439  0.94992238  1  0  0.105682  0  0.940793  0  0  0.116376  0  0.997273  0  0  0.119547  0  0.995788  0  0  0.107279  0.114032  0  0.998643  0
H  H20  1  0.31291487  0.16851786  0.85680735  1  0  0.096326  0  0.975448  0  0  0.101126  0  1.049185  0  0  0.104461  0  1.046795  0  0  0.098486  0.098697  0  1.050924  0
H  H21  1  0.68710044  0.83146387  0.14316769  1  0  0.096229  0  0.975436  0  0  0.101104  0  1.049085  0  0  0.104432  0  1.046704  0  0  0.098505  0.098678  0  1.050824  0
H  H22  1  0.43074986  0.29862772  0.01224186  1  0  0.122024  0  0.936149  0  0  0.129523  0  1.001379  0  0  0.132781  0  0.999231  0  0  0.114706  0.127209  0  1.002576  0
H  H23  1  0.56925991  0.70137667  0.98775120  1  0  0.121983  0  0.936192  0  0  0.129448  0  1.001484  0  0  0.1327  0  0.999339  0  0  0.114714  0.12713  0  1.002683  0
H  H24  1  0.28350332  0.61087062  0.75968019  1  0  0.137414  0  0.931228  0  0  0.141022  0  0.999951  0  0  0.145903  0  0.99514  0  0  0.119334  0.137421  0  1.003738  0
H  H25  1  0.71648246  0.38913940  0.24029820  1  0  0.137213  0  0.931179  0  0  0.140681  0  1.000023  0  0  0.145558  0  0.995225  0  0  0.119244  0.137095  0  1.003821  0
H  H26  1  0.02460591  0.63294223  0.14421448  1  0  0.133606  0  0.925021  0  0  0.140861  0  0.989772  0  0  0.144925  0  0.986736  0  0  0.115709  0.137848  0  0.992191  0
H  H27  1  0.97538973  0.36707341  0.85575963  1  0  0.133732  0  0.925169  0  0  0.140961  0  0.989924  0  0  0.145028  0  0.986882  0  0  0.11578  0.137946  0  0.992344  0
C  C28  1  0.17026899  0.12205964  0.66334595  1  0  0.610379  0  3.980848  0  0  0.569748  0  4.265912  0  0  0.603353  0  4.25852  0  0  0.182957  0.547197  0  4.269922  0
C  C29  1  0.82974096  0.87795214  0.33661136  1  0  0.610259  0  3.980335  0  0  0.569667  0  4.265357  0  0  0.603272  0  4.25797  0  0  0.182954  0.547128  0  4.269376  0
C  C30  1  0.02128907  0.87877419  0.69805536  1  0  0.697815  0  3.895132  0  0  0.642796  0  4.20496  0  0  0.679217  0  4.191647  0  0  0.201383  0.618106  0  4.21322  0
C  C31  1  0.97867728  0.12123109  0.30190224  1  0  0.698253  0  3.895045  0  0  0.643095  0  4.205092  0  0  0.679517  0  4.191769  0  0  0.201563  0.618404  0  4.213373  0
C  C32  1  0.18117618  0.04134974  0.77770421  1  0  -0.083747  0  3.767922  0  0  -0.067577  0  4.001187  0  0  -0.074157  0  4.022629  0  0  -0.022066  -0.063476  0  3.986962  0
C  C33  1  0.81883154  0.95864039  0.22225038  1  0  -0.083385  0  3.767492  0  0  -0.067261  0  4.000609  0  0  -0.073874  0  4.022101  0  0  -0.021963  -0.063191  0  3.986429  0
C  C34  1  0.11184710  0.92717539  0.79227054  1  0  -0.135061  0  3.67266  0  0  -0.127325  0  3.90929  0  0  -0.13168  0  3.926498  0  0  -0.006495  -0.124535  0  3.897813  0
C  C35  1  0.88814683  0.07281762  0.20769093  1  0  -0.134679  0  3.672732  0  0  -0.1267  0  3.90912  0  0  -0.131051  0  3.926345  0  0  -0.006299  -0.123908  0  3.897668  0
C  C36  1  0.12865225  0.85445150  0.90046152  1  0  0.249049  0  3.756381  0  0  0.23576  0  4.016971  0  0  0.243398  0  4.034026  0  0  0.08819  0.230504  0  4.005464  0
C  C37  1  0.87132807  0.14554436  0.09950048  1  0  0.248818  0  3.756172  0  0  0.235464  0  4.016823  0  0  0.243082  0  4.03387  0  0  0.088052  0.230214  0  4.005318  0
C  C38  1  0.21453341  0.89124555  0.99076441  1  0  -0.153924  0  3.732579  0  0  -0.180624  0  3.992996  0  0  -0.183289  0  4.011955  0  0  -0.09161  -0.178651  0  3.980194  0
C  C39  1  0.78546011  0.10874371  0.00920008  1  0  -0.153655  0  3.73222  0  0  -0.180402  0  3.992656  0  0  -0.183067  0  4.011612  0  0  -0.091299  -0.178426  0  3.979844  0
C  C40  1  0.27987763  0.00482834  0.97613730  1  0  -0.03633  0  3.747335  0  0  -0.050038  0  4.003939  0  0  -0.050853  0  4.022202  0  0  -0.081933  -0.049807  0  3.991868  0
C  C41  1  0.72013420  0.99514676  0.02382598  1  0  -0.036455  0  3.747044  0  0  -0.05012  0  4.003737  0  0  -0.050941  0  4.021987  0  0  -0.082074  -0.049875  0  3.991654  0
C  C42  1  0.26340113  0.07935619  0.86986593  1  0  -0.064971  0  3.721754  0  0  -0.098576  0  3.985964  0  0  -0.097115  0  4.002923  0  0  -0.089121  -0.099379  0  3.974714  0
C  C43  1  0.73661728  0.92063020  0.13010209  1  0  -0.065176  0  3.722123  0  0  -0.098825  0  3.986307  0  0  -0.097349  0  4.003274  0  0  -0.089298  -0.099616  0  3.975059  0
C  C44  1  0.20645321  0.39783493  0.21601587  1  0  0.639022  0  3.926851  0  0  0.590127  0  4.219636  0  0  0.624145  0  4.211942  0  0  0.193925  0.567511  0  4.223665  0
C  C45  1  0.79355046  0.60219670  0.78396427  1  0  0.639022  0  3.926672  0  0  0.590096  0  4.219388  0  0  0.624115  0  4.211702  0  0  0.193975  0.567485  0  4.223393  0
C  C46  1  0.49258656  0.38016611  0.76515419  1  0  0.690717  0  3.755835  0  0  0.630872  0  4.059754  0  0  0.666184  0  4.048811  0  0  0.258409  0.607078  0  4.066492  0
C  C47  1  0.50740355  0.61984480  0.23481099  1  0  0.691212  0  3.754587  0  0  0.631271  0  4.058742  0  0  0.666574  0  4.047818  0  0  0.258596  0.607454  0  4.065516  0
C  C48  1  0.22942982  0.46037484  0.09041380  1  0  -0.052846  0  3.74913  0  0  -0.025689  0  3.983795  0  0  -0.035284  0  4.007294  0  0  -0.014594  -0.019603  0  3.967509  0
C  C49  1  0.77057345  0.53964361  0.90956370  1  0  -0.053357  0  3.749282  0  0  -0.025932  0  3.983595  0  0  -0.035544  0  4.007102  0  0  -0.014745  -0.019849  0  3.967307  0
C  C50  1  0.35384172  0.39286534  0.99316046  1  0  -0.047368  0  3.651923  0  0  -0.090466  0  3.905929  0  0  -0.086243  0  3.925243  0  0  -0.065731  -0.09144  0  3.890937  0
C  C51  1  0.64616307  0.60714748  0.00682087  1  0  -0.047023  0  3.651296  0  0  -0.09015  0  3.90524  0  0  -0.085902  0  3.92453  0  0  -0.065641  -0.091118  0  3.890246  0
C  C52  1  0.37364096  0.44662443  0.87374623  1  0  -0.090202  0  3.805591  0  0  -0.065106  0  4.047503  0  0  -0.07765  0  4.073253  0  0  -0.017604  -0.057353  0  4.030044  0
C  C53  1  0.62635090  0.55337340  0.12624312  1  0  -0.090434  0  3.805322  0  0  -0.065393  0  4.047405  0  0  -0.077942  0  4.073157  0  0  -0.017771  -0.05763  0  4.029955  0
C  C54  1  0.27300886  0.56838309  0.85209681  1  0  -0.107397  0  3.644828  0  0  -0.150917  0  3.906375  0  0  -0.147939  0  3.921439  0  0  -0.06789  -0.153582  0  3.897331  0
C  C55  1  0.72699277  0.43162216  0.14787099  1  0  -0.107147  0  3.644784  0  0  -0.15044  0  3.906232  0  0  -0.147454  0  3.921289  0  0  -0.067662  -0.153143  0  3.897243  0
C  C56  1  0.15106385  0.63471849  0.94963442  1  0  0.256907  0  3.781231  0  0  0.25453  0  4.045354  0  0  0.25889  0  4.062909  0  0  0.088624  0.251234  0  4.033885  0
C  C57  1  0.84892988  0.36528397  0.05033994  1  0  0.257041  0  3.780665  0  0  0.254713  0  4.044729  0  0  0.259054  0  4.062273  0  0  0.088639  0.251396  0  4.033302  0
C  C58  1  0.12592404  0.58166616  0.06904064  1  0  -0.133211  0  3.64626  0  0  -0.174193  0  3.904673  0  0  -0.172966  0  3.92215  0  0  -0.073428  -0.175296  0  3.893208  0
C  C59  1  0.87406254  0.41834665  0.93093025  1  0  -0.13329  0  3.646111  0  0  -0.174373  0  3.904468  0  0  -0.173139  0  3.921943  0  0  -0.073527  -0.175467  0  3.893008  0
O  O60  1  0.22355351  0.22841745  0.65279211  1  0  -0.67783  0  1.951334  0  0  -0.628892  0  2.186384  0  0  -0.65371  0  2.178587  0  0  -0.372571  -0.61129  0  2.191069  0
O  O61  1  0.77627098  0.77164396  0.34724900  1  0  -0.678034  0  1.95098  0  0  -0.628968  0  2.185925  0  0  -0.653792  0  2.178122  0  0  -0.372844  -0.611367  0  2.190606  0
O  O62  1  0.11145768  0.08034407  0.57502893  1  0  -0.6832  0  2.000393  0  0  -0.634624  0  2.23768  0  0  -0.659028  0  2.229976  0  0  -0.386827  -0.617329  0  2.242224  0
O  O63  1  0.88872803  0.91961917  0.42487909  1  0  -0.683116  0  2.000426  0  0  -0.634592  0  2.237766  0  0  -0.658995  0  2.230053  0  0  -0.386704  -0.617291  0  2.242303  0
O  O64  1  0.84003167  0.91059286  0.70124791  1  0  -0.670889  0  1.919036  0  0  -0.625611  0  2.152342  0  0  -0.64996  0  2.142467  0  0  -0.378957  -0.608482  0  2.158899  0
O  O65  1  0.15993894  0.08944811  0.29869674  1  0  -0.671176  0  1.919187  0  0  -0.625869  0  2.152524  0  0  -0.650209  0  2.142642  0  0  -0.379119  -0.608734  0  2.159089  0
O  O66  1  0.12928242  0.79584827  0.62366675  1  0  -0.708463  0  1.90589  0  0  -0.654661  0  2.136866  0  0  -0.679972  0  2.124873  0  0  -0.361565  -0.636626  0  2.144573  0
O  O67  1  0.87066588  0.20413452  0.37630543  1  0  -0.708815  0  1.90583  0  0  -0.654845  0  2.136789  0  0  -0.68016  0  2.124802  0  0  -0.36163  -0.636812  0  2.144508  0
O  O68  1  0.06040403  0.43898427  0.30088018  1  0  -0.707454  0  1.975063  0  0  -0.650014  0  2.207851  0  0  -0.675245  0  2.198873  0  0  -0.353972  -0.632248  0  2.213342  0
O  O69  1  0.93957411  0.56101822  0.69909245  1  0  -0.707358  0  1.974732  0  0  -0.649938  0  2.207489  0  0  -0.675164  0  2.198518  0  0  -0.353992  -0.632178  0  2.212969  0
O  O70  1  0.33291788  0.30238027  0.23590250  1  0  -0.678078  0  1.985957  0  0  -0.63134  0  2.226806  0  0  -0.65633  0  2.220647  0  0  -0.373802  -0.613954  0  2.230441  0
O  O71  1  0.66712867  0.69767953  0.76408494  1  0  -0.678037  0  1.98613  0  0  -0.631273  0  2.226909  0  0  -0.656269  0  2.220767  0  0  -0.373818  -0.613892  0  2.230536  0
O  O72  1  0.59815370  0.26706786  0.78584450  1  0  -0.513896  0  2.075739  0  0  -0.455735  0  2.285597  0  0  -0.476887  0  2.270473  0  0  -0.294928  -0.441061  0  2.295959  0
O  O73  1  0.40181778  0.73292244  0.21413700  1  0  -0.513846  0  2.076323  0  0  -0.455558  0  2.286231  0  0  -0.476711  0  2.271096  0  0  -0.294924  -0.440883  0  2.296608  0
O  O74  1  0.49735956  0.42583725  0.65889879  1  0  -0.594346  0  2.077846  0  0  -0.534591  0  2.299332  0  0  -0.555879  0  2.285691  0  0  -0.279174  -0.520089  0  2.308572  0
O  O75  1  0.50265810  0.57416812  0.34110860  1  0  -0.59463  0  2.076194  0  0  -0.53503  0  2.297819  0  0  -0.55632  0  2.284185  0  0  -0.279383  -0.520516  0  2.307085  0
O  O76  1  0.03926535  0.74971581  0.92246865  1  0  -0.312118  0  2.342434  0  0  -0.246131  0  2.570579  0  0  -0.262619  0  2.575823  0  0  -0.15915  -0.234592  0  2.566717  0
O  O77  1  0.96072132  0.25028195  0.07750148  1  0  -0.312103  0  2.342072  0  0  -0.246151  0  2.570185  0  0  -0.262613  0  2.575448  0  0  -0.159037  -0.234597  0  2.566314  0
O  O78  1  0.91806075  0.36998356  0.56466578  1  0  -0.92082  0  1.921766  0  0  -0.879765  0  2.12973  0  0  -0.898494  0  2.098016  0  0  -0.651372  -0.866197  0  2.151574  0
O  O79  1  0.08192136  0.63000752  0.43527919  1  0  -0.920782  0  1.92199  0  0  -0.879541  0  2.130062  0  0  -0.898314  0  2.098309  0  0  -0.651267  -0.865956  0  2.15189  0
O  O80  1  0.49303228  0.13297683  0.42811985  1  0  -0.894867  0  1.86641  0  0  -0.847533  0  2.058879  0  0  -0.864932  0  2.030352  0  0  -0.621666  -0.834992  0  2.077608  0
O  O81  1  0.50698663  0.86726949  0.57190744  1  0  -0.893749  0  1.86683  0  0  -0.846351  0  2.05905  0  0  -0.863755  0  2.031005  0  0  -0.620867  -0.833811  0  2.077759  0
O  O82  1  0.33490761  0.40024582  0.47196415  1  0  -0.921593  0  1.928916  0  0  -0.863493  0  2.121408  0  0  -0.883775  0  2.090851  0  0  -0.638246  -0.849004  0  2.14236  0
O  O83  1  0.66502481  0.59980956  0.52803553  1  0  -0.922082  0  1.928762  0  0  -0.863977  0  2.12164  0  0  -0.88423  0  2.09105  0  0  -0.638425  -0.849498  0  2.142598  0
