# generated using pymatgen
data_DyAgH8C14(NO4)2
_symmetry_space_group_name_H-M   'P 1'
_cell_length_a   9.10335227
_cell_length_b   9.77424021
_cell_length_c   22.06769722
_cell_angle_alpha   90.00013223
_cell_angle_beta   90.00008149
_cell_angle_gamma   118.32688893
_symmetry_Int_Tables_number   1
_chemical_formula_structural   DyAgH8C14(NO4)2
_chemical_formula_sum   'Dy4 Ag4 H32 C56 N8 O32'
_cell_volume   1728.42189304
_cell_formula_units_Z   4
loop_
 _symmetry_equiv_pos_site_id
 _symmetry_equiv_pos_as_xyz
  1  'x, y, z'
loop_
 _atom_site_type_symbol
 _atom_site_label
 _atom_site_symmetry_multiplicity
 _atom_site_fract_x
 _atom_site_fract_y
 _atom_site_fract_z
 _atom_site_occupancy
 _atom_site_hle17_bader_spin_density
 _atom_site_hle17_ddec_charge
 _atom_site_hle17_ddec_spin_density
 _atom_site_hle17_ddec_sum_bond_order
 _atom_site_hle17_magmom
 _atom_site_hse06_10hf_bader_charge
 _atom_site_hse06_10hf_bader_spin_density
 _atom_site_hse06_10hf_ddec_charge
 _atom_site_hse06_10hf_ddec_spin_density
 _atom_site_hse06_10hf_ddec_sum_bond_order
 _atom_site_hse06_10hf_magmom
 _atom_site_hse06_bader_spin_density
 _atom_site_hse06_ddec_charge
 _atom_site_hse06_ddec_spin_density
 _atom_site_hse06_ddec_sum_bond_order
 _atom_site_hse06_magmom
 _atom_site_pbe_bader_spin_density
 _atom_site_pbe_cm5_charge
 _atom_site_pbe_ddec_charge
 _atom_site_pbe_ddec_spin_density
 _atom_site_pbe_ddec_sum_bond_order
 _atom_site_pbe_magmom
Dy  Dy0  1  0.38271854  0.64978120  0.99120627  1  0  2.256221  0  1.653632  0  2.218972  0  2.111476  0  2.131156  0  0  2.239107  0  1.940753  0  0  1.503328  2.075055  0  2.163514  0
Dy  Dy1  1  0.11728637  0.35022295  0.49120960  1  0  2.25617  0  1.653655  0  2.21891  0  2.111433  0  2.131164  0  0  2.239054  0  1.940781  0  0  1.503315  2.075011  0  2.16352  0
Dy  Dy2  1  0.61728326  0.35021788  0.00879104  1  0  2.256181  0  1.653649  0  2.218928  0  2.111483  0  2.131089  0  0  2.239063  0  1.940771  0  0  1.503325  2.075055  0  2.163455  0
Dy  Dy3  1  0.88272297  0.64978892  0.50879450  1  0  2.256225  0  1.65373  0  2.218968  0  2.111487  0  2.131261  0  0  2.239115  0  1.940859  0  0  1.503335  2.075057  0  2.163619  0
Ag  Ag4  1  0.97719836  0.30697034  0.14988151  1  0  0.525683  0  1.367194  0  0.577944  0  0.365442  0  1.779003  0  0  0.399883  0  1.735312  0  0  0.477986  0.343172  0  1.808857  0
Ag  Ag5  1  0.52279562  0.69303296  0.64988118  1  0  0.525635  0  1.367238  0  0.577906  0  0.365369  0  1.779056  0  0  0.39981  0  1.735366  0  0  0.477972  0.343102  0  1.808906  0
Ag  Ag6  1  0.02279339  0.69302403  0.85012033  1  0  0.525637  0  1.367244  0  0.577866  0  0.365375  0  1.779056  0  0  0.399816  0  1.735368  0  0  0.477944  0.343109  0  1.808901  0
Ag  Ag7  1  0.47720145  0.30697419  0.35012020  1  0  0.525669  0  1.367191  0  0.57793  0  0.365413  0  1.779014  0  0  0.399854  0  1.735324  0  0  0.477969  0.343141  0  1.808869  0
H  H8  1  0.07025583  0.76622708  0.06840401  1  0  0.111464  0  0.950482  0  0.141356  0  0.120754  0  1.013603  0  0  0.123506  0  1.011384  0  0  0.115576  0.118727  0  1.015212  0
H  H9  1  0.42974081  0.23377451  0.56839983  1  0  0.111438  0  0.950508  0  0.141287  0  0.120789  0  1.013594  0  0  0.12351  0  1.01141  0  0  0.115602  0.118767  0  1.015202  0
H  H10  1  0.92973761  0.23376846  0.93159918  1  0  0.111459  0  0.950477  0  0.141351  0  0.120797  0  1.013577  0  0  0.123516  0  1.011397  0  0  0.115576  0.118773  0  1.015186  0
H  H11  1  0.57024932  0.76622101  0.43159566  1  0  0.111433  0  0.950504  0  0.141325  0  0.120762  0  1.013593  0  0  0.123494  0  1.011394  0  0  0.115572  0.118738  0  1.015204  0
H  H12  1  0.28614942  0.97741493  0.13270179  1  0  0.12322  0  0.932947  0  0.112584  0  0.135759  0  0.984219  0  0  0.139506  0  0.982214  0  0  0.116817  0.133094  0  0.985598  0
H  H13  1  0.21384786  0.02259185  0.63269817  1  0  0.123184  0  0.932932  0  0.11253  0  0.135716  0  0.984215  0  0  0.139459  0  0.982217  0  0  0.116802  0.133055  0  0.985594  0
H  H14  1  0.71384635  0.02258526  0.86730005  1  0  0.123267  0  0.932906  0  0.11256  0  0.135818  0  0.984152  0  0  0.139566  0  0.982148  0  0  0.116829  0.133154  0  0.985533  0
H  H15  1  0.78614350  0.97740831  0.36729777  1  0  0.12329  0  0.932922  0  0.112631  0  0.135796  0  0.984219  0  0  0.139573  0  0.982178  0  0  0.116832  0.133134  0  0.985598  0
H  H16  1  0.23700803  0.19702482  0.16499292  1  0  0.063587  0  0.969597  0  0.091494  0  0.074052  0  1.036464  0  0  0.075507  0  1.034748  0  0  0.111589  0.072909  0  1.037691  0
H  H17  1  0.26298114  0.80297870  0.66499012  1  0  0.063539  0  0.969725  0  0.091502  0  0.074048  0  1.036531  0  0  0.075502  0  1.034817  0  0  0.111586  0.072905  0  1.03776  0
H  H18  1  0.76298107  0.80297301  0.83500801  1  0  0.063512  0  0.969724  0  0.091415  0  0.07399  0  1.036571  0  0  0.075443  0  1.034858  0  0  0.111561  0.072845  0  1.037801  0
H  H19  1  0.73700691  0.19702143  0.33500627  1  0  0.063535  0  0.969634  0  0.091512  0  0.074043  0  1.036457  0  0  0.075497  0  1.034743  0  0  0.111572  0.072901  0  1.037686  0
H  H20  1  0.79580755  0.02414025  0.06653868  1  0  0.097753  0  0.936833  0  0.127001  0  0.107699  0  0.999127  0  0  0.110392  0  0.996202  0  0  0.124807  0.105808  0  1.000848  0
H  H21  1  0.70419012  0.97586004  0.56654011  1  0  0.097833  0  0.936797  0  0.12705  0  0.107766  0  0.999097  0  0  0.110447  0  0.996185  0  0  0.124838  0.105874  0  1.000816  0
H  H22  1  0.20418751  0.97585415  0.93346044  1  0  0.09784  0  0.936816  0  0.126992  0  0.107754  0  0.999131  0  0  0.110445  0  0.996209  0  0  0.124829  0.105865  0  1.000845  0
H  H23  1  0.29580228  0.02413781  0.43345992  1  0  0.097739  0  0.936838  0  0.126966  0  0.107683  0  0.999128  0  0  0.110379  0  0.9962  0  0  0.124782  0.105785  0  1.000851  0
H  H24  1  0.01124523  0.34642863  0.28406471  1  0  0.088833  0  0.936517  0  0.111369  0  0.097755  0  1.000603  0  0  0.101537  0  0.995772  0  0  0.120864  0.095177  0  1.003748  0
H  H25  1  0.48876142  0.65357606  0.78406235  1  0  0.088767  0  0.936508  0  0.111521  0  0.097672  0  1.000625  0  0  0.101455  0  0.995793  0  0  0.120835  0.095094  0  1.003768  0
H  H26  1  0.98876391  0.65357630  0.71593939  1  0  0.088805  0  0.936462  0  0.111546  0  0.097705  0  1.000582  0  0  0.101488  0  0.99575  0  0  0.120864  0.095127  0  1.003725  0
H  H27  1  0.51124383  0.34642768  0.21593858  1  0  0.088744  0  0.936495  0  0.111527  0  0.097663  0  1.000605  0  0  0.101447  0  0.995772  0  0  0.120826  0.095085  0  1.00375  0
H  H28  1  0.90233022  0.70725880  0.34319593  1  0  0.131102  0  0.922454  0  0.156664  0  0.14063  0  0.980213  0  0  0.144934  0  0.975691  0  0  0.124234  0.137421  0  0.983602  0
H  H29  1  0.59766392  0.29273690  0.84318799  1  0  0.131094  0  0.92254  0  0.156517  0  0.140707  0  0.980209  0  0  0.144952  0  0.975756  0  0  0.124305  0.137496  0  0.983595  0
H  H30  1  0.09767892  0.29274612  0.65680863  1  0  0.131159  0  0.922503  0  0.15647  0  0.140736  0  0.980205  0  0  0.145008  0  0.975719  0  0  0.124318  0.137528  0  0.983593  0
H  H31  1  0.40232945  0.70725632  0.15680615  1  0  0.131158  0  0.922457  0  0.15661  0  0.140695  0  0.980198  0  0  0.144996  0  0.975679  0  0  0.124284  0.137485  0  0.983586  0
H  H32  1  0.85890219  0.75136035  0.23255548  1  0  0.106063  0  0.934579  0  0.097662  0  0.120941  0  0.982357  0  0  0.123456  0  0.983791  0  0  0.112211  0.119109  0  0.981614  0
H  H33  1  0.64108770  0.24863205  0.73254662  1  0  0.105996  0  0.93459  0  0.097376  0  0.120952  0  0.982289  0  0  0.123466  0  0.983727  0  0  0.112245  0.119118  0  0.981543  0
H  H34  1  0.14109955  0.24863641  0.76744952  1  0  0.106026  0  0.934498  0  0.097334  0  0.120959  0  0.982229  0  0  0.123475  0  0.983661  0  0  0.11225  0.119129  0  0.981484  0
H  H35  1  0.35890632  0.75136465  0.26744616  1  0  0.106039  0  0.934558  0  0.097662  0  0.120943  0  0.982312  0  0  0.123457  0  0.983747  0  0  0.112216  0.119108  0  0.981567  0
H  H36  1  0.88392707  0.57902168  0.15373159  1  0  0.099455  0  0.928374  0  0.157692  0  0.106396  0  0.992699  0  0  0.109236  0  0.989978  0  0  0.125782  0.104111  0  0.995102  0
H  H37  1  0.61606188  0.42097814  0.65372379  1  0  0.099456  0  0.928239  0  0.157558  0  0.106414  0  0.992566  0  0  0.109255  0  0.989844  0  0  0.125817  0.10413  0  0.994966  0
H  H38  1  0.11606682  0.42097039  0.84627523  1  0  0.0995  0  0.928304  0  0.157492  0  0.106434  0  0.992621  0  0  0.109274  0  0.989902  0  0  0.125806  0.104153  0  0.995025  0
H  H39  1  0.38393746  0.57903134  0.34627079  1  0  0.099492  0  0.928374  0  0.157629  0  0.106492  0  0.992615  0  0  0.109335  0  0.989896  0  0  0.125817  0.104207  0  0.995018  0
C  C40  1  0.78030314  0.75280214  0.02554519  1  0  0.71628  0  3.882476  0  1.669406  0  0.667751  0  4.174943  0  0  0.704918  0  4.167601  0  0  0.226507  0.6433  0  4.181382  0
C  C41  1  0.71970459  0.24719440  0.52554679  1  0  0.71633  0  3.882461  0  1.669413  0  0.667853  0  4.174827  0  0  0.705021  0  4.167483  0  0  0.226514  0.643396  0  4.181262  0
C  C42  1  0.21970282  0.24718771  0.97445438  1  0  0.716286  0  3.882474  0  1.669432  0  0.667829  0  4.174792  0  0  0.704996  0  4.167447  0  0  0.226502  0.64338  0  4.181226  0
C  C43  1  0.28029333  0.75280350  0.47445459  1  0  0.716475  0  3.882373  0  1.669267  0  0.668053  0  4.174694  0  0  0.705223  0  4.167346  0  0  0.226603  0.643595  0  4.181137  0
C  C44  1  0.91587105  0.87894483  0.06287996  1  0  -0.110696  0  3.714518  0  -0.013435  0  -0.084787  0  3.948067  0  0  -0.096876  0  3.96982  0  0  -0.009343  -0.076789  0  3.932509  0
C  C45  1  0.58412932  0.12105429  0.56287863  1  0  -0.110633  0  3.714276  0  -0.013157  0  -0.084678  0  3.947762  0  0  -0.096767  0  3.969506  0  0  -0.009335  -0.076675  0  3.932196  0
C  C46  1  0.08412615  0.12104727  0.93712097  1  0  -0.110508  0  3.714393  0  -0.01313  0  -0.084527  0  3.947819  0  0  -0.096615  0  3.969565  0  0  -0.009263  -0.076522  0  3.932252  0
C  C47  1  0.41586309  0.87894356  0.43711958  1  0  -0.110645  0  3.714228  0  -0.013488  0  -0.084881  0  3.947927  0  0  -0.096972  0  3.969674  0  0  -0.009413  -0.076885  0  3.932372  0
C  C48  1  0.05476004  0.86548157  0.08230039  1  0  -0.001058  0  3.660111  0  -0.034712  0  -0.031153  0  3.908162  0  0  -0.025313  0  3.924565  0  0  -0.054511  -0.034696  0  3.89699  0
C  C49  1  0.44523114  0.13451778  0.58229838  1  0  -0.000998  0  3.659987  0  -0.035032  0  -0.031196  0  3.90807  0  0  -0.025332  0  3.924486  0  0  -0.054522  -0.034742  0  3.8969  0
C  C50  1  0.94523061  0.13451279  0.91770235  1  0  -0.001006  0  3.659812  0  -0.034939  0  -0.031203  0  3.90789  0  0  -0.025339  0  3.924306  0  0  -0.054508  -0.034743  0  3.896716  0
C  C51  1  0.55475679  0.86547772  0.41769756  1  0  -0.001135  0  3.659722  0  -0.034707  0  -0.031232  0  3.907819  0  0  -0.025376  0  3.92424  0  0  -0.054566  -0.03478  0  3.896655  0
C  C52  1  0.17324582  0.98095014  0.11889424  1  0  -0.097798  0  3.710909  0  0.025201  0  -0.108155  0  3.95797  0  0  -0.115644  0  3.978396  0  0  -0.073614  -0.103372  0  3.944237  0
C  C53  1  0.32675181  0.01905305  0.61889069  1  0  -0.097854  0  3.710983  0  0.025613  0  -0.108186  0  3.95807  0  0  -0.11567  0  3.978488  0  0  -0.073662  -0.103406  0  3.944341  0
C  C54  1  0.82674821  0.01904657  0.88110714  1  0  -0.097915  0  3.710753  0  0.025256  0  -0.108268  0  3.957839  0  0  -0.115754  0  3.978251  0  0  -0.07364  -0.103485  0  3.944107  0
C  C55  1  0.67324014  0.98094827  0.38110344  1  0  -0.097839  0  3.71074  0  0.025192  0  -0.108166  0  3.957816  0  0  -0.115678  0  3.978226  0  0  -0.073555  -0.103382  0  3.94409  0
C  C56  1  0.14784237  0.10480000  0.13612984  1  0  0.129052  0  3.70253  0  0.448989  0  0.097034  0  3.944534  0  0  0.105639  0  3.963241  0  0  0.048294  0.091391  0  3.931913  0
C  C57  1  0.35214606  0.89520443  0.63612674  1  0  0.129134  0  3.702427  0  0.448564  0  0.097093  0  3.944394  0  0  0.1057  0  3.963098  0  0  0.048357  0.091451  0  3.931771  0
C  C58  1  0.85214841  0.89519900  0.86387154  1  0  0.129156  0  3.702564  0  0.448917  0  0.097133  0  3.94455  0  0  0.105739  0  3.963259  0  0  0.048361  0.091493  0  3.931923  0
C  C59  1  0.64783928  0.10479684  0.36386965  1  0  0.129165  0  3.702555  0  0.448953  0  0.097122  0  3.944545  0  0  0.105726  0  3.963263  0  0  0.04831  0.091475  0  3.931931  0
C  C60  1  0.90140306  0.00885219  0.08112065  1  0  0.118419  0  3.651843  0  0.479725  0  0.078127  0  3.890309  0  0  0.08688  0  3.908509  0  0  0.052522  0.072444  0  3.877723  0
C  C61  1  0.59859362  0.99114822  0.58112158  1  0  0.118215  0  3.651852  0  0.479727  0  0.077922  0  3.890311  0  0  0.086683  0  3.908518  0  0  0.052458  0.07222  0  3.877749  0
C  C62  1  0.09859031  0.99114104  0.91887892  1  0  0.118111  0  3.651899  0  0.479691  0  0.077818  0  3.890361  0  0  0.086572  0  3.908566  0  0  0.052415  0.072103  0  3.877826  0
C  C63  1  0.40139937  0.00885079  0.41887709  1  0  0.118453  0  3.651757  0  0.479904  0  0.07822  0  3.89023  0  0  0.086971  0  3.908427  0  0  0.05259  0.07256  0  3.877599  0
C  C64  1  0.97514173  0.43537209  0.27373365  1  0  0.089535  0  3.732105  0  0.511699  0  0.049188  0  3.976365  0  0  0.057338  0  3.995366  0  0  0.045048  0.043717  0  3.963667  0
C  C65  1  0.52485868  0.56463001  0.77373047  1  0  0.089549  0  3.731848  0  0.511014  0  0.049211  0  3.976114  0  0  0.057355  0  3.995123  0  0  0.045029  0.043739  0  3.963421  0
C  C66  1  0.02485729  0.56462581  0.72627046  1  0  0.089584  0  3.731831  0  0.511032  0  0.049237  0  3.976076  0  0  0.05738  0  3.995088  0  0  0.045022  0.043764  0  3.963384  0
C  C67  1  0.47514041  0.43537021  0.22626910  1  0  0.089607  0  3.731761  0  0.511499  0  0.049266  0  3.976012  0  0  0.0574  0  3.995036  0  0  0.045038  0.043793  0  3.963319  0
C  C68  1  0.95910081  0.52242868  0.32077303  1  0  -0.115256  0  3.74213  0  -0.021645  0  -0.088749  0  3.975749  0  0  -0.101026  0  3.997677  0  0  -0.009937  -0.080606  0  3.959755  0
C  C69  1  0.54089711  0.47757034  0.82076706  1  0  -0.115171  0  3.74207  0  -0.021787  0  -0.088658  0  3.975725  0  0  -0.100935  0  3.997643  0  0  -0.009827  -0.080507  0  3.95973  0
C  C70  1  0.04090444  0.47757506  0.67923198  1  0  -0.115226  0  3.742222  0  -0.021771  0  -0.088671  0  3.975778  0  0  -0.100952  0  3.997705  0  0  -0.009812  -0.08052  0  3.959784  0
C  C71  1  0.45910242  0.52242640  0.17922844  1  0  -0.115291  0  3.742044  0  -0.021557  0  -0.088764  0  3.975673  0  0  -0.101039  0  3.9976  0  0  -0.0099  -0.080617  0  3.959684  0
C  C72  1  0.91573715  0.63838391  0.30670772  1  0  -9e-06  0  3.64683  0  -0.060303  0  -0.028221  0  3.89135  0  0  -0.021494  0  3.905773  0  0  -0.048916  -0.032271  0  3.880997  0
C  C73  1  0.58425663  0.36160916  0.80670075  1  0  2.8e-05  0  3.646881  0  -0.060062  0  -0.028253  0  3.891431  0  0  -0.021481  0  3.905878  0  0  -0.049013  -0.032303  0  3.881077  0
C  C74  1  0.08426576  0.36161517  0.69329729  1  0  -2.7e-05  0  3.646961  0  -0.060108  0  -0.028304  0  3.891514  0  0  -0.021551  0  3.905955  0  0  -0.048997  -0.032355  0  3.881166  0
C  C75  1  0.41573946  0.63838293  0.19329384  1  0  -0.000115  0  3.646924  0  -0.060176  0  -0.02834  0  3.891471  0  0  -0.021612  0  3.905895  0  0  -0.049014  -0.032393  0  3.88112  0
C  C76  1  0.89144206  0.66172506  0.24592703  1  0  -0.123842  0  3.739678  0  -0.022492  0  -0.134403  0  3.990469  0  0  -0.143989  0  4.014177  0  0  -0.080464  -0.128185  0  3.974473  0
C  C77  1  0.60855307  0.33827329  0.74592095  1  0  -0.123869  0  3.739681  0  -0.018824  0  -0.134495  0  3.990538  0  0  -0.144077  0  4.014227  0  0  -0.080552  -0.128271  0  3.97454  0
C  C78  1  0.10855975  0.33827402  0.75407662  1  0  -0.123855  0  3.739602  0  -0.018859  0  -0.13447  0  3.990425  0  0  -0.144056  0  4.014127  0  0  -0.080566  -0.128252  0  3.974435  0
C  C79  1  0.39144491  0.66172692  0.25407363  1  0  -0.123731  0  3.739694  0  -0.022502  0  -0.134306  0  3.990505  0  0  -0.143893  0  4.014213  0  0  -0.080444  -0.128084  0  3.974504  0
C  C80  1  0.90658518  0.56753658  0.20149598  1  0  0.138963  0  3.651486  0  0.453967  0  0.105262  0  3.899298  0  0  0.11409  0  3.917473  0  0  0.055835  0.099594  0  3.887186  0
C  C81  1  0.59341024  0.43246486  0.70149180  1  0  0.138951  0  3.651072  0  0.450758  0  0.105205  0  3.898924  0  0  0.114031  0  3.917101  0  0  0.055802  0.099538  0  3.886813  0
C  C82  1  0.09341559  0.43246481  0.79850812  1  0  0.138919  0  3.651374  0  0.45091  0  0.105239  0  3.89917  0  0  0.114067  0  3.917347  0  0  0.055856  0.099563  0  3.887065  0
C  C83  1  0.40658729  0.56753882  0.29850595  1  0  0.138815  0  3.651495  0  0.453958  0  0.105075  0  3.899316  0  0  0.113897  0  3.917498  0  0  0.055788  0.099407  0  3.887203  0
C  C84  1  0.98910003  0.48843874  0.38464466  1  0  0.706347  0  3.905645  0  1.65407  0  0.657747  0  4.196489  0  0  0.693748  0  4.192036  0  0  0.229189  0.633815  0  4.202238  0
C  C85  1  0.51090670  0.51156205  0.88463916  1  0  0.706229  0  3.905948  0  1.65458  0  0.657576  0  4.196888  0  0  0.693577  0  4.192441  0  0  0.229112  0.633642  0  4.202634  0
C  C86  1  0.01091462  0.51156622  0.61536125  1  0  0.706243  0  3.906072  0  1.654501  0  0.657631  0  4.196913  0  0  0.693635  0  4.192465  0  0  0.229156  0.633695  0  4.20266  0
C  C87  1  0.48909439  0.48843123  0.11535724  1  0  0.706286  0  3.905911  0  1.653942  0  0.657638  0  4.196833  0  0  0.693639  0  4.192382  0  0  0.229155  0.633704  0  4.202586  0
C  C88  1  0.49181011  0.99283241  0.03509221  1  0  0.547123  0  3.956228  0  1.614539  0  0.504166  0  4.259792  0  0  0.533712  0  4.258384  0  0  0.205727  0.483805  0  4.265882  0
C  C89  1  0.00819795  0.00717245  0.53509707  1  0  0.54711  0  3.955913  0  1.659086  0  0.504077  0  4.25957  0  0  0.533625  0  4.258161  0  0  0.205709  0.483715  0  4.265658  0
C  C90  1  0.50819565  0.00717017  0.96490282  1  0  0.547111  0  3.95597  0  1.659067  0  0.504107  0  4.259582  0  0  0.533654  0  4.258171  0  0  0.205684  0.483744  0  4.265671  0
C  C91  1  0.99181184  0.99283596  0.46490703  1  0  0.547197  0  3.956086  0  1.614561  0  0.504246  0  4.259652  0  0  0.533791  0  4.258246  0  0  0.205775  0.483885  0  4.265741  0
C  C92  1  0.00305056  0.48048880  0.03365895  1  0  0.555208  0  3.951706  0  1.646521  0  0.509655  0  4.245064  0  0  0.539836  0  4.243186  0  0  0.203065  0.489071  0  4.250582  0
C  C93  1  0.49695755  0.51951836  0.53366008  1  0  0.555449  0  3.951359  0  1.646556  0  0.509892  0  4.244703  0  0  0.540076  0  4.242822  0  0  0.203148  0.489306  0  4.250222  0
C  C94  1  0.99695112  0.51950565  0.96634198  1  0  0.555387  0  3.951539  0  1.621857  0  0.509624  0  4.245151  0  0  0.539806  0  4.243272  0  0  0.2031  0.489033  0  4.250666  0
C  C95  1  0.50305704  0.48050397  0.46634085  1  0  0.55523  0  3.95162  0  1.621805  0  0.509492  0  4.245195  0  0  0.539673  0  4.243323  0  0  0.202947  0.488909  0  4.250712  0
N  N96  1  0.01399048  0.11893391  0.11789773  1  0  -0.306108  0  3.375793  0  -1.240944  0  -0.213501  0  3.662529  0  0  -0.234268  0  3.677973  0  0  -0.350958  -0.199923  0  3.651964  0
N  N97  1  0.48600162  0.88106923  0.61789651  1  0  -0.306021  0  3.375584  0  -1.240835  0  -0.213412  0  3.662317  0  0  -0.23418  0  3.67776  0  0  -0.350945  -0.199828  0  3.651739  0
N  N98  1  0.98600023  0.88106277  0.88210184  1  0  -0.306008  0  3.375723  0  -1.240913  0  -0.213381  0  3.662429  0  0  -0.234149  0  3.677876  0  0  -0.350934  -0.199795  0  3.651847  0
N  N99  1  0.51398870  0.11893323  0.38210170  1  0  -0.306192  0  3.375771  0  -1.240965  0  -0.213587  0  3.662514  0  0  -0.234355  0  3.677958  0  0  -0.350979  -0.200013  0  3.651952  0
N  N100  1  0.94793169  0.45554532  0.21522913  1  0  -0.298693  0  3.366962  0  -1.245182  0  -0.207117  0  3.649127  0  0  -0.228005  0  3.665895  0  0  -0.347626  -0.192865  0  3.637106  0
N  N101  1  0.55206612  0.54445857  0.71522595  1  0  -0.298584  0  3.366645  0  -1.244852  0  -0.206959  0  3.648773  0  0  -0.227843  0  3.665541  0  0  -0.347535  -0.192707  0  3.636756  0
N  N102  1  0.05206688  0.54445605  0.78477316  1  0  -0.298676  0  3.366903  0  -1.244791  0  -0.207089  0  3.649046  0  0  -0.227973  0  3.665811  0  0  -0.347633  -0.192837  0  3.637027  0
N  N103  1  0.44793478  0.45554745  0.28477271  1  0  -0.298573  0  3.366798  0  -1.245221  0  -0.207003  0  3.648992  0  0  -0.227885  0  3.665758  0  0  -0.347569  -0.19275  0  3.636971  0
O  O104  1  0.67659223  0.78485518  0.99905590  1  0  -0.7321  0  2.044285  0  -1.216578  0  -0.68386  0  2.301328  0  0  -0.721931  0  2.291402  0  0  -0.38647  -0.664748  0  2.305684  0
O  O105  1  0.82340690  0.21513844  0.49906058  1  0  -0.732096  0  2.044375  0  -1.216484  0  -0.683847  0  2.301336  0  0  -0.72191  0  2.291401  0  0  -0.386447  -0.664736  0  2.305693  0
O  O106  1  0.32340821  0.21513463  0.00093913  1  0  -0.732102  0  2.044329  0  -1.216563  0  -0.683867  0  2.301272  0  0  -0.721924  0  2.291344  0  0  -0.386452  -0.664753  0  2.305627  0
O  O107  1  0.17659290  0.78486757  0.50094216  1  0  -0.73219  0  2.044196  0  -1.216462  0  -0.683976  0  2.301199  0  0  -0.722044  0  2.291271  0  0  -0.386497  -0.664863  0  2.305557  0
O  O108  1  0.78022447  0.62312845  0.02528502  1  0  -0.736491  0  2.088808  0  -1.22338  0  -0.682788  0  2.344006  0  0  -0.720617  0  2.333248  0  0  -0.377477  -0.663827  0  2.348949  0
O  O109  1  0.71978676  0.37687506  0.52528675  1  0  -0.736572  0  2.088622  0  -1.223409  0  -0.682928  0  2.34387  0  0  -0.720761  0  2.333094  0  0  -0.377507  -0.663989  0  2.348852  0
O  O110  1  0.21978727  0.37687070  0.97471410  1  0  -0.736596  0  2.088808  0  -1.223285  0  -0.682954  0  2.344035  0  0  -0.720787  0  2.333259  0  0  -0.377499  -0.664015  0  2.349023  0
O  O111  1  0.28021848  0.62312868  0.47471554  1  0  -0.736571  0  2.088886  0  -1.223401  0  -0.682912  0  2.344092  0  0  -0.720743  0  2.333317  0  0  -0.377498  -0.663964  0  2.349059  0
O  O112  1  0.04830466  0.39532365  0.39205472  1  0  -0.696288  0  1.998723  0  -1.185239  0  -0.649608  0  2.249001  0  0  -0.684964  0  2.236173  0  0  -0.375905  -0.631697  0  2.255044  0
O  O113  1  0.45170264  0.60467503  0.89205455  1  0  -0.696234  0  1.998928  0  -1.185594  0  -0.649514  0  2.249212  0  0  -0.684875  0  2.236391  0  0  -0.375847  -0.631604  0  2.25526  0
O  O114  1  0.95171389  0.60468250  0.60794440  1  0  -0.696273  0  1.999061  0  -1.185515  0  -0.649561  0  2.249295  0  0  -0.684922  0  2.236465  0  0  -0.375881  -0.63165  0  2.255339  0
O  O115  1  0.54829501  0.39531360  0.10794638  1  0  -0.696246  0  1.998825  0  -1.185217  0  -0.649524  0  2.249062  0  0  -0.684876  0  2.236242  0  0  -0.37587  -0.631614  0  2.25511  0
O  O116  1  0.95351953  0.55509783  0.42675103  1  0  -0.751449  0  2.166218  0  -1.236589  0  -0.698647  0  2.433941  0  0  -0.73841  0  2.421533  0  0  -0.401808  -0.680957  0  2.441992  0
O  O117  1  0.54649324  0.44491032  0.92674638  1  0  -0.751346  0  2.165997  0  -1.236412  0  -0.698584  0  2.433848  0  0  -0.738319  0  2.42141  0  0  -0.401826  -0.680894  0  2.441899  0
O  O118  1  0.04650193  0.44491414  0.57325353  1  0  -0.751345  0  2.166018  0  -1.236446  0  -0.698591  0  2.433847  0  0  -0.738331  0  2.421397  0  0  -0.401838  -0.680901  0  2.441897  0
O  O119  1  0.45350947  0.55508182  0.07325047  1  0  -0.751401  0  2.166227  0  -1.236385  0  -0.69861  0  2.434017  0  0  -0.738358  0  2.421583  0  0  -0.401791  -0.680922  0  2.44207  0
O  O120  1  0.86541241  0.38317464  0.05759323  1  0  -0.675894  0  2.110871  0  -1.200439  0  -0.614606  0  2.378233  0  0  -0.650759  0  2.364685  0  0  -0.379126  -0.595879  0  2.385293  0
O  O121  1  0.63460050  0.61684074  0.55759062  1  0  -0.675922  0  2.110676  0  -1.200609  0  -0.614632  0  2.378047  0  0  -0.65079  0  2.364493  0  0  -0.379152  -0.595902  0  2.385107  0
O  O122  1  0.13458791  0.61683022  0.94241133  1  0  -0.675876  0  2.110758  0  -1.200436  0  -0.61452  0  2.378209  0  0  -0.650679  0  2.364658  0  0  -0.37911  -0.595793  0  2.385269  0
O  O123  1  0.36541857  0.38318394  0.44240759  1  0  -0.675825  0  2.110718  0  -1.20031  0  -0.614475  0  2.378162  0  0  -0.650635  0  2.364619  0  0  -0.379071  -0.595748  0  2.385221  0
O  O124  1  0.14232921  0.54630498  0.06005507  1  0  -0.640349  0  2.068346  0  -1.193387  0  -0.591436  0  2.322659  0  0  -0.623377  0  2.311063  0  0  -0.350587  -0.574446  0  2.328406  0
O  O125  1  0.35767268  0.45368963  0.56005424  1  0  -0.64051  0  2.068299  0  -1.193212  0  -0.591605  0  2.322636  0  0  -0.623545  0  2.311034  0  0  -0.350656  -0.574628  0  2.328421  0
O  O126  1  0.85766935  0.45367671  0.93994586  1  0  -0.640453  0  2.068327  0  -1.193372  0  -0.591497  0  2.322752  0  0  -0.623429  0  2.31115  0  0  -0.350655  -0.57453  0  2.328555  0
O  O127  1  0.64233730  0.54632572  0.43994669  1  0  -0.640392  0  2.0685  0  -1.193484  0  -0.591447  0  2.322924  0  0  -0.623384  0  2.311324  0  0  -0.350515  -0.574461  0  2.328689  0
O  O128  1  0.42500398  0.85619832  0.05689458  1  0  -0.673062  0  2.037507  0  -1.209411  0  -0.630681  0  2.288907  0  0  -0.663796  0  2.275922  0  0  -0.382601  -0.614447  0  2.295488  0
O  O129  1  0.07500380  0.14381020  0.55689962  1  0  -0.673041  0  2.037347  0  -1.209592  0  -0.63064  0  2.288782  0  0  -0.663753  0  2.275791  0  0  -0.382568  -0.614403  0  2.295362  0
O  O130  1  0.57500354  0.14380775  0.94310046  1  0  -0.672993  0  2.03735  0  -1.209564  0  -0.630614  0  2.288777  0  0  -0.663719  0  2.275784  0  0  -0.382542  -0.614376  0  2.295357  0
O  O131  1  0.92500657  0.85619936  0.44310584  1  0  -0.673134  0  2.037453  0  -1.209328  0  -0.630757  0  2.288854  0  0  -0.663871  0  2.275872  0  0  -0.38266  -0.614522  0  2.295437  0
O  O132  1  0.54608752  0.11795944  0.06474236  1  0  -0.645255  0  2.039455  0  -1.203016  0  -0.602129  0  2.286339  0  0  -0.632754  0  2.272799  0  0  -0.370043  -0.586991  0  2.293556  0
O  O133  1  0.95392564  0.88204327  0.56474565  1  0  -0.645197  0  2.03931  0  -1.203082  0  -0.602031  0  2.286225  0  0  -0.632664  0  2.272682  0  0  -0.370047  -0.586892  0  2.293438  0
O  O134  1  0.45392200  0.88203970  0.93525403  1  0  -0.645305  0  2.039368  0  -1.203124  0  -0.602157  0  2.286277  0  0  -0.63279  0  2.272734  0  0  -0.370072  -0.587018  0  2.293492  0
O  O135  1  0.04609012  0.11796171  0.43525799  1  0  -0.645309  0  2.039456  0  -1.203065  0  -0.602171  0  2.286333  0  0  -0.632803  0  2.272796  0  0  -0.37006  -0.587035  0  2.293551  0
