# generated using pymatgen
data_PrH16C16N10ClO6
_symmetry_space_group_name_H-M   'P 1'
_cell_length_a   8.75346375
_cell_length_b   11.14419322
_cell_length_c   13.08247261
_cell_angle_alpha   115.18886516
_cell_angle_beta   105.63592868
_cell_angle_gamma   89.99162766
_symmetry_Int_Tables_number   1
_chemical_formula_structural   PrH16C16N10ClO6
_chemical_formula_sum   'Pr2 H32 C32 N20 Cl2 O12'
_cell_volume   1102.45585370
_cell_formula_units_Z   2
loop_
 _symmetry_equiv_pos_site_id
 _symmetry_equiv_pos_as_xyz
  1  'x, y, z'
loop_
 _atom_site_type_symbol
 _atom_site_label
 _atom_site_symmetry_multiplicity
 _atom_site_fract_x
 _atom_site_fract_y
 _atom_site_fract_z
 _atom_site_occupancy
 _atom_site_hle17_bader_spin_density
 _atom_site_hle17_ddec_charge
 _atom_site_hle17_ddec_spin_density
 _atom_site_hle17_ddec_sum_bond_order
 _atom_site_hle17_magmom
 _atom_site_hse06_10hf_bader_spin_density
 _atom_site_hse06_10hf_ddec_charge
 _atom_site_hse06_10hf_ddec_spin_density
 _atom_site_hse06_10hf_ddec_sum_bond_order
 _atom_site_hse06_10hf_magmom
 _atom_site_hse06_bader_spin_density
 _atom_site_hse06_ddec_charge
 _atom_site_hse06_ddec_spin_density
 _atom_site_hse06_ddec_sum_bond_order
 _atom_site_hse06_magmom
 _atom_site_pbe_bader_spin_density
 _atom_site_pbe_cm5_charge
 _atom_site_pbe_ddec_charge
 _atom_site_pbe_ddec_spin_density
 _atom_site_pbe_ddec_sum_bond_order
 _atom_site_pbe_magmom
Pr  Pr0  1  0.75002947  0.44707986  0.00002283  1  0  2.293622  0  1.596798  0  0  2.139517  0  2.045386  0  0  2.225041  0  1.916062  0  0  1.392551  2.107025  0  2.082125  0
Pr  Pr1  1  0.24996933  0.55292029  0.99997712  1  0  2.293617  0  1.596808  0  0  2.139548  0  2.045324  0  0  2.225034  0  1.916073  0  0  1.392548  2.107056  0  2.082065  0
H  H2  1  0.52923363  0.70275132  0.34556829  1  0  0.150955  0  0.909248  0  0  0.157457  0  0.975885  0  0  0.16099  0  0.972592  0  0  0.135004  0.154943  0  0.978229  0
H  H3  1  0.97053889  0.35699426  0.65425414  1  0  0.151075  0  0.908134  0  0  0.157107  0  0.974988  0  0  0.160694  0  0.971689  0  0  0.135147  0.15457  0  0.977349  0
H  H4  1  0.47076739  0.29724784  0.65443093  1  0  0.150957  0  0.909259  0  0  0.157487  0  0.975879  0  0  0.161015  0  0.972586  0  0  0.135015  0.154975  0  0.978223  0
H  H5  1  0.02946127  0.64300692  0.34574337  1  0  0.150988  0  0.908314  0  0  0.157115  0  0.975066  0  0  0.160702  0  0.971763  0  0  0.135119  0.154578  0  0.977426  0
H  H6  1  0.47473876  0.53212343  0.30633682  1  0  0.142082  0  0.886415  0  0  0.155862  0  0.941062  0  0  0.158384  0  0.939309  0  0  0.141109  0.154025  0  0.942351  0
H  H7  1  0.02541764  0.22580747  0.69375276  1  0  0.142369  0  0.887462  0  0  0.156137  0  0.941672  0  0  0.158699  0  0.939931  0  0  0.141075  0.154308  0  0.942948  0
H  H8  1  0.52526343  0.46787572  0.69366338  1  0  0.14209  0  0.886402  0  0  0.155883  0  0.941054  0  0  0.158406  0  0.9393  0  0  0.14107  0.154048  0  0.942343  0
H  H9  1  0.97458250  0.77419368  0.30624780  1  0  0.14237  0  0.887454  0  0  0.156137  0  0.941677  0  0  0.158696  0  0.939934  0  0  0.141075  0.154307  0  0.942955  0
H  H10  1  0.00344615  0.93608093  0.61801368  1  0  0.101409  0  0.966614  0  0  0.100359  0  1.048618  0  0  0.103967  0  1.044983  0  0  0.105479  0.097633  0  1.051377  0
H  H11  1  0.49661507  0.31762505  0.38198904  1  0  0.102007  0  0.965703  0  0  0.101051  0  1.047598  0  0  0.104602  0  1.044006  0  0  0.105908  0.098377  0  1.050291  0
H  H12  1  0.99655605  0.06391823  0.38198499  1  0  0.101422  0  0.966603  0  0  0.100346  0  1.048628  0  0  0.103954  0  1.044995  0  0  0.105486  0.097625  0  1.051381  0
H  H13  1  0.50338475  0.68237410  0.61801073  1  0  0.102031  0  0.965714  0  0  0.101077  0  1.047609  0  0  0.104627  0  1.044016  0  0  0.105915  0.098403  0  1.050304  0
H  H14  1  0.39854706  0.00019557  0.92433644  1  0  0.073405  0  0.936996  0  0  0.083086  0  1.000814  0  0  0.08581  0  0.998203  0  0  0.112076  0.081081  0  1.002712  0
H  H15  1  0.10145091  0.07571746  0.07571293  1  0  0.073436  0  0.937145  0  0  0.082997  0  1.001003  0  0  0.085716  0  0.998396  0  0  0.112361  0.081001  0  1.002877  0
H  H16  1  0.60145276  0.99980358  0.07566333  1  0  0.073395  0  0.936991  0  0  0.083075  0  1.000812  0  0  0.085797  0  0.998202  0  0  0.112082  0.08107  0  1.002707  0
H  H17  1  0.89854789  0.92428269  0.92428702  1  0  0.073452  0  0.937118  0  0  0.083013  0  1.000978  0  0  0.085733  0  0.998368  0  0  0.112372  0.081015  0  1.002856  0
H  H18  1  0.11643750  0.63126487  0.73738732  1  0  0.096731  0  0.951862  0  0  0.100948  0  1.023185  0  0  0.104736  0  1.019442  0  0  0.121674  0.098103  0  1.026186  0
H  H19  1  0.38353560  0.89356145  0.26267505  1  0  0.096508  0  0.952873  0  0  0.101357  0  1.023125  0  0  0.105042  0  1.019502  0  0  0.121897  0.098583  0  1.026059  0
H  H20  1  0.88356027  0.36873629  0.26261280  1  0  0.096721  0  0.951864  0  0  0.100943  0  1.023189  0  0  0.104724  0  1.019465  0  0  0.121676  0.098101  0  1.026177  0
H  H21  1  0.61646304  0.10643771  0.73732374  1  0  0.096512  0  0.952855  0  0  0.101336  0  1.023146  0  0  0.10502  0  1.019522  0  0  0.121893  0.098562  0  1.026077  0
H  H22  1  0.24094115  0.08633534  0.78709530  1  0  0.111044  0  0.949898  0  0  0.120644  0  1.006877  0  0  0.124107  0  1.005381  0  0  0.103159  0.118228  0  1.007899  0
H  H23  1  0.25910945  0.29900686  0.21294753  1  0  0.110813  0  0.950035  0  0  0.120662  0  1.006776  0  0  0.12405  0  1.005356  0  0  0.103111  0.118302  0  1.007754  0
H  H24  1  0.75906223  0.91366381  0.21290435  1  0  0.111105  0  0.949871  0  0  0.120657  0  1.006904  0  0  0.124136  0  1.005385  0  0  0.103179  0.118241  0  1.007929  0
H  H25  1  0.74089037  0.70099228  0.78705300  1  0  0.11082  0  0.950026  0  0  0.120671  0  1.006765  0  0  0.12406  0  1.005345  0  0  0.103109  0.118313  0  1.007745  0
H  H26  1  0.01873557  0.27548983  0.00099763  1  0  0.413032  0  0.896881  0  0  0.385495  0  0.956753  0  0  0.395496  0  0.942433  0  0  0.267641  0.378386  0  0.96705  0
H  H27  1  0.48138021  0.27458793  0.99905673  1  0  0.412577  0  0.897237  0  0  0.384778  0  0.957402  0  0  0.394752  0  0.943131  0  0  0.267641  0.377696  0  0.967648  0
H  H28  1  0.98126324  0.72451033  0.99900156  1  0  0.413014  0  0.896906  0  0  0.385478  0  0.956775  0  0  0.395478  0  0.942456  0  0  0.267641  0.37837  0  0.967072  0
H  H29  1  0.51861843  0.72541122  0.00094282  1  0  0.412563  0  0.897246  0  0  0.384766  0  0.957409  0  0  0.394739  0  0.943138  0  0  0.26762  0.377685  0  0.967654  0
H  H30  1  0.85457694  0.17010874  0.93585835  1  0  0.387081  0  0.937935  0  0  0.343629  0  1.021903  0  0  0.355745  0  1.005137  0  0  0.280172  0.335102  0  1.033789  0
H  H31  1  0.64549222  0.23416765  0.06411529  1  0  0.386834  0  0.938122  0  0  0.343066  0  1.022577  0  0  0.355183  0  1.005808  0  0  0.280143  0.334536  0  1.034466  0
H  H32  1  0.14542067  0.82989142  0.06414139  1  0  0.387089  0  0.937921  0  0  0.343636  0  1.021895  0  0  0.355752  0  1.00513  0  0  0.28018  0.33511  0  1.03378  0
H  H33  1  0.35450540  0.76583250  0.93588444  1  0  0.386826  0  0.938135  0  0  0.343062  0  1.022582  0  0  0.355179  0  1.005814  0  0  0.280137  0.334532  0  1.03447  0
C  C34  1  0.62914544  0.56400597  0.21433364  1  0  0.725807  0  3.847142  0  0  0.680686  0  4.145735  0  0  0.714016  0  4.140621  0  0  0.225265  0.657834  0  4.151613  0
C  C35  1  0.87089064  0.34960780  0.78566197  1  0  0.727474  0  3.846577  0  0  0.682162  0  4.145055  0  0  0.715501  0  4.139976  0  0  0.226454  0.659325  0  4.150929  0
C  C36  1  0.37085234  0.43599520  0.78566572  1  0  0.72574  0  3.847244  0  0  0.680631  0  4.145851  0  0  0.713962  0  4.140731  0  0  0.22522  0.65778  0  4.151727  0
C  C37  1  0.12910918  0.65039135  0.21433780  1  0  0.727526  0  3.846498  0  0  0.682168  0  4.145074  0  0  0.715503  0  4.139993  0  0  0.226459  0.65933  0  4.15095  0
C  C38  1  0.57350193  0.60566269  0.32415633  1  0  -0.194306  0  3.590765  0  0  -0.264302  0  3.833353  0  0  -0.265471  0  3.836308  0  0  -0.031425  -0.26323  0  3.830844  0
C  C39  1  0.92649919  0.28137763  0.67584230  1  0  -0.195255  0  3.591103  0  0  -0.264171  0  3.832221  0  0  -0.265499  0  3.835293  0  0  -0.03185  -0.263121  0  3.829798  0
C  C40  1  0.42649908  0.39433646  0.67584365  1  0  -0.194323  0  3.590727  0  0  -0.264403  0  3.833423  0  0  -0.265566  0  3.836372  0  0  -0.031424  -0.263332  0  3.830916  0
C  C41  1  0.07350096  0.71862353  0.32415750  1  0  -0.195174  0  3.591163  0  0  -0.264164  0  3.832284  0  0  -0.265481  0  3.835345  0  0  -0.031828  -0.263113  0  3.829861  0
C  C42  1  0.90441672  0.68353379  0.56955863  1  0  0.253971  0  3.804342  0  0  0.233187  0  4.084394  0  0  0.241257  0  4.102129  0  0  0.221383  0.227884  0  4.072331  0
C  C43  1  0.59563802  0.11353853  0.43053958  1  0  0.253506  0  3.804054  0  0  0.233515  0  4.083554  0  0  0.241557  0  4.101335  0  0  0.221657  0.228255  0  4.07142  0
C  C44  1  0.09558327  0.31646637  0.43044077  1  0  0.254008  0  3.804281  0  0  0.23322  0  4.084327  0  0  0.241289  0  4.102063  0  0  0.221387  0.227916  0  4.072267  0
C  C45  1  0.40436061  0.88646062  0.56946073  1  0  0.253589  0  3.804052  0  0  0.233589  0  4.083544  0  0  0.241634  0  4.10132  0  0  0.2217  0.22833  0  4.071408  0
C  C46  1  0.04296592  0.77168653  0.66432126  1  0  -0.038307  0  3.788104  0  0  -0.015242  0  4.019237  0  0  -0.021692  0  4.044021  0  0  0.001028  -0.011233  0  4.002422  0
C  C47  1  0.45705383  0.10696234  0.33576245  1  0  -0.038676  0  3.786251  0  0  -0.016245  0  4.017733  0  0  -0.022683  0  4.042478  0  0  0.000154  -0.012238  0  4.000941  0
C  C48  1  0.95703407  0.22831363  0.33567814  1  0  -0.038357  0  3.78812  0  0  -0.015281  0  4.01922  0  0  -0.021731  0  4.044003  0  0  0.000998  -0.011272  0  4.002411  0
C  C49  1  0.54294600  0.89303682  0.66423655  1  0  -0.038688  0  3.786274  0  0  -0.016226  0  4.017723  0  0  -0.022664  0  4.042466  0  0  0.000173  -0.01222  0  4.000929  0
C  C50  1  0.07885765  0.90165548  0.67871019  1  0  -0.033359  0  3.680068  0  0  -0.063648  0  3.929744  0  0  -0.061123  0  3.949484  0  0  -0.065802  -0.064789  0  3.9161  0
C  C51  1  0.42114898  0.22257735  0.32135881  1  0  -0.033546  0  3.676985  0  0  -0.063722  0  3.926934  0  0  -0.061139  0  3.946701  0  0  -0.065791  -0.064905  0  3.913277  0
C  C52  1  0.92114352  0.09834467  0.32129019  1  0  -0.033344  0  3.680024  0  0  -0.063598  0  3.929659  0  0  -0.061072  0  3.949399  0  0  -0.065769  -0.064731  0  3.915995  0
C  C53  1  0.57884965  0.77742179  0.67864226  1  0  -0.033577  0  3.677057  0  0  -0.063763  0  3.92699  0  0  -0.061178  0  3.946755  0  0  -0.065807  -0.064945  0  3.913335  0
C  C54  1  0.29751222  0.93666881  0.84902620  1  0  0.125106  0  3.713294  0  0  0.089537  0  3.972883  0  0  0.096102  0  3.990629  0  0  0.046723  0.085462  0  3.960569  0
C  C55  1  0.20249085  0.08747742  0.15103761  1  0  0.125922  0  3.712761  0  0  0.09068  0  3.972353  0  0  0.097249  0  3.990061  0  0  0.047113  0.086609  0  3.960053  0
C  C56  1  0.70248760  0.06333033  0.15097433  1  0  0.125191  0  3.713305  0  0  0.089634  0  3.972861  0  0  0.096199  0  3.99061  0  0  0.046748  0.085558  0  3.960551  0
C  C57  1  0.79750692  0.91252375  0.84896175  1  0  0.125953  0  3.712757  0  0  0.090698  0  3.972343  0  0  0.097271  0  3.990053  0  0  0.047122  0.086627  0  3.960044  0
C  C58  1  0.13963351  0.73130537  0.74516717  1  0  0.10752  0  3.650253  0  0  0.06365  0  3.906489  0  0  0.069655  0  3.922606  0  0  0.057211  0.059932  0  3.895476  0
C  C59  1  0.36032658  0.98584920  0.25493889  1  0  0.108288  0  3.650931  0  0  0.064531  0  3.906952  0  0  0.070606  0  3.923091  0  0  0.058041  0.06073  0  3.895939  0
C  C60  1  0.86036648  0.26869478  0.25483299  1  0  0.10758  0  3.650123  0  0  0.0637  0  3.906358  0  0  0.069704  0  3.922471  0  0  0.057214  0.059984  0  3.895346  0
C  C61  1  0.63967103  0.01415095  0.74506161  1  0  0.10829  0  3.650927  0  0  0.064522  0  3.906942  0  0  0.0706  0  3.923082  0  0  0.058045  0.060722  0  3.895926  0
C  C62  1  0.20883171  0.98464125  0.77195751  1  0  -0.115605  0  3.752321  0  0  -0.126486  0  4.006615  0  0  -0.133948  0  4.029123  0  0  -0.087247  -0.121713  0  3.991198  0
C  C63  1  0.29115866  0.21244244  0.22812496  1  0  -0.11602  0  3.751986  0  0  -0.127213  0  4.006411  0  0  -0.134599  0  4.028868  0  0  -0.087621  -0.12249  0  3.99102  0
C  C64  1  0.79117153  0.01535692  0.22804023  1  0  -0.115754  0  3.752375  0  0  -0.126614  0  4.006683  0  0  -0.134087  0  4.029177  0  0  -0.087343  -0.121841  0  3.991274  0
C  C65  1  0.70883997  0.78755671  0.77187536  1  0  -0.116052  0  3.751971  0  0  -0.127244  0  4.006402  0  0  -0.134632  0  4.02886  0  0  -0.087633  -0.122522  0  3.991016  0
N  N66  1  0.81500327  0.71753337  0.48750806  1  0  -0.27257  0  2.822562  0  0  -0.275386  0  3.079281  0  0  -0.281907  0  3.092006  0  0  -0.189581  -0.271064  0  3.071237  0
N  N67  1  0.68490891  0.22962858  0.51249391  1  0  -0.272615  0  2.822994  0  0  -0.275931  0  3.079482  0  0  -0.282436  0  3.092174  0  0  -0.189519  -0.271632  0  3.071465  0
N  N68  1  0.18499537  0.28246578  0.51249149  1  0  -0.272494  0  2.822498  0  0  -0.275308  0  3.079201  0  0  -0.281829  0  3.091926  0  0  -0.189509  -0.270988  0  3.071159  0
N  N69  1  0.31508870  0.77037157  0.48750582  1  0  -0.272621  0  2.823049  0  0  -0.275947  0  3.07954  0  0  -0.282454  0  3.092233  0  0  -0.189546  -0.271648  0  3.071521  0
N  N70  1  0.69966549  0.61483145  0.42576382  1  0  0.200898  0  3.622266  0  0  0.291583  0  3.841951  0  0  0.287985  0  3.863598  0  0  -0.006077  0.293901  0  3.827088  0
N  N71  1  0.80039818  0.18881336  0.57431782  1  0  0.201007  0  3.623763  0  0  0.292196  0  3.842426  0  0  0.288632  0  3.864114  0  0  -0.00552  0.294501  0  3.827564  0
N  N72  1  0.30033449  0.38516870  0.57423635  1  0  0.200827  0  3.622242  0  0  0.291543  0  3.841928  0  0  0.287945  0  3.863574  0  0  -0.006133  0.293861  0  3.827066  0
N  N73  1  0.19960062  0.81118679  0.42568213  1  0  0.200957  0  3.623793  0  0  0.292169  0  3.842446  0  0  0.288602  0  3.864135  0  0  -0.005532  0.294475  0  3.827584  0
N  N74  1  0.71410037  0.51992864  0.46386583  1  0  -0.088627  0  2.855689  0  0  -0.098619  0  3.137041  0  0  -0.095137  0  3.145529  0  0  -0.065192  -0.100711  0  3.131647  0
N  N75  1  0.78621623  0.05586858  0.53634541  1  0  -0.088335  0  2.855914  0  0  -0.098646  0  3.137828  0  0  -0.09518  0  3.146347  0  0  -0.065545  -0.100728  0  3.132424  0
N  N76  1  0.28589842  0.48007150  0.53613488  1  0  -0.088633  0  2.855729  0  0  -0.098637  0  3.137091  0  0  -0.095155  0  3.14558  0  0  -0.065184  -0.100729  0  3.131698  0
N  N77  1  0.21378376  0.94413157  0.46365399  1  0  -0.088289  0  2.855929  0  0  -0.098606  0  3.137833  0  0  -0.095141  0  3.146354  0  0  -0.065512  -0.100689  0  3.13243  0
N  N78  1  0.84386583  0.56261910  0.55558848  1  0  -0.258597  0  2.906698  0  0  -0.25135  0  3.206814  0  0  -0.25819  0  3.216365  0  0  -0.196344  -0.246737  0  3.200687  0
N  N79  1  0.65644077  0.00671611  0.44462616  1  0  -0.258361  0  2.907166  0  0  -0.251535  0  3.20753  0  0  -0.258366  0  3.217095  0  0  -0.196324  -0.246936  0  3.201381  0
N  N80  1  0.15613312  0.43738206  0.44441187  1  0  -0.258625  0  2.906703  0  0  -0.251377  0  3.206828  0  0  -0.258215  0  3.216379  0  0  -0.196358  -0.246764  0  3.2007  0
N  N81  1  0.34355921  0.99328404  0.55537401  1  0  -0.258439  0  2.907165  0  0  -0.251613  0  3.207538  0  0  -0.258445  0  3.217102  0  0  -0.196364  -0.247013  0  3.201389  0
N  N82  1  0.26377084  0.81250703  0.83589090  1  0  -0.300614  0  3.196381  0  0  -0.232641  0  3.44426  0  0  -0.24717  0  3.46028  0  0  -0.301901  -0.222778  0  3.433113  0
N  N83  1  0.23621950  0.97644198  0.16420208  1  0  -0.301208  0  3.196389  0  0  -0.233891  0  3.444861  0  0  -0.248398  0  3.460802  0  0  -0.302881  -0.22402  0  3.433742  0
N  N84  1  0.73622882  0.18749111  0.16410924  1  0  -0.300653  0  3.196254  0  0  -0.232688  0  3.444147  0  0  -0.247215  0  3.460164  0  0  -0.301889  -0.222824  0  3.433  0
N  N85  1  0.76377929  0.02355817  0.83579787  1  0  -0.301226  0  3.196476  0  0  -0.23388  0  3.444923  0  0  -0.248395  0  3.460871  0  0  -0.302884  -0.224009  0  3.433801  0
Cl  Cl86  1  0.74998239  0.69957831  0.99994314  1  0  -0.686273  0  0.857768  0  0  -0.638714  0  1.084986  0  0  -0.658107  0  1.058694  0  0  -0.286351  -0.628713  0  1.098547  0
Cl  Cl87  1  0.25001879  0.30042185  0.00005648  1  0  -0.686272  0  0.857765  0  0  -0.63872  0  1.084977  0  0  -0.658106  0  1.05869  0  0  -0.286352  -0.628727  0  1.098547  0
O  O88  1  0.53219033  0.56345678  0.12169758  1  0  -0.800734  0  2.103605  0  0  -0.74418  0  2.359422  0  0  -0.778813  0  2.349374  0  0  -0.403502  -0.72584  0  2.365627  0
O  O89  1  0.96781127  0.44171216  0.87822674  1  0  -0.800912  0  2.102134  0  0  -0.74454  0  2.358286  0  0  -0.779226  0  2.348332  0  0  -0.403924  -0.72618  0  2.364427  0
O  O90  1  0.46781273  0.43654037  0.87830204  1  0  -0.80068  0  2.103536  0  0  -0.744128  0  2.359359  0  0  -0.778762  0  2.349303  0  0  -0.403458  -0.725787  0  2.365564  0
O  O91  1  0.03219291  0.55829199  0.12177489  1  0  -0.800906  0  2.102232  0  0  -0.744495  0  2.358374  0  0  -0.779181  0  2.348419  0  0  -0.403894  -0.726136  0  2.364515  0
O  O92  1  0.76736920  0.53015378  0.21694827  1  0  -0.680548  0  1.995113  0  0  -0.632508  0  2.239136  0  0  -0.660741  0  2.229685  0  0  -0.360179  -0.615824  0  2.245049  0
O  O93  1  0.73267343  0.31319971  0.78306562  1  0  -0.681569  0  1.995318  0  0  -0.633549  0  2.239402  0  0  -0.661742  0  2.2299  0  0  -0.360588  -0.616888  0  2.24536  0
O  O94  1  0.23263332  0.46984737  0.78305196  1  0  -0.680511  0  1.995241  0  0  -0.632448  0  2.239221  0  0  -0.660675  0  2.229769  0  0  -0.360158  -0.615763  0  2.245134  0
O  O95  1  0.26732704  0.68680344  0.21693573  1  0  -0.681628  0  1.995277  0  0  -0.633605  0  2.239389  0  0  -0.661796  0  2.229892  0  0  -0.36063  -0.616942  0  2.245347  0
O  O96  1  0.90575097  0.26546622  0.99970610  1  0  -0.909522  0  1.903406  0  0  -0.852301  0  2.103166  0  0  -0.877586  0  2.069695  0  0  -0.663971  -0.837923  0  2.124734  0
O  O97  1  0.59435840  0.26583499  0.00033195  1  0  -0.908896  0  1.904103  0  0  -0.851056  0  2.104452  0  0  -0.876409  0  2.071161  0  0  -0.664025  -0.836643  0  2.125878  0
O  O98  1  0.09424783  0.73453393  0.00029385  1  0  -0.909511  0  1.903434  0  0  -0.852296  0  2.103185  0  0  -0.877578  0  2.06972  0  0  -0.663984  -0.837917  0  2.124751  0
O  O99  1  0.40564040  0.73416517  0.99966800  1  0  -0.9089  0  1.904143  0  0  -0.851067  0  2.104471  0  0  -0.876415  0  2.071184  0  0  -0.664008  -0.836655  0  2.125896  0
