# generated using pymatgen
data_CdH12C16O5
_symmetry_space_group_name_H-M   'P 1'
_cell_length_a   4.97717025
_cell_length_b   8.49430333
_cell_length_c   15.94290452
_cell_angle_alpha   99.78481619
_cell_angle_beta   94.11799322
_cell_angle_gamma   92.79174597
_symmetry_Int_Tables_number   1
_chemical_formula_structural   CdH12C16O5
_chemical_formula_sum   'Cd2 H24 C32 O10'
_cell_volume   661.23441074
_cell_formula_units_Z   2
loop_
 _symmetry_equiv_pos_site_id
 _symmetry_equiv_pos_as_xyz
  1  'x, y, z'
loop_
 _atom_site_type_symbol
 _atom_site_label
 _atom_site_symmetry_multiplicity
 _atom_site_fract_x
 _atom_site_fract_y
 _atom_site_fract_z
 _atom_site_occupancy
 _atom_site_hle17_bader_spin_density
 _atom_site_hle17_ddec_charge
 _atom_site_hle17_ddec_spin_density
 _atom_site_hle17_ddec_sum_bond_order
 _atom_site_hle17_magmom
 _atom_site_hse06_10hf_bader_spin_density
 _atom_site_hse06_10hf_ddec_charge
 _atom_site_hse06_10hf_ddec_spin_density
 _atom_site_hse06_10hf_ddec_sum_bond_order
 _atom_site_hse06_10hf_magmom
 _atom_site_hse06_bader_spin_density
 _atom_site_hse06_ddec_charge
 _atom_site_hse06_ddec_spin_density
 _atom_site_hse06_ddec_sum_bond_order
 _atom_site_hse06_magmom
 _atom_site_pbe_bader_spin_density
 _atom_site_pbe_cm5_charge
 _atom_site_pbe_ddec_charge
 _atom_site_pbe_ddec_spin_density
 _atom_site_pbe_ddec_sum_bond_order
 _atom_site_pbe_magmom
Cd  Cd0  1  0.11856043  0.24201241  0.01283255  1  0  1.276812  0  1.538012  0  0  1.107768  0  1.977314  0  0  1.166286  0  1.91645  0  0  0.788197  1.06555  0  2.019496  0
Cd  Cd1  1  0.88137977  0.75801203  0.98717934  1  0  1.276875  0  1.537855  0  0  1.107776  0  1.977156  0  0  1.166293  0  1.916301  0  0  0.788214  1.065558  0  2.019333  0
H  H2  1  0.64351627  0.35533448  0.97189167  1  0  0.421903  0  0.888025  0  0  0.391209  0  0.951004  0  0  0.402342  0  0.935131  0  0  0.288948  0.383353  0  0.962162  0
H  H3  1  0.56053605  0.16472564  0.95762045  1  0  0.422564  0  0.866709  0  0  0.392483  0  0.941028  0  0  0.403747  0  0.924349  0  0  0.295178  0.384427  0  0.952301  0
H  H4  1  0.35643457  0.64469759  0.02810564  1  0  0.421706  0  0.888309  0  0  0.391029  0  0.951246  0  0  0.402145  0  0.935391  0  0  0.288921  0.383188  0  0.962389  0
H  H5  1  0.43940962  0.83531062  0.04238206  1  0  0.422482  0  0.866694  0  0  0.392387  0  0.941146  0  0  0.403654  0  0.92446  0  0  0.29516  0.384333  0  0.952338  0
H  H6  1  0.42730795  0.90205129  0.19080436  1  0  0.094659  0  0.951451  0  0  0.104323  0  1.014876  0  0  0.107191  0  1.01297  0  0  0.101918  0.10221  0  1.016372  0
H  H7  1  0.50898452  0.58766234  0.80753139  1  0  0.108381  0  0.932217  0  0  0.118818  0  0.990367  0  0  0.121701  0  0.988575  0  0  0.108248  0.116686  0  0.991774  0
H  H8  1  0.57261032  0.09798557  0.80918781  1  0  0.094573  0  0.951464  0  0  0.10421  0  1.014945  0  0  0.107086  0  1.013024  0  0  0.101856  0.102098  0  1.016444  0
H  H9  1  0.49111310  0.41235824  0.19245431  1  0  0.108422  0  0.931906  0  0  0.118847  0  0.99008  0  0  0.121726  0  0.988293  0  0  0.10833  0.116721  0  0.991479  0
H  H10  1  0.32115762  0.88505696  0.33682993  1  0  0.085677  0  0.996667  0  0  0.096956  0  1.058371  0  0  0.098662  0  1.060052  0  0  0.095135  0.095714  0  1.057343  0
H  H11  1  0.37799937  0.61325132  0.65896626  1  0  0.088247  0  0.984241  0  0  0.098251  0  1.047469  0  0  0.100052  0  1.049029  0  0  0.097145  0.096947  0  1.046493  0
H  H12  1  0.67871774  0.11497304  0.66315952  1  0  0.085473  0  0.996761  0  0  0.096803  0  1.05843  0  0  0.098509  0  1.060106  0  0  0.095008  0.095576  0  1.057386  0
H  H13  1  0.62212579  0.38673550  0.34101229  1  0  0.088438  0  0.984357  0  0  0.098296  0  1.047721  0  0  0.100102  0  1.049299  0  0  0.097172  0.096998  0  1.046739  0
H  H14  1  0.03466744  0.18876354  0.43533618  1  0  0.084921  0  0.966577  0  0  0.095631  0  1.031865  0  0  0.098099  0  1.031709  0  0  0.095437  0.093857  0  1.032106  0
H  H15  1  0.03587038  0.32764330  0.57535431  1  0  0.086577  0  0.963555  0  0  0.098224  0  1.02685  0  0  0.100841  0  1.026317  0  0  0.097999  0.096343  0  1.027358  0
H  H16  1  0.96526683  0.81119736  0.56467037  1  0  0.084958  0  0.966442  0  0  0.095634  0  1.031795  0  0  0.098103  0  1.031633  0  0  0.095448  0.093858  0  1.032036  0
H  H17  1  0.96425945  0.67231496  0.42465737  1  0  0.086475  0  0.963535  0  0  0.098263  0  1.026698  0  0  0.100896  0  1.026105  0  0  0.098045  0.096383  0  1.027207  0
H  H18  1  0.13263605  0.20892847  0.28743004  1  0  0.095991  0  0.988618  0  0  0.104268  0  1.053345  0  0  0.106483  0  1.053485  0  0  0.099778  0.102659  0  1.053333  0
H  H19  1  0.15717333  0.29738957  0.72514449  1  0  0.099308  0  0.968909  0  0  0.106975  0  1.034918  0  0  0.109213  0  1.034968  0  0  0.102543  0.105326  0  1.03501  0
H  H20  1  0.86733822  0.79105160  0.71258300  1  0  0.096138  0  0.988688  0  0  0.104421  0  1.053364  0  0  0.106638  0  1.053503  0  0  0.099835  0.102819  0  1.053335  0
H  H21  1  0.84293278  0.70260565  0.27487142  1  0  0.099499  0  0.968783  0  0  0.107121  0  1.03481  0  0  0.109347  0  1.034846  0  0  0.102479  0.105466  0  1.03491  0
H  H22  1  0.77039583  0.09118493  0.53432317  1  0  0.080997  0  0.983775  0  0  0.092491  0  1.049856  0  0  0.094763  0  1.049424  0  0  0.095584  0.090846  0  1.050289  0
H  H23  1  0.74950282  0.41269717  0.47046235  1  0  0.082114  0  0.981626  0  0  0.093508  0  1.048283  0  0  0.09575  0  1.047925  0  0  0.096693  0.09187  0  1.048684  0
H  H24  1  0.22949178  0.90879289  0.46567307  1  0  0.080976  0  0.983924  0  0  0.092452  0  1.050025  0  0  0.094727  0  1.04958  0  0  0.095504  0.090807  0  1.050458  0
H  H25  1  0.25061039  0.58725936  0.52952956  1  0  0.082305  0  0.981295  0  0  0.093619  0  1.048025  0  0  0.09586  0  1.047657  0  0  0.096837  0.091982  0  1.048425  0
C  C26  1  0.86126921  0.06335196  0.14029682  1  0  0.677594  0  3.873237  0  0  0.623367  0  4.164628  0  0  0.660549  0  4.156028  0  0  0.213184  0.598032  0  4.169581  0
C  C27  1  0.89835457  0.41482602  0.86523594  1  0  0.659173  0  3.88275  0  0  0.608713  0  4.169131  0  0  0.644454  0  4.161864  0  0  0.21279  0.584376  0  4.173232  0
C  C28  1  0.13864460  0.93665972  0.85970214  1  0  0.677569  0  3.872972  0  0  0.623406  0  4.164313  0  0  0.660592  0  4.155705  0  0  0.213103  0.598068  0  4.169273  0
C  C29  1  0.10168492  0.58518940  0.13476963  1  0  0.659062  0  3.883057  0  0  0.608749  0  4.169221  0  0  0.644494  0  4.161947  0  0  0.21276  0.584413  0  4.173319  0
C  C30  1  0.78853857  0.05635467  0.22899935  1  0  -0.069972  0  3.723979  0  0  -0.04444  0  3.954198  0  0  -0.053956  0  3.976317  0  0  -0.017318  -0.03826  0  3.939292  0
C  C31  1  0.83961124  0.43980650  0.77584798  1  0  -0.079586  0  3.748752  0  0  -0.056778  0  3.983673  0  0  -0.066948  0  4.006902  0  0  -0.020455  -0.050165  0  3.96802  0
C  C32  1  0.21140663  0.94364538  0.77099807  1  0  -0.070087  0  3.723856  0  0  -0.044755  0  3.954301  0  0  -0.054278  0  3.976426  0  0  -0.017407  -0.038573  0  3.939398  0
C  C33  1  0.16044870  0.56022522  0.22415364  1  0  -0.079467  0  3.74886  0  0  -0.056711  0  3.983675  0  0  -0.066891  0  4.006904  0  0  -0.020488  -0.050094  0  3.968012  0
C  C34  1  0.55982655  0.96547423  0.24440772  1  0  -0.038643  0  3.715085  0  0  -0.06577  0  3.968192  0  0  -0.063492  0  3.986401  0  0  -0.076997  -0.06709  0  3.955852  0
C  C35  1  0.62210444  0.53010601  0.75608911  1  0  -0.035593  0  3.712948  0  0  -0.06353  0  3.966667  0  0  -0.060853  0  3.984449  0  0  -0.073974  -0.065079  0  3.954554  0
C  C36  1  0.44009476  0.03453475  0.75558804  1  0  -0.038537  0  3.715503  0  0  -0.06558  0  3.968603  0  0  -0.063303  0  3.986818  0  0  -0.077012  -0.066904  0  3.956272  0
C  C37  1  0.37795207  0.46990417  0.24389371  1  0  -0.035736  0  3.71252  0  0  -0.063624  0  3.966165  0  0  -0.060947  0  3.983959  0  0  -0.07402  -0.065175  0  3.954051  0
C  C38  1  0.49974292  0.95685962  0.32725026  1  0  -0.115397  0  3.709728  0  0  -0.128648  0  3.949157  0  0  -0.133609  0  3.971526  0  0  -0.088457  -0.125382  0  3.934039  0
C  C39  1  0.54863517  0.54321644  0.67219424  1  0  -0.11372  0  3.707824  0  0  -0.126155  0  3.947283  0  0  -0.130965  0  3.968415  0  0  -0.084979  -0.122981  0  3.933001  0
C  C40  1  0.50014703  0.04317318  0.67275838  1  0  -0.115279  0  3.709713  0  0  -0.128544  0  3.949186  0  0  -0.133506  0  3.971556  0  0  -0.08834  -0.125292  0  3.934065  0
C  C41  1  0.45147060  0.45674975  0.32778236  1  0  -0.113891  0  3.708015  0  0  -0.126226  0  3.947428  0  0  -0.131054  0  3.968532  0  0  -0.085235  -0.123059  0  3.933149  0
C  C42  1  0.66708199  0.03765767  0.39835571  1  0  0.092908  0  3.810296  0  0  0.110683  0  4.038619  0  0  0.113008  0  4.06214  0  0  -0.010083  0.109254  0  4.02251  0
C  C43  1  0.69148962  0.46720388  0.60488640  1  0  0.09767  0  3.806656  0  0  0.115089  0  4.035585  0  0  0.117488  0  4.059215  0  0  -0.007627  0.113619  0  4.019392  0
C  C44  1  0.33284302  0.96233195  0.60164534  1  0  0.093227  0  3.809684  0  0  0.110931  0  4.038083  0  0  0.113258  0  4.061606  0  0  -0.009849  0.109499  0  4.021975  0
C  C45  1  0.30867894  0.53277238  0.39510589  1  0  0.097312  0  3.806489  0  0  0.114769  0  4.035358  0  0  0.117165  0  4.05898  0  0  -0.007593  0.113301  0  4.019171  0
C  C46  1  0.89757471  0.12756629  0.38196402  1  0  -0.135701  0  3.741932  0  0  -0.151118  0  3.991005  0  0  -0.156058  0  4.011297  0  0  -0.093836  -0.147845  0  3.977235  0
C  C47  1  0.91706143  0.38296147  0.62610878  1  0  -0.131053  0  3.73442  0  0  -0.14783  0  3.983729  0  0  -0.152851  0  4.003888  0  0  -0.090077  -0.14451  0  3.970039  0
C  C48  1  0.10235897  0.87242185  0.61804272  1  0  -0.135754  0  3.741939  0  0  -0.151166  0  3.991053  0  0  -0.156107  0  4.011352  0  0  -0.093924  -0.147888  0  3.977276  0
C  C49  1  0.08308058  0.61699705  0.37390368  1  0  -0.130751  0  3.733778  0  0  -0.147674  0  3.983028  0  0  -0.152684  0  4.003181  0  0  -0.090032  -0.144352  0  3.969336  0
C  C50  1  0.95542100  0.13822698  0.29902993  1  0  -0.057533  0  3.74463  0  0  -0.080654  0  3.988048  0  0  -0.078814  0  4.008379  0  0  -0.083322  -0.081657  0  3.974219  0
C  C51  1  0.98828179  0.36726427  0.71002697  1  0  -0.055117  0  3.743434  0  0  -0.078851  0  3.989851  0  0  -0.076499  0  4.009276  0  0  -0.080621  -0.080156  0  3.976601  0
C  C52  1  0.04449621  0.86176169  0.70097351  1  0  -0.057694  0  3.744402  0  0  -0.080738  0  3.987735  0  0  -0.078898  0  4.008066  0  0  -0.083351  -0.081739  0  3.973913  0
C  C53  1  0.01178023  0.63270381  0.28998513  1  0  -0.055185  0  3.743224  0  0  -0.078844  0  3.989672  0  0  -0.076463  0  4.009071  0  0  -0.080331  -0.080154  0  3.976424  0
C  C54  1  0.61215521  0.03318746  0.48649939  1  0  -0.110013  0  3.738008  0  0  -0.12934  0  3.988633  0  0  -0.131518  0  4.009171  0  0  -0.090923  -0.127735  0  3.974466  0
C  C55  1  0.61284533  0.46935682  0.51548511  1  0  -0.110116  0  3.743098  0  0  -0.130519  0  3.994786  0  0  -0.132635  0  4.015272  0  0  -0.089886  -0.128942  0  3.980638  0
C  C56  1  0.38774219  0.96679919  0.51349114  1  0  -0.11018  0  3.738078  0  0  -0.12946  0  3.988697  0  0  -0.131644  0  4.009242  0  0  -0.090771  -0.127851  0  3.974526  0
C  C57  1  0.38727194  0.53059756  0.48450798  1  0  -0.110093  0  3.742971  0  0  -0.130488  0  3.99473  0  0  -0.132595  0  4.015212  0  0  -0.090038  -0.128915  0  3.980583  0
O  O58  1  0.06798628  0.15479131  0.13337577  1  0  -0.648025  0  2.018459  0  0  -0.579287  0  2.279822  0  0  -0.61182  0  2.269491  0  0  -0.322243  -0.556411  0  2.286057  0
O  O59  1  0.05971471  0.30919164  0.87960129  1  0  -0.626584  0  2.000484  0  0  -0.560775  0  2.247379  0  0  -0.5918  0  2.238811  0  0  -0.314101  -0.539019  0  2.252495  0
O  O60  1  0.93199559  0.84522523  0.86663489  1  0  -0.64797  0  2.019215  0  0  -0.579175  0  2.280506  0  0  -0.611702  0  2.270173  0  0  -0.322068  -0.556305  0  2.286743  0
O  O61  1  0.94029822  0.69082060  0.12041829  1  0  -0.62653  0  2.000524  0  0  -0.560791  0  2.247362  0  0  -0.591817  0  2.238789  0  0  -0.314034  -0.539031  0  2.252475  0
O  O62  1  0.72064850  0.97980477  0.07658911  1  0  -0.689523  0  2.070708  0  0  -0.618307  0  2.326376  0  0  -0.647666  0  2.311484  0  0  -0.331034  -0.597628  0  2.335835  0
O  O63  1  0.76848030  0.49495027  0.92388684  1  0  -0.698257  0  2.079393  0  0  -0.623535  0  2.325333  0  0  -0.652243  0  2.310785  0  0  -0.339434  -0.60331  0  2.334665  0
O  O64  1  0.27932553  0.02022085  0.92341943  1  0  -0.689669  0  2.069765  0  0  -0.618537  0  2.325523  0  0  -0.647902  0  2.310626  0  0  -0.331161  -0.597853  0  2.334995  0
O  O65  1  0.23151557  0.50507326  0.07610421  1  0  -0.698216  0  2.079298  0  0  -0.623598  0  2.325195  0  0  -0.652298  0  2.310643  0  0  -0.339537  -0.603384  0  2.334532  0
O  O66  1  0.61750816  0.26047841  0.00143454  1  0  -0.840664  0  1.900026  0  0  -0.773125  0  2.106344  0  0  -0.798825  0  2.070962  0  0  -0.573474  -0.754802  0  2.130323  0
O  O67  1  0.38246127  0.73955215  0.99856729  1  0  -0.840448  0  1.900253  0  0  -0.772898  0  2.106684  0  0  -0.798582  0  2.071342  0  0  -0.573415  -0.754595  0  2.130549  0
