# generated using pymatgen
data_CoH10C4(NCl)2
_symmetry_space_group_name_H-M   'P 1'
_cell_length_a   6.24309070
_cell_length_b   10.32388289
_cell_length_c   11.88775757
_cell_angle_alpha   89.99846244
_cell_angle_beta   102.75008179
_cell_angle_gamma   90.00006975
_symmetry_Int_Tables_number   1
_chemical_formula_structural   CoH10C4(NCl)2
_chemical_formula_sum   'Co4 H40 C16 N8 Cl8'
_cell_volume   747.30791540
_cell_formula_units_Z   4
loop_
 _symmetry_equiv_pos_site_id
 _symmetry_equiv_pos_as_xyz
  1  'x, y, z'
loop_
 _atom_site_type_symbol
 _atom_site_label
 _atom_site_symmetry_multiplicity
 _atom_site_fract_x
 _atom_site_fract_y
 _atom_site_fract_z
 _atom_site_occupancy
 _atom_site_hle17_ddec_charge
 _atom_site_hle17_ddec_spin_density
 _atom_site_hle17_ddec_sum_bond_order
 _atom_site_hle17_magmom
 _atom_site_hse06_10hf_ddec_charge
 _atom_site_hse06_10hf_ddec_spin_density
 _atom_site_hse06_10hf_ddec_sum_bond_order
 _atom_site_hse06_10hf_magmom
 _atom_site_hse06_ddec_charge
 _atom_site_hse06_ddec_spin_density
 _atom_site_hse06_ddec_sum_bond_order
 _atom_site_hse06_magmom
 _atom_site_pbe_cm5_charge
 _atom_site_pbe_ddec_charge
 _atom_site_pbe_ddec_spin_density
 _atom_site_pbe_ddec_sum_bond_order
 _atom_site_pbe_magmom
Co  Co0  1  0.14391543  0.36318530  0.76735463  1  0.770263  2.742407  2.165091  2.433  0.731236  2.781933  2.625599  2.514  0.827689  2.840727  2.543436  2.624  0.524062  0.656621  2.729422  2.687977  2.42
Co  Co1  1  0.64392945  0.13680662  0.26734110  1  0.770269  2.74239  2.164847  2.433  0.731312  2.781927  2.625446  2.514  0.827748  2.84073  2.543363  2.624  0.524023  0.656715  2.729429  2.68779  2.42
Co  Co2  1  0.85608930  0.63681697  0.23266806  1  0.770309  2.742442  2.16549  2.433  0.731353  2.781866  2.626115  2.514  0.827832  2.840686  2.543924  2.624  0.524072  0.656769  2.729357  2.688489  2.42
Co  Co3  1  0.35606947  0.86318210  0.73264724  1  0.770325  2.742462  2.165491  2.433  0.731333  2.781886  2.62608  2.514  0.82779  2.840686  2.543903  2.624  0.524085  0.656737  2.729366  2.688483  2.42
H  H4  1  0.77079684  0.40285792  0.56053245  1  0.069238  0.000172  0.92475  0.001  0.085539  0.000385  0.989494  0.001  0.085319  0.000239  0.990345  0.0  0.104269  0.08568  0.000534  0.9889  0.001
H  H5  1  0.27079457  0.09714463  0.06051278  1  0.069091  0.000173  0.924672  0.001  0.085354  0.000386  0.989451  0.001  0.085139  0.00024  0.990306  0.0  0.104218  0.085495  0.000536  0.988851  0.001
H  H6  1  0.22921976  0.59713467  0.43947487  1  0.069216  0.000171  0.924679  0.001  0.08544  0.000385  0.989468  0.001  0.085249  0.000239  0.990292  0.0  0.104192  0.085583  0.000535  0.988863  0.001
H  H7  1  0.72919148  0.90285474  0.93946222  1  0.069271  0.00017  0.924828  0.001  0.085551  0.000384  0.989557  0.001  0.085359  0.000238  0.990373  0.0  0.104232  0.085692  0.000533  0.988963  0.001
H  H8  1  0.77701887  0.54991659  0.64001583  1  0.082894  0.000547  0.94478  0.001  0.096854  0.000719  1.011337  0.001  0.098266  0.000438  1.010318  0.001  0.098859  0.095537  0.001006  1.012611  0.001
H  H9  1  0.27701420  0.95007628  0.14000132  1  0.082898  0.000547  0.944722  0.001  0.096826  0.000719  1.011294  0.001  0.09825  0.000438  1.010264  0.001  0.098894  0.095502  0.001007  1.01259  0.001
H  H10  1  0.22296481  0.45005760  0.35999085  1  0.083  0.000545  0.944558  0.001  0.096916  0.000718  1.011151  0.001  0.098335  0.000437  1.010126  0.001  0.098926  0.095598  0.001006  1.012433  0.001
H  H11  1  0.72297825  0.04990662  0.85998202  1  0.082938  0.000545  0.944875  0.001  0.096909  0.000717  1.011383  0.001  0.098318  0.000437  1.010363  0.001  0.098826  0.095591  0.001005  1.012658  0.001
H  H12  1  0.36951624  0.41484176  0.57313558  1  0.075626  0.000393  0.930994  0.001  0.093195  0.000492  0.992172  0.001  0.092998  0.000299  0.993337  0.001  0.106188  0.093318  0.000703  0.991335  0.001
H  H13  1  0.86953002  0.08514246  0.07311547  1  0.075583  0.000395  0.930864  0.001  0.093084  0.000493  0.9922  0.001  0.092892  0.0003  0.993361  0.001  0.106194  0.093205  0.000703  0.991364  0.001
H  H14  1  0.63047724  0.58514211  0.42687481  1  0.075595  0.000395  0.930972  0.001  0.093134  0.000492  0.992255  0.001  0.092941  0.000299  0.993417  0.001  0.10617  0.093255  0.000702  0.991417  0.001
H  H15  1  0.13048569  0.91485401  0.92685892  1  0.075565  0.000392  0.931046  0.001  0.093161  0.000491  0.992313  0.001  0.092968  0.000298  0.993474  0.001  0.106143  0.093283  0.000701  0.991476  0.001
H  H16  1  0.99502630  0.26627632  0.96921895  1  0.069258  0.000793  0.943646  0.001  0.084906  0.000885  1.010623  0.001  0.084466  0.0006  1.011958  0.001  0.100303  0.085263  0.001164  1.009537  0.001
H  H17  1  0.49501685  0.23372382  0.46919791  1  0.069371  0.000794  0.943854  0.001  0.085058  0.000884  1.010716  0.001  0.084622  0.000599  1.012048  0.001  0.100404  0.085411  0.001163  1.009639  0.001
H  H18  1  0.00498500  0.73373080  0.03080454  1  0.069615  0.00079  0.943705  0.001  0.085242  0.000883  1.010595  0.001  0.084801  0.000598  1.011931  0.001  0.100506  0.085596  0.001162  1.009513  0.001
H  H19  1  0.50497070  0.76625231  0.53078315  1  0.069284  0.000791  0.943497  0.001  0.084861  0.000885  1.010479  0.001  0.08442  0.000599  1.011815  0.001  0.100266  0.085217  0.001164  1.009398  0.001
H  H20  1  0.22931776  0.36423607  0.02520239  1  0.072863  0.000149  0.948737  0.001  0.085356  0.000405  1.01956  0.001  0.086057  0.000228  1.019499  0.001  0.094811  0.084802  0.000594  1.01966  0.001
H  H21  1  0.72931416  0.13577341  0.52517436  1  0.073113  0.00015  0.949001  0.001  0.085608  0.000404  1.019751  0.001  0.086308  0.000228  1.01969  0.001  0.09491  0.085049  0.000593  1.019858  0.001
H  H22  1  0.77072955  0.63579236  0.97483054  1  0.073194  0.000146  0.949253  0.001  0.085657  0.000403  1.019997  0.001  0.086355  0.000227  1.019942  0.001  0.09489  0.085099  0.000592  1.020099  0.001
H  H23  1  0.27065039  0.86421531  0.47480474  1  0.073095  0.000146  0.948992  0.001  0.085574  0.000404  1.019709  0.001  0.086274  0.000228  1.019653  0.001  0.094838  0.085014  0.000593  1.019815  0.001
H  H24  1  0.24026727  0.58783697  0.94257771  1  0.073573  0.000185  0.937429  0.001  0.085185  0.000438  1.008123  0.001  0.085674  0.000249  1.008182  0.001  0.096863  0.084744  0.000638  1.008244  0.001
H  H25  1  0.74024557  0.91215322  0.44256051  1  0.073653  0.000184  0.937466  0.001  0.085204  0.000438  1.008189  0.001  0.085691  0.00025  1.008248  0.001  0.096875  0.084756  0.000639  1.008314  0.001
H  H26  1  0.75976871  0.41218565  0.05744627  1  0.073706  0.000183  0.937647  0.001  0.085269  0.000437  1.008316  0.001  0.085756  0.000249  1.008376  0.001  0.096934  0.084826  0.000638  1.008436  0.001
H  H27  1  0.25972066  0.08782581  0.55741711  1  0.073586  0.000181  0.93735  0.001  0.08521  0.000438  1.008004  0.001  0.0857  0.00025  1.008062  0.001  0.096898  0.084766  0.000639  1.008131  0.001
H  H28  1  0.01103673  0.64133560  0.83554177  1  0.077602  0.000175  0.955605  0.001  0.089235  0.000332  1.02591  0.001  0.089447  0.000102  1.026666  0.001  0.095151  0.088946  0.000579  1.025517  0.001
H  H29  1  0.51099521  0.85866400  0.33550890  1  0.077391  0.000177  0.955618  0.001  0.089064  0.000332  1.025864  0.001  0.089272  0.000102  1.026629  0.001  0.095041  0.08878  0.000578  1.02547  0.001
H  H30  1  0.98896479  0.35868605  0.16447717  1  0.07759  0.000174  0.955809  0.001  0.089231  0.000331  1.026063  0.001  0.089446  0.000101  1.026814  0.001  0.095081  0.088945  0.000577  1.025677  0.001
H  H31  1  0.48898917  0.14131406  0.66446674  1  0.077698  0.000172  0.955551  0.001  0.089261  0.000332  1.025873  0.001  0.089475  0.000102  1.026623  0.001  0.095142  0.088975  0.000578  1.025485  0.001
H  H32  1  0.83287265  0.43981814  0.85375644  1  0.257512  0.000287  0.921232  0.0  0.253336  0.001729  0.97485  0.002  0.259796  0.001182  0.971847  0.001  0.275189  0.248321  0.002284  0.977635  0.002
H  H33  1  0.33286203  0.06019855  0.35372999  1  0.25741  0.000289  0.921323  0.0  0.253294  0.00173  0.974933  0.002  0.259752  0.001182  0.97194  0.001  0.275095  0.248282  0.002285  0.977724  0.002
H  H34  1  0.16716973  0.56019866  0.14627589  1  0.257474  0.000286  0.921096  0.0  0.253347  0.001731  0.974767  0.002  0.259811  0.001183  0.971758  0.001  0.275006  0.248332  0.002286  0.977562  0.002
H  H35  1  0.66714212  0.93978242  0.64624553  1  0.257591  0.000291  0.921254  0.0  0.253472  0.00173  0.974767  0.002  0.259929  0.001182  0.971778  0.001  0.275148  0.24846  0.002285  0.977557  0.002
H  H36  1  0.16000234  0.56528214  0.65117859  1  0.252657  -0.001109  0.922542  -0.001  0.243591  0.000511  0.985249  0.001  0.249261  0.000178  0.98347  0.001  0.277939  0.239072  0.00103  0.987167  0.001
H  H37  1  0.65999224  0.93473160  0.15116526  1  0.252715  -0.001111  0.922619  -0.001  0.243648  0.00051  0.985352  0.001  0.249323  0.000177  0.983548  0.001  0.278012  0.239128  0.001028  0.987281  0.001
H  H38  1  0.83998794  0.43471142  0.34882804  1  0.252651  -0.001107  0.922508  -0.001  0.243606  0.000513  0.985268  0.001  0.249286  0.00018  0.983462  0.001  0.277872  0.239088  0.001031  0.987201  0.001
H  H39  1  0.33998062  0.06530457  0.84881065  1  0.252554  -0.001109  0.922486  -0.001  0.243644  0.000513  0.985067  0.001  0.249275  0.00018  0.983329  0.001  0.277695  0.239153  0.001031  0.98696  0.001
H  H40  1  0.12743117  0.32353396  0.51613512  1  0.074973  0.000284  0.949971  0.001  0.088884  0.000504  1.01755  0.001  0.089435  0.000317  1.017899  0.001  0.098472  0.088333  0.000689  1.017536  0.001
H  H41  1  0.62744236  0.17645781  0.01611436  1  0.074688  0.000287  0.949544  0.001  0.088703  0.000504  1.017103  0.001  0.089258  0.000318  1.017446  0.001  0.098387  0.088151  0.00069  1.017083  0.001
H  H42  1  0.87256875  0.67645669  0.48388194  1  0.074829  0.000286  0.949815  0.001  0.088837  0.000503  1.017337  0.001  0.089388  0.000317  1.017689  0.001  0.098414  0.088282  0.00069  1.017319  0.001
H  H43  1  0.37258480  0.82355319  0.98386311  1  0.074947  0.000282  0.949967  0.001  0.088937  0.000502  1.017533  0.001  0.089482  0.000316  1.017885  0.001  0.098475  0.088385  0.000688  1.017516  0.001
C  C44  1  0.84821819  0.49893077  0.57573083  1  0.000401  0.002818  3.608387  0.003  -0.054763  0.004694  3.870321  0.004  -0.050489  0.003259  3.882081  0.003  -0.075622  -0.057799  0.006186  3.862552  0.006
C  C45  1  0.34828246  0.00106497  0.07572213  1  0.000517  0.002819  3.609026  0.003  -0.054469  0.00469  3.870962  0.004  -0.050215  0.003256  3.882738  0.003  -0.075515  -0.057501  0.006181  3.863182  0.006
C  C46  1  0.15179140  0.50104439  0.42429582  1  0.000277  0.00283  3.607934  0.003  -0.054777  0.004695  3.869905  0.004  -0.050532  0.003261  3.881672  0.003  -0.075668  -0.05781  0.006188  3.862142  0.006
C  C47  1  0.65181643  0.99894603  0.92428764  1  8.7e-05  0.002831  3.608051  0.003  -0.055034  0.004698  3.87011  0.004  -0.050757  0.003261  3.881824  0.003  -0.075707  -0.058078  0.006191  3.862365  0.006
C  C48  1  0.19274163  0.42193916  0.53554682  1  -0.00576  0.001974  3.622971  0.002  -0.06106  0.004059  3.882024  0.004  -0.057268  0.002753  3.895089  0.002  -0.078183  -0.063671  0.005465  3.873111  0.005
C  C49  1  0.69275676  0.07802814  0.03553699  1  -0.00518  0.001966  3.622472  0.002  -0.060568  0.004057  3.881873  0.004  -0.056781  0.002753  3.894913  0.002  -0.078069  -0.063175  0.005462  3.872945  0.005
C  C50  1  0.80724646  0.57803600  0.46448395  1  -0.005377  0.00197  3.621871  0.002  -0.060746  0.004062  3.881248  0.004  -0.056961  0.002757  3.894296  0.002  -0.078036  -0.063355  0.005468  3.872333  0.005
C  C51  1  0.30724470  0.92195185  0.96448447  1  -0.005547  0.00198  3.621921  0.002  -0.061067  0.004064  3.881388  0.004  -0.057258  0.002758  3.894418  0.002  -0.078231  -0.063689  0.00547  3.872491  0.005
C  C52  1  0.05009961  0.36549396  0.99293921  1  -0.008122  0.00273  3.628568  0.002  -0.064948  0.004788  3.890541  0.004  -0.061259  0.003271  3.904162  0.003  -0.081957  -0.067301  0.006276  3.880879  0.006
C  C53  1  0.55014458  0.13452979  0.49293955  1  -0.008557  0.00272  3.629204  0.002  -0.065186  0.004788  3.890844  0.004  -0.061494  0.003271  3.904459  0.003  -0.082154  -0.067539  0.006276  3.881203  0.006
C  C54  1  0.94985646  0.63455094  0.00705064  1  -0.00891  0.002744  3.629164  0.002  -0.065458  0.004791  3.890856  0.004  -0.061763  0.003274  3.904457  0.003  -0.082293  -0.067814  0.00628  3.881205  0.006
C  C55  1  0.44984280  0.86547442  0.50704907  1  -0.008601  0.002749  3.628468  0.002  -0.065105  0.004791  3.890026  0.004  -0.061414  0.003272  3.903649  0.003  -0.082006  -0.067467  0.006279  3.880384  0.006
C  C56  1  0.06056249  0.58265868  0.91406337  1  -0.004818  0.002899  3.615314  0.003  -0.057501  0.004751  3.874617  0.004  -0.053661  0.003205  3.888083  0.003  -0.081593  -0.060021  0.006302  3.865289  0.006
C  C57  1  0.56055242  0.91733828  0.41404337  1  -0.004558  0.002889  3.614556  0.003  -0.057094  0.004752  3.873766  0.004  -0.053244  0.003205  3.887217  0.003  -0.081513  -0.059623  0.006303  3.864462  0.006
C  C58  1  0.93942582  0.41734166  0.08595733  1  -0.005017  0.002903  3.614987  0.003  -0.057526  0.004754  3.87424  0.004  -0.05368  0.003208  3.887683  0.003  -0.081657  -0.060057  0.006306  3.864936  0.006
C  C59  1  0.43944830  0.08266399  0.58593846  1  -0.004857  0.00292  3.614902  0.003  -0.057389  0.004752  3.87409  0.004  -0.053545  0.003204  3.887556  0.003  -0.081639  -0.059916  0.006302  3.864783  0.006
N  N60  1  0.08572333  0.47776358  0.62414455  1  -0.391282  0.047018  3.284986  0.073  -0.338927  0.034994  3.561379  0.046  -0.369144  0.026722  3.573576  0.035  -0.493373  -0.316395  0.041576  3.553197  0.055
N  N61  1  0.58572370  0.02223274  0.12411378  1  -0.391214  0.046989  3.285617  0.073  -0.339017  0.034976  3.562267  0.046  -0.369327  0.026707  3.574703  0.035  -0.493464  -0.31649  0.041556  3.554094  0.055
N  N62  1  0.91426892  0.52224160  0.37584718  1  -0.391371  0.047003  3.284026  0.073  -0.339225  0.034991  3.560772  0.046  -0.369518  0.026719  3.573106  0.035  -0.493348  -0.316707  0.04157  3.552635  0.055
N  N63  1  0.41426501  0.97774144  0.87581611  1  -0.39126  0.047011  3.282815  0.073  -0.339031  0.034993  3.559389  0.046  -0.36926  0.026724  3.571685  0.035  -0.492959  -0.316532  0.041572  3.551223  0.055
N  N64  1  0.00058517  0.44549117  0.88649594  1  -0.390644  0.052327  3.275913  0.081  -0.337932  0.038774  3.549243  0.052  -0.369598  0.029626  3.562157  0.04  -0.497749  -0.314778  0.046216  3.540575  0.062
N  N65  1  0.50058877  0.05453100  0.38647890  1  -0.390608  0.052352  3.27535  0.081  -0.33827  0.038788  3.54909  0.052  -0.369944  0.029635  3.561974  0.04  -0.497585  -0.31508  0.04623  3.540369  0.062
N  N66  1  0.99939475  0.55455566  0.11353131  1  -0.390666  0.052357  3.274669  0.081  -0.33822  0.038796  3.548203  0.052  -0.369922  0.029639  3.561142  0.04  -0.497407  -0.315062  0.046241  3.539577  0.062
N  N67  1  0.49940996  0.94547031  0.61351782  1  -0.390886  0.052336  3.275292  0.081  -0.338422  0.038791  3.548777  0.052  -0.370088  0.029636  3.561637  0.04  -0.497635  -0.315249  0.046236  3.540087  0.062
Cl  Cl68  1  0.50222408  0.32700014  0.82908484  1  -0.535112  0.071109  1.015633  0.101  -0.506628  0.0582  1.305386  0.071  -0.538064  0.042068  1.278162  0.051  -0.279373  -0.48163  0.072777  1.325618  0.088
Cl  Cl69  1  0.00223192  0.17300206  0.32908042  1  -0.535097  0.071104  1.015732  0.101  -0.506595  0.058195  1.305495  0.071  -0.538022  0.042063  1.27829  0.051  -0.279346  -0.481606  0.072768  1.325723  0.088
Cl  Cl70  1  0.49777418  0.67299632  0.17093286  1  -0.535129  0.071099  1.015726  0.101  -0.506677  0.0582  1.305508  0.071  -0.538121  0.042064  1.278301  0.051  -0.279386  -0.481676  0.072778  1.325735  0.088
Cl  Cl71  1  0.99778652  0.82700603  0.67091870  1  -0.535071  0.071111  1.015848  0.101  -0.506613  0.058211  1.305614  0.071  -0.538058  0.042075  1.278399  0.051  -0.279369  -0.481625  0.072792  1.32585  0.088
Cl  Cl72  1  0.99519125  0.16647747  0.73725742  1  -0.541053  0.074822  0.994344  0.107  -0.515542  0.061427  1.286209  0.077  -0.548879  0.044555  1.259941  0.055  -0.284271  -0.489029  0.076578  1.305632  0.094
Cl  Cl73  1  0.49520009  0.33353494  0.23726181  1  -0.541062  0.074818  0.994141  0.107  -0.515517  0.061419  1.286009  0.077  -0.548836  0.044545  1.259741  0.055  -0.284278  -0.489  0.076567  1.305415  0.094
Cl  Cl74  1  0.00480559  0.83353159  0.26275001  1  -0.541104  0.074811  0.994328  0.107  -0.515557  0.06143  1.286204  0.077  -0.548863  0.044552  1.25989  0.055  -0.284283  -0.48904  0.076583  1.305617  0.094
Cl  Cl75  1  0.50481180  0.66646733  0.76273568  1  -0.541091  0.07481  0.99417  0.107  -0.515552  0.061426  1.286026  0.077  -0.548888  0.044551  1.259742  0.055  -0.284301  -0.489041  0.076581  1.305439  0.094
