# generated using pymatgen
data_MnH10(C7N5)2
_symmetry_space_group_name_H-M   'P 1'
_cell_length_a   7.82036736
_cell_length_b   8.27793115
_cell_length_c   11.45704297
_cell_angle_alpha   93.39369916
_cell_angle_beta   102.14005805
_cell_angle_gamma   101.56782193
_symmetry_Int_Tables_number   1
_chemical_formula_structural   MnH10(C7N5)2
_chemical_formula_sum   'Mn2 H20 C28 N20'
_cell_volume   706.38360982
_cell_formula_units_Z   2
loop_
 _symmetry_equiv_pos_site_id
 _symmetry_equiv_pos_as_xyz
  1  'x, y, z'
loop_
 _atom_site_type_symbol
 _atom_site_label
 _atom_site_symmetry_multiplicity
 _atom_site_fract_x
 _atom_site_fract_y
 _atom_site_fract_z
 _atom_site_occupancy
 _atom_site_hle17_ddec_charge
 _atom_site_hle17_ddec_spin_density
 _atom_site_hle17_ddec_sum_bond_order
 _atom_site_hle17_magmom
 _atom_site_hse06_10hf_ddec_charge
 _atom_site_hse06_10hf_ddec_spin_density
 _atom_site_hse06_10hf_ddec_sum_bond_order
 _atom_site_hse06_10hf_magmom
 _atom_site_hse06_ddec_charge
 _atom_site_hse06_ddec_spin_density
 _atom_site_hse06_ddec_sum_bond_order
 _atom_site_hse06_magmom
 _atom_site_pbe_cm5_charge
 _atom_site_pbe_ddec_charge
 _atom_site_pbe_ddec_spin_density
 _atom_site_pbe_ddec_sum_bond_order
 _atom_site_pbe_magmom
Mn  Mn0  1  0.85188472  0.06096883  0.07636126  1  0.955228  -4.725023  2.169037  -4.57  0.803293  -4.590106  2.704293  -4.389  0.854874  -4.690377  2.643704  -4.495  0.655683  0.760631  -4.474935  2.751883  -4.269
Mn  Mn1  1  0.14812222  0.93905343  0.92363025  1  0.954963  4.725042  2.169026  4.57  0.802938  4.590149  2.704384  4.389  0.854534  4.690418  2.643786  4.495  0.655517  0.760285  4.474984  2.751949  4.269
H  H2  1  0.63634465  0.86850624  0.25742786  1  0.072126  3.4e-05  0.952898  0.0  0.07781  -0.000314  1.024203  0.0  0.080534  -0.000155  1.020885  0.0  0.112943  0.075682  -0.000469  1.026866  0.0
H  H3  1  0.36366188  0.13148909  0.74257253  1  0.072067  -3.5e-05  0.953104  0.0  0.07777  0.000315  1.024365  0.0  0.0805  0.000156  1.021043  0.0  0.112939  0.075646  0.00047  1.027032  0.0
H  H4  1  0.45927551  0.65106362  0.52366164  1  0.26295  3.1e-05  0.915727  0.0  0.254587  7.7e-05  0.971978  0.0  0.258154  5.3e-05  0.97109  0.0  0.309895  0.252166  0.000111  0.972423  0.0
H  H5  1  0.54073947  0.34895251  0.47634403  1  0.262978  -3.1e-05  0.915751  0.0  0.25458  -7.7e-05  0.972016  0.0  0.258146  -5.3e-05  0.971128  0.0  0.309938  0.252161  -0.000111  0.972456  0.0
H  H6  1  0.84439296  0.13865768  0.60766235  1  0.091469  -5.9e-05  0.977431  0.0  0.098489  -0.000131  1.048997  0.0  0.101662  -0.000123  1.0455  0.0  0.104564  0.096  -0.000139  1.051915  0.0
H  H7  1  0.15563089  0.86134067  0.39232664  1  0.091386  5.7e-05  0.977159  0.0  0.098342  0.000132  1.048839  0.0  0.101505  0.000124  1.045352  0.0  0.104512  0.095856  0.00014  1.051758  0.0
H  H8  1  0.11880868  0.37666208  0.01121592  1  0.079815  -0.000762  0.943864  0.0  0.08595  -0.001435  1.01348  -0.001  0.089181  -0.001228  1.009863  0.0  0.11718  0.083532  -0.001613  1.016318  -0.001
H  H9  1  0.88119587  0.62336430  0.98878892  1  0.079773  0.000763  0.943813  0.0  0.085936  0.001435  1.013425  0.001  0.089185  0.001228  1.009762  0.0  0.117159  0.083518  0.001614  1.016273  0.001
H  H10  1  0.08931489  0.27404205  0.70355183  1  0.271838  -0.000144  0.90373  0.0  0.264555  -0.000225  0.955319  0.0  0.267527  -0.000218  0.955229  0.0  0.314221  0.262582  -0.000222  0.955194  0.0
H  H11  1  0.91067597  0.72592649  0.29645878  1  0.27183  0.000144  0.903946  0.0  0.264583  0.000225  0.955412  0.0  0.267551  0.000218  0.955326  0.0  0.314336  0.262608  0.000222  0.955287  0.0
H  H12  1  0.26872427  0.52040470  0.82727009  1  0.09837  -0.000733  0.963239  0.0  0.109511  -0.000954  1.023358  0.0  0.110614  -0.00093  1.024145  0.0  0.115409  0.108774  -0.000964  1.022698  0.0
H  H13  1  0.73125363  0.47959471  0.17275016  1  0.098356  0.000732  0.963337  0.0  0.109545  0.000953  1.023429  0.0  0.110615  0.00093  1.024246  0.0  0.115435  0.108802  0.000964  1.022765  0.0
H  H14  1  0.62104598  0.91717220  0.47480268  1  0.098107  -0.000204  0.953094  0.0  0.10754  -0.000154  1.017791  0.0  0.111141  -0.000136  1.015857  0.0  0.102592  0.104792  -0.000173  1.019617  0.0
H  H15  1  0.37895769  0.08284621  0.52519083  1  0.098195  0.000205  0.952764  0.0  0.107626  0.000154  1.017493  0.0  0.111237  0.000136  1.015549  0.0  0.102639  0.104876  0.000173  1.019322  0.0
H  H16  1  0.38588864  0.68112995  0.34272983  1  0.089226  5e-05  0.953487  0.0  0.100085  -6.5e-05  1.019543  0.0  0.103148  -3.9e-05  1.016324  0.0  0.104817  0.097816  -9.2e-05  1.022093  0.0
H  H17  1  0.61411502  0.31883631  0.65727465  1  0.089262  -5e-05  0.953013  0.0  0.100112  6.5e-05  1.019119  0.0  0.103173  3.9e-05  1.015906  0.0  0.10473  0.097847  9.2e-05  1.021665  0.0
H  H18  1  0.46776607  0.72006373  0.72978704  1  0.101355  -0.000258  0.968803  0.0  0.108055  -0.000405  1.035338  0.0  0.108916  -0.000356  1.036926  0.0  0.11478  0.1075  -0.000452  1.034  0.0
H  H19  1  0.53224346  0.27994899  0.27023276  1  0.101369  0.000258  0.968883  0.0  0.108084  0.000405  1.03537  0.0  0.108943  0.000356  1.036964  0.0  0.11482  0.107526  0.000452  1.034032  0.0
H  H20  1  0.32558468  0.63795865  0.12022037  1  0.102973  -0.000843  0.989421  0.0  0.110607  -0.001089  1.051774  0.0  0.113261  -0.001009  1.051577  0.0  0.104692  0.108629  -0.001156  1.052192  0.0
H  H21  1  0.67440809  0.36205438  0.87979891  1  0.102967  0.000843  0.989284  0.0  0.110598  0.001089  1.051695  0.0  0.113261  0.001009  1.051481  0.0  0.104675  0.108633  0.001157  1.0521  0.0
C  C22  1  0.73063145  0.96837298  0.31852887  1  0.13124  -0.003315  3.716111  -0.003  0.093312  -0.005294  3.985818  -0.005  0.105095  -0.004748  3.996682  -0.004  0.04314  0.084716  -0.0058  3.979217  -0.005
C  C23  1  0.26938475  0.03163544  0.68146128  1  0.131176  0.003331  3.716461  0.003  0.093325  0.005284  3.986091  0.005  0.105106  0.00474  3.996963  0.004  0.043038  0.084721  0.005788  3.979502  0.005
C  C24  1  0.08021778  0.31034894  0.28542942  1  0.129345  -0.001457  3.772911  -0.001  0.120152  -0.003745  4.017622  -0.003  0.124686  -0.003057  4.037027  -0.003  0.114414  0.116672  -0.004372  4.004882  -0.004
C  C25  1  0.91978197  0.68965525  0.71457121  1  0.129303  0.001441  3.773664  0.001  0.120225  0.003739  4.018306  0.003  0.124758  0.00305  4.037715  0.003  0.114433  0.116745  0.004365  4.005566  0.004
C  C26  1  0.85011902  0.11977925  0.51391071  1  -0.037128  -0.002915  3.69621  -0.002  -0.073424  -0.003902  3.962888  -0.003  -0.066273  -0.0039  3.97474  -0.003  -0.077329  -0.078953  -0.003816  3.955818  -0.003
C  C27  1  0.14985904  0.88020090  0.48609813  1  -0.036743  0.00294  3.695163  0.002  -0.072881  0.0039  3.96174  0.003  -0.065737  0.003899  3.973641  0.003  -0.07709  -0.078383  0.003814  3.954599  0.003
C  C28  1  0.20423127  0.44871016  0.35677252  1  -0.050422  0.000142  3.795208  0.0  -0.044086  -0.000293  4.046955  0.0  -0.043598  6.7e-05  4.064708  0.0  -0.011507  -0.044551  -0.000586  4.035705  0.0
C  C29  1  0.79580413  0.55130878  0.64320620  1  -0.049695  -0.000136  3.794873  0.0  -0.043621  0.000295  4.046773  0.0  -0.043129  -6.6e-05  4.064521  0.0  -0.01123  -0.04409  0.000586  4.035528  0.0
C  C30  1  0.22851048  0.46266415  0.48465623  1  0.103423  0.000358  3.791844  0.0  0.085919  0.000294  4.058112  0.0  0.089757  0.000394  4.079933  0.0  0.089007  0.082657  0.000247  4.043655  0.0
C  C31  1  0.77149818  0.53732432  0.51533406  1  0.103283  -0.00037  3.792229  0.0  0.085962  -0.000295  4.058417  0.0  0.089796  -0.000396  4.080238  0.0  0.089039  0.082703  -0.000247  4.043957  0.0
C  C32  1  0.96864099  0.19496352  0.34127549  1  0.135464  -0.001869  3.777716  -0.002  0.126652  -0.004059  4.020716  -0.004  0.131377  -0.003451  4.040919  -0.003  0.115638  0.123058  -0.004572  4.007499  -0.004
C  C33  1  0.03136811  0.80503530  0.65872808  1  0.135496  0.001883  3.778268  0.002  0.126744  0.004058  4.021124  0.004  0.13147  0.00345  4.041331  0.003  0.115719  0.123149  0.00457  4.007907  0.004
C  C34  1  0.11760627  0.35261942  0.53849064  1  0.115934  -0.000229  3.796621  0.0  0.101116  -0.000156  4.055028  0.0  0.104252  -0.000121  4.07944  0.0  0.097435  0.09874  -0.000246  4.038496  0.0
C  C35  1  0.88238089  0.64736212  0.46149629  1  0.116194  0.000242  3.797203  0.0  0.10125  0.000155  4.055659  0.0  0.104386  0.000124  4.080069  0.0  0.097471  0.098867  0.000245  4.03912  0.0
C  C36  1  0.14403400  0.40150222  0.10850969  1  0.14033  -0.003249  3.684296  -0.003  0.105697  -0.005672  3.941706  -0.004  0.114811  -0.004971  3.95596  -0.004  0.053631  0.099176  -0.006401  3.932421  -0.005
C  C37  1  0.85597425  0.59850279  0.89149525  1  0.140301  0.003226  3.684538  0.003  0.105662  0.005658  3.941955  0.004  0.114779  0.004957  3.956225  0.004  0.053565  0.099139  0.006386  3.932673  0.005
C  C38  1  0.98048488  0.22251566  0.46661542  1  -0.048142  0.000448  3.797425  0.0  -0.033956  8e-06  4.031461  0.0  -0.035942  0.000431  4.052149  0.0  -0.009336  -0.03261  -0.000403  4.018004  0.0
C  C39  1  0.01947165  0.77743471  0.53339408  1  -0.048407  -0.00046  3.797646  0.0  -0.034238  -9e-06  4.031719  0.0  -0.036231  -0.000433  4.052413  0.0  -0.009431  -0.032883  0.000402  4.018252  0.0
C  C40  1  0.26430190  0.50534994  0.73186624  1  -0.007605  0.000211  3.783989  0.0  -0.04423  3.6e-05  4.05574  0.0  -0.044329  -0.000123  4.081362  0.0  -0.011719  -0.043464  0.000418  4.036567  0.0
C  C41  1  0.73568647  0.49463645  0.26814054  1  -0.007498  -0.000212  3.784232  0.0  -0.044176  -3.9e-05  4.055983  0.0  -0.044253  0.000124  4.08162  0.0  -0.011718  -0.0434  -0.000423  4.036783  0.0
C  C42  1  0.72449569  0.99394542  0.43951676  1  -0.116085  0.001156  3.750054  0.001  -0.132195  0.000917  4.018214  0.001  -0.137545  0.001244  4.033635  0.001  -0.091629  -0.128993  0.000765  4.008963  0.001
C  C43  1  0.27550546  0.00605015  0.56048143  1  -0.11652  -0.001178  3.749879  -0.001  -0.132719  -0.000916  4.018125  -0.001  -0.138084  -0.001244  4.033541  -0.001  -0.091849  -0.129506  -0.000763  4.008879  -0.001
C  C44  1  0.29469512  0.56864102  0.29456301  1  -0.043767  -0.002356  3.708828  -0.002  -0.076977  -0.003629  3.975269  -0.003  -0.071667  -0.003331  3.987529  -0.003  -0.076393  -0.081054  -0.004072  3.967879  -0.003
C  C45  1  0.70533251  0.43138291  0.70543568  1  -0.044448  0.002344  3.708589  0.002  -0.077564  0.003621  3.975105  0.003  -0.07226  0.003324  3.987386  0.003  -0.076526  -0.081638  0.004065  3.967713  0.003
C  C46  1  0.37052953  0.61242824  0.68034227  1  -0.004216  -0.000657  3.794175  0.0  -0.038132  -0.000616  4.066331  0.0  -0.03811  -0.000712  4.093383  0.0  -0.011176  -0.03715  -0.000533  4.046074  0.0
C  C47  1  0.62947441  0.38756280  0.31966627  1  -0.004204  0.000658  3.794341  0.0  -0.038157  0.000616  4.066588  0.0  -0.038139  0.000709  4.093632  0.0  -0.011212  -0.037169  0.00053  4.046317  0.0
C  C48  1  0.26265811  0.54582935  0.17085577  1  -0.115803  0.000411  3.743813  0.0  -0.12901  1e-06  4.001436  0.0  -0.134499  0.000362  4.020406  0.0  -0.088515  -0.125807  -0.000162  3.989548  0.0
C  C49  1  0.73733883  0.45417857  0.82914584  1  -0.11564  -0.000402  3.743905  0.0  -0.128854  1e-06  4.001479  0.0  -0.13434  -0.000359  4.020449  0.0  -0.088427  -0.125659  0.000165  3.989585  0.0
N  N50  1  0.50579660  0.81566746  0.99697501  1  0.397388  -0.003719  4.198096  -0.004  0.438153  -0.005569  4.467766  -0.006  0.45536  -0.004332  4.499295  -0.004  0.093301  0.425554  -0.007005  4.444956  -0.007
N  N51  1  0.49417680  0.18435319  0.00302928  1  0.397364  0.003725  4.197944  0.004  0.438163  0.005574  4.467565  0.006  0.455366  0.004333  4.499097  0.004  0.093383  0.425566  0.007006  4.444758  0.007
N  N52  1  0.91195784  0.07436745  0.89893046  1  -0.584275  0.00394  2.754458  0.008  -0.550507  0.00291  3.082484  0.008  -0.578965  0.003911  3.086317  0.009  -0.295233  -0.527807  0.002129  3.078956  0.007
N  N53  1  0.08808350  0.92567165  0.10104537  1  -0.584137  -0.003956  2.754863  -0.008  -0.550323  -0.002931  3.082883  -0.008  -0.578759  -0.003918  3.086671  -0.009  -0.295262  -0.527645  -0.002138  3.07942  -0.007
N  N54  1  0.78801691  0.03213513  0.81274394  1  0.394411  -0.001676  4.210531  -0.001  0.42526  -0.003096  4.50087  -0.003  0.441911  -0.002446  4.531819  -0.002  0.086951  0.413471  -0.003663  4.478479  -0.003
N  N55  1  0.21200462  0.96787952  0.18724549  1  0.394102  0.001681  4.210667  0.001  0.424893  0.003103  4.501048  0.003  0.441547  0.002452  4.532005  0.002  0.08691  0.413096  0.00367  4.478648  0.003
N  N56  1  0.66272115  0.83172769  0.03471221  1  -0.490281  0.051562  2.64413  0.07  -0.478514  0.040421  2.942367  0.061  -0.497525  0.048577  2.946369  0.069  -0.259346  -0.46345  0.03516  2.939762  0.056
N  N57  1  0.33725300  0.16832532  0.96529513  1  -0.490079  -0.051555  2.644061  -0.069  -0.478311  -0.040415  2.942318  -0.061  -0.497325  -0.04858  2.946334  -0.069  -0.259213  -0.46325  -0.035156  2.939701  -0.056
N  N58  1  0.05516094  0.28770295  0.16437043  1  -0.328634  -0.028886  3.25895  -0.017  -0.262057  -0.032001  3.526048  -0.017  -0.280311  -0.029151  3.542048  -0.014  -0.312037  -0.248299  -0.034087  3.514733  -0.019
N  N59  1  0.94481156  0.71227417  0.83561133  1  -0.328589  0.02889  3.259758  0.017  -0.262075  0.032001  3.526871  0.017  -0.280332  0.029152  3.542871  0.014  -0.31202  -0.248314  0.034089  3.515548  0.019
N  N60  1  0.84983363  0.06584530  0.27071405  1  -0.351609  -0.027855  3.266823  -0.016  -0.290337  -0.030809  3.547964  -0.016  -0.307858  -0.027909  3.561431  -0.013  -0.322941  -0.277446  -0.033037  3.539011  -0.018
N  N61  1  0.15018261  0.93415182  0.72925839  1  -0.351311  0.027819  3.26677  0.016  -0.290141  0.030793  3.547968  0.016  -0.307667  0.027893  3.561437  0.013  -0.322852  -0.277256  0.03302  3.539036  0.018
N  N62  1  0.66894993  0.99090792  0.72856068  1  -0.398944  -0.011897  2.406592  -0.012  -0.397411  -0.008207  2.642181  -0.008  -0.405053  -0.008444  2.653173  -0.008  -0.194873  -0.391171  -0.008198  2.634543  -0.008
N  N63  1  0.33104136  0.00907532  0.27145484  1  -0.398767  0.011942  2.406368  0.012  -0.397176  0.008247  2.641927  0.008  -0.404818  0.008465  2.652921  0.008  -0.194811  -0.39092  0.008233  2.634267  0.008
N  N64  1  0.35307980  0.59584719  0.55541573  1  -0.359238  0.000362  3.412715  0.0  -0.302977  0.000562  3.655905  0.001  -0.323655  0.00037  3.675965  0.0  -0.424991  -0.287682  0.000921  3.640928  0.001
N  N65  1  0.64694105  0.40413780  0.44458581  1  -0.35934  -0.000366  3.413087  0.0  -0.303069  -0.000564  3.656291  -0.001  -0.323756  -0.000372  3.676371  0.0  -0.425076  -0.287769  -0.000925  3.641303  -0.001
N  N66  1  0.13311539  0.37397450  0.66210106  1  -0.35909  7.8e-05  3.403261  0.0  -0.30208  0.000166  3.644059  0.0  -0.322748  3.8e-05  3.66537  0.0  -0.421532  -0.286624  0.000427  3.627929  0.001
N  N67  1  0.86686749  0.62599868  0.33789878  1  -0.359097  -7.7e-05  3.404088  0.0  -0.302036  -0.000168  3.644892  0.0  -0.322678  -3.8e-05  3.666165  0.0  -0.421629  -0.286618  -0.000431  3.628854  -0.001
N  N68  1  0.34849842  0.79321679  0.96028527  1  -0.475727  -0.051933  2.670432  -0.068  -0.460793  -0.039705  2.962672  -0.057  -0.47814  -0.047457  2.967272  -0.064  -0.24172  -0.447034  -0.034779  2.959887  -0.051
N  N69  1  0.65146832  0.20675277  0.03971636  1  -0.475914  0.051917  2.670306  0.068  -0.461056  0.039685  2.962616  0.057  -0.478397  0.04745  2.967204  0.064  -0.241932  -0.447294  0.034765  2.959837  0.051
