# generated using pymatgen
data_Zn4H8C40Cl12O13
_symmetry_space_group_name_H-M   'P 1'
_cell_length_a   23.87658976
_cell_length_b   23.87807768
_cell_length_c   23.87635789
_cell_angle_alpha   66.89122246
_cell_angle_beta   72.32193784
_cell_angle_gamma   107.68661917
_symmetry_Int_Tables_number   1
_chemical_formula_structural   Zn4H8C40Cl12O13
_chemical_formula_sum   'Zn8 H16 C80 Cl24 O26'
_cell_volume   10447.38344610
_cell_formula_units_Z   2
loop_
 _symmetry_equiv_pos_site_id
 _symmetry_equiv_pos_as_xyz
  1  'x, y, z'
loop_
 _atom_site_type_symbol
 _atom_site_label
 _atom_site_symmetry_multiplicity
 _atom_site_fract_x
 _atom_site_fract_y
 _atom_site_fract_z
 _atom_site_occupancy
 _atom_site_pbe_bader_charge
 _atom_site_pbe_bader_spin_density
 _atom_site_pbe_cm5_charge
 _atom_site_pbe_ddec_charge
 _atom_site_pbe_ddec_spin_density
 _atom_site_pbe_ddec_sum_bond_order
 _atom_site_pbe_magmom
Zn  Zn0  1  0.05741376  0.95769398  0.48490569  1  1.320798  0  0.676364  0.97087  0  2.369767  0
Zn  Zn1  1  0.05741013  0.09972134  0.45769394  1  1.319497  0  0.676445  0.97102  0  2.369617  0
Zn  Zn2  1  0.94258186  0.98490557  0.45768501  1  1.320753  0  0.676246  0.970772  0  2.36983  0
Zn  Zn3  1  0.94260172  0.95768974  0.59972246  1  1.319573  0  0.676351  0.970882  0  2.369794  0
Zn  Zn4  1  0.94258756  0.54230932  0.01509179  1  1.320835  0  0.676325  0.970865  0  2.369862  0
Zn  Zn5  1  0.05742156  0.51509722  0.04231414  1  1.320974  0  0.676357  0.971026  0  2.369486  0
Zn  Zn6  1  0.94258907  0.40028032  0.04231113  1  1.319502  0  0.676422  0.970953  0  2.369809  0
Zn  Zn7  1  0.05739664  0.54230667  0.90027748  1  1.319649  0  0.676353  0.970769  0  2.369897  0
H  H8  1  0.92366935  0.65203035  0.11238395  1  0.140102  0  0.11471  0.138052  0  0.984923  0
H  H9  1  0.07632599  0.61237485  0.15206691  1  0.140641  0  0.114696  0.138026  0  0.984926  0
H  H10  1  0.92367039  0.88762091  0.34793756  1  0.140703  0  0.114709  0.138192  0  0.984865  0
H  H11  1  0.07627082  0.84789684  0.38769053  1  0.140793  0  0.114664  0.138019  0  0.984884  0
H  H12  1  0.07634164  0.46392047  0.77164904  1  0.144428  0  0.114775  0.1382  0  0.985078  0
H  H13  1  0.92368284  0.27161001  0.96396231  1  0.143525  0  0.114695  0.137919  0  0.984883  0
H  H14  1  0.07627372  0.22837839  0.53605304  1  0.143815  0  0.114676  0.138146  0  0.984933  0
H  H15  1  0.92367005  0.03605183  0.72837731  1  0.144461  0  0.114704  0.13814  0  0.985006  0
H  H16  1  0.73557397  0.46394217  0.11235212  1  0.143055  0  0.11471  0.138142  0  0.984818  0
H  H17  1  0.73556930  0.27161720  0.15207190  1  0.138617  0  0.114698  0.138055  0  0.984882  0
H  H18  1  0.26443254  0.22838708  0.34792003  1  0.137979  0  0.114691  0.137945  0  0.98495  0
H  H19  1  0.26443042  0.03607703  0.38757159  1  0.143032  0  0.114768  0.138178  0  0.985139  0
H  H20  1  0.26443737  0.61233323  0.96393929  1  0.144041  0  0.114655  0.1381  0  0.984922  0
H  H21  1  0.26442338  0.65206300  0.77160705  1  0.138304  0  0.114656  0.138082  0  0.984905  0
H  H22  1  0.73557964  0.84793183  0.72839377  1  0.138452  0  0.114672  0.137943  0  0.984987  0
H  H23  1  0.73556157  0.88759255  0.53607531  1  0.143188  0  0.114793  0.138142  0  0.985047  0
C  C24  1  0.18214721  0.09108494  0.40891360  1  1.552172  0  0.229619  0.605812  0  4.164215  0
C  C25  1  0.99999589  0.13688997  0.36310950  1  1.607146  0  0.228764  0.630275  0  4.130632  0
C  C26  1  0.99998773  0.90891907  0.40893927  1  1.529399  0  0.229734  0.605874  0  4.163833  0
C  C27  1  0.81785541  0.90891299  0.59108881  1  1.55243  0  0.229613  0.605744  0  4.164383  0
C  C28  1  0.00001071  0.86311325  0.63688815  1  1.60729  0  0.228694  0.630024  0  4.130516  0
C  C29  1  0.99999220  0.09107620  0.59107253  1  1.564124  0  0.229719  0.606156  0  4.163622  0
C  C30  1  0.99999792  0.59106311  0.09107861  1  1.529345  0  0.229564  0.605711  0  4.16423  0
C  C31  1  0.00000186  0.36310999  0.13689354  1  1.607586  0  0.228697  0.630071  0  4.130319  0
C  C32  1  0.81785377  0.40892314  0.09106537  1  1.552386  0  0.229761  0.6061  0  4.163513  0
C  C33  1  0.99999959  0.40891518  0.90893810  1  1.563404  0  0.229643  0.605802  0  4.164061  0
C  C34  1  0.99999385  0.63688831  0.86310620  1  1.607367  0  0.228797  0.630149  0  4.130274  0
C  C35  1  0.18214579  0.59106598  0.90891338  1  1.552495  0  0.229708  0.606054  0  4.163465  0
C  C36  1  0.00000392  0.80517234  0.69482593  1  0.061008  0  -0.014888  -0.123694  0  3.850724  0
C  C37  1  0.99999981  0.69482735  0.80517234  1  0.0609  0  -0.0151  -0.12427  0  3.851307  0
C  C38  1  0.95703322  0.77695152  0.76601549  1  0.129193  0  0.016962  0.076786  0  3.979869  0
C  C39  1  0.04297046  0.72304917  0.73398241  1  0.129095  0  0.017042  0.077026  0  3.979693  0
C  C40  1  0.95703220  0.72305012  0.81991833  1  0.121574  0  0.017051  0.077006  0  3.979714  0
C  C41  1  0.04297212  0.77695172  0.68007850  1  0.122201  0  0.017081  0.076898  0  3.979757  0
C  C42  1  0.99999617  0.19482566  0.30517344  1  0.060749  0  -0.015108  -0.124487  0  3.851405  0
C  C43  1  0.00000532  0.30517621  0.19482918  1  0.061262  0  -0.01508  -0.12394  0  3.850729  0
C  C44  1  0.95702949  0.18008536  0.27694198  1  0.121273  0  0.017226  0.077236  0  3.979736  0
C  C45  1  0.04297195  0.31991750  0.22305943  1  0.121992  0  0.017305  0.077116  0  3.97948  0
C  C46  1  0.95703315  0.23398939  0.22303981  1  0.129631  0  0.01681  0.076668  0  3.980026  0
C  C47  1  0.04296810  0.26601276  0.27696236  1  0.129871  0  0.016898  0.076939  0  3.979701  0
C  C48  1  0.99999762  0.62855597  0.12857788  1  -0.010111  0  -0.011415  -0.00141  0  3.980758  0
C  C49  1  0.95691032  0.65717051  0.13483473  1  0.084629  0  -0.086659  -0.166367  0  3.958052  0
C  C50  1  0.95702720  0.69199359  0.16970737  1  -0.000351  0  0.024996  0.125862  0  4.005952  0
C  C51  1  0.99999159  0.69942074  0.19944945  1  0.205736  0  -0.002413  0.02591  0  4.061023  0
C  C52  1  0.04296364  0.66969083  0.19202284  1  0.001329  0  0.024997  0.125667  0  4.005712  0
C  C53  1  0.04308347  0.63482065  0.15720050  1  0.083731  0  -0.086803  -0.16641  0  3.958378  0
C  C54  1  0.99998641  0.73466476  0.23470671  1  -0.037246  0  -0.039304  -0.068488  0  4.133593  0
C  C55  1  0.99998188  0.76528920  0.26534096  1  -0.240529  0  -0.03925  -0.068143  0  4.133712  0
C  C56  1  0.99997589  0.80053603  0.30059191  1  0.203883  0  -0.002393  0.025605  0  4.06125  0
C  C57  1  0.95702133  0.83028783  0.30799769  1  0.000308  0  0.025049  0.126074  0  4.005419  0
C  C58  1  0.95689984  0.86515895  0.34282058  1  0.084271  0  -0.086723  -0.16676  0  3.958402  0
C  C59  1  0.99997125  0.87140582  0.37145982  1  -0.009833  0  -0.011322  -0.00122  0  3.980595  0
C  C60  1  0.04304393  0.84277073  0.36522409  1  0.082552  0  -0.086884  -0.166416  0  3.957749  0
C  C61  1  0.04292924  0.80794985  0.33035159  1  0.003354  0  0.02497  0.125819  0  4.005694  0
C  C62  1  0.00001040  0.37141309  0.87145101  1  -0.0136  0  -0.011227  -0.001012  0  3.980233  0
C  C63  1  0.04309932  0.40823442  0.79975003  1  0.080117  0  -0.086923  -0.166903  0  3.958512  0
C  C64  1  0.04297741  0.37324437  0.76504647  1  0.040749  0  0.025051  0.125921  0  4.005857  0
C  C65  1  0.00000572  0.30054646  0.80058301  1  0.118879  0  -0.002546  0.025666  0  4.060911  0
C  C66  1  0.95703802  0.26500737  0.87328568  1  0.030663  0  0.025006  0.125677  0  4.005755  0
C  C67  1  0.95692322  0.29971128  0.90827462  1  0.083367  0  -0.086802  -0.166288  0  3.957978  0
C  C68  1  0.99999633  0.26529800  0.76533128  1  -0.034141  0  -0.039299  -0.06838  0  4.133713  0
C  C69  1  0.99998623  0.23467714  0.73469503  1  -0.242167  0  -0.039097  -0.068052  0  4.133743  0
C  C70  1  0.99997609  0.19943184  0.69944040  1  0.127044  0  -0.002399  0.025753  0  4.06119  0
C  C71  1  0.04292976  0.23497665  0.62673512  1  0.030662  0  0.025047  0.125771  0  4.006045  0
C  C72  1  0.04304555  0.20027633  0.59174196  1  0.083666  0  -0.08693  -0.166668  0  3.958146  0
C  C73  1  0.99997444  0.12856927  0.62856862  1  -0.013234  0  -0.01133  -0.001281  0  3.98068  0
C  C74  1  0.95690075  0.09174083  0.70027365  1  0.081259  0  -0.086775  -0.1667  0  3.95853  0
C  C75  1  0.95702043  0.12672968  0.73497878  1  0.031997  0  0.025088  0.126059  0  4.005377  0
C  C76  1  0.74286323  0.37142595  0.12856373  1  -0.020227  0  -0.011279  -0.001257  0  3.980442  0
C  C77  1  0.70798601  0.40825326  0.13481321  1  0.080739  0  -0.086971  -0.16679  0  3.95829  0
C  C78  1  0.63829284  0.37326445  0.16968385  1  0.026637  0  0.025156  0.126142  0  4.00586  0
C  C79  1  0.60112870  0.30056218  0.19942703  1  0.187898  0  -0.002392  0.025659  0  4.061236  0
C  C80  1  0.63829133  0.26501942  0.19201643  1  -0.005098  0  0.025131  0.126041  0  4.005475  0
C  C81  1  0.70798513  0.29972295  0.15719475  1  0.094247  0  -0.086868  -0.166651  0  3.958214  0
C  C82  1  0.53062941  0.26531907  0.23466592  1  -0.002978  0  -0.039374  -0.068493  0  4.133815  0
C  C83  1  0.46937265  0.23470096  0.26528204  1  -0.318592  0  -0.039196  -0.068112  0  4.133464  0
C  C84  1  0.39887314  0.19945243  0.30052440  1  0.191588  0  -0.002434  0.025742  0  4.060993  0
C  C85  1  0.36171093  0.23499097  0.30795664  1  -0.005528  0  0.024972  0.125765  0  4.005697  0
C  C86  1  0.29201674  0.20028601  0.34277858  1  0.094992  0  -0.086794  -0.166323  0  3.957951  0
C  C87  1  0.25713714  0.12858564  0.37139394  1  -0.020283  0  -0.011265  -0.001077  0  3.980344  0
C  C88  1  0.29201575  0.09176333  0.36512490  1  0.081391  0  -0.086802  -0.166665  0  3.958648  0
C  C89  1  0.36170936  0.12675257  0.33025354  1  0.023315  0  0.024997  0.125751  0  4.00609  0
C  C90  1  0.25713759  0.62855039  0.87141967  1  -0.019263  0  -0.011366  -0.001359  0  3.98048  0
C  C91  1  0.29202018  0.63479351  0.90825044  1  0.078969  0  -0.086843  -0.166488  0  3.957999  0
C  C92  1  0.36171391  0.66966515  0.87326120  1  0.026166  0  0.024992  0.125714  0  4.005968  0
C  C93  1  0.39887280  0.69941432  0.80055694  1  0.188593  0  -0.002431  0.025776  0  4.061102  0
C  C94  1  0.36170716  0.69200518  0.76501033  1  0.106316  0  0.025086  0.126064  0  4.00526  0
C  C95  1  0.29201080  0.65718242  0.79971433  1  -0.017899  0  -0.086753  -0.166727  0  3.958163  0
C  C96  1  0.46937275  0.73466329  0.76531512  1  -0.321717  0  -0.039303  -0.068408  0  4.133451  0
C  C97  1  0.53063080  0.76528842  0.73470254  1  0.000122  0  -0.039179  -0.068079  0  4.133519  0
C  C98  1  0.60112725  0.80053856  0.69945587  1  0.19247  0  -0.002553  0.02561  0  4.061112  0
C  C99  1  0.63829786  0.80797034  0.73499540  1  -0.005156  0  0.025182  0.125925  0  4.005631  0
C  C100  1  0.70799185  0.84279488  0.70028975  1  0.093893  0  -0.086787  -0.16629  0  3.958252  0
C  C101  1  0.74286464  0.87141038  0.62858727  1  -0.019902  0  -0.011381  -0.001343  0  3.980694  0
C  C102  1  0.70798132  0.86514730  0.59176249  1  0.081192  0  -0.086801  -0.166607  0  3.958444  0
C  C103  1  0.63828735  0.83027594  0.62675170  1  0.022385  0  0.025017  0.125911  0  4.005775  0
Cl  Cl104  1  0.90216226  0.80542575  0.79240438  1  -0.13636  0  0.007373  -0.031491  0  1.658458  0
Cl  Cl105  1  0.09784299  0.69457598  0.70759473  1  -0.135397  0  0.00741  -0.031485  0  1.658333  0
Cl  Cl106  1  0.90216032  0.69456984  0.90326365  1  -0.13468  0  0.007402  -0.031481  0  1.658288  0
Cl  Cl107  1  0.09784336  0.80543084  0.59673425  1  -0.135675  0  0.00736  -0.031542  0  1.658336  0
Cl  Cl108  1  0.90216267  0.09674344  0.30540409  1  -0.140977  0  0.007361  -0.031545  0  1.658385  0
Cl  Cl109  1  0.09783901  0.40325914  0.19459819  1  -0.141029  0  0.007345  -0.031553  0  1.658372  0
Cl  Cl110  1  0.90216839  0.20760729  0.19454849  1  -0.1308  0  0.007481  -0.031342  0  1.658481  0
Cl  Cl111  1  0.09783358  0.29239402  0.30545420  1  -0.130695  0  0.007362  -0.031468  0  1.658295  0
Cl  Cl112  1  0.09609790  0.67710560  0.22706470  1  -0.191308  0  -0.005002  -0.070946  0  1.471953  0
Cl  Cl113  1  0.90388626  0.72701992  0.17711279  1  -0.187243  0  -0.004984  -0.071036  0  1.47214  0
Cl  Cl114  1  0.09604498  0.77289109  0.32297747  1  -0.187535  0  -0.00491  -0.070999  0  1.472142  0
Cl  Cl115  1  0.90390440  0.82289659  0.27293377  1  -0.191256  0  -0.005081  -0.07111  0  1.471821  0
Cl  Cl116  1  0.90390085  0.17684218  0.91900463  1  -0.180473  0  -0.004961  -0.070922  0  1.471971  0
Cl  Cl117  1  0.09611643  0.41896832  0.67688050  1  -0.179638  0  -0.005011  -0.070981  0  1.47217  0
Cl  Cl118  1  0.90390244  0.08100235  0.82315144  1  -0.184449  0  -0.005065  -0.071107  0  1.471777  0
Cl  Cl119  1  0.09604760  0.32314798  0.58100830  1  -0.184314  0  -0.004944  -0.070946  0  1.472162  0
Cl  Cl120  1  0.59584463  0.17684854  0.22707172  1  -0.19414  0  -0.005049  -0.071034  0  1.471998  0
Cl  Cl121  1  0.59585060  0.41899374  0.17707170  1  -0.184633  0  -0.005023  -0.07108  0  1.472012  0
Cl  Cl122  1  0.40414933  0.08102773  0.32284075  1  -0.184361  0  -0.005003  -0.070967  0  1.472196  0
Cl  Cl123  1  0.40415697  0.32315603  0.27292645  1  -0.19419  0  -0.004999  -0.071009  0  1.47213  0
Cl  Cl124  1  0.40414489  0.72706410  0.67683605  1  -0.192965  0  -0.005041  -0.071058  0  1.471807  0
Cl  Cl125  1  0.40416157  0.67705001  0.91899548  1  -0.185077  0  -0.004944  -0.070979  0  1.472127  0
Cl  Cl126  1  0.59583935  0.82286216  0.58102598  1  -0.185533  0  -0.004995  -0.070998  0  1.472058  0
Cl  Cl127  1  0.59585971  0.77293647  0.82316329  1  -0.193201  0  -0.005052  -0.071059  0  1.472024  0
O  O128  1  0.00000012  0.00000180  0.49999951  1  -1.233011  0  -0.571821  -1.032868  0  2.535567  0
O  O129  1  0.15325037  0.02598178  0.43290475  1  -1.163968  0  -0.312281  -0.54166  0  2.335665  0
O  O130  1  0.03990085  0.15437280  0.38550872  1  -1.16584  0  -0.312438  -0.542643  0  2.452147  0
O  O131  1  0.95886942  0.93290643  0.41384516  1  -1.163793  0  -0.312362  -0.541604  0  2.335393  0
O  O132  1  0.15325012  0.12728487  0.41384412  1  -1.164307  0  -0.312367  -0.541654  0  2.335687  0
O  O133  1  0.04111882  0.91384850  0.43291035  1  -1.163356  0  -0.312348  -0.541656  0  2.335724  0
O  O134  1  0.96008200  0.07458660  0.38552266  1  -1.166943  0  -0.312557  -0.542783  0  2.452064  0
O  O135  1  0.84674662  0.93289361  0.52598458  1  -1.163877  0  -0.312371  -0.541725  0  2.335701  0
O  O136  1  0.96012268  0.88552797  0.65437930  1  -1.165869  0  -0.312569  -0.542824  0  2.451906  0
O  O137  1  0.84675891  0.91383851  0.62728966  1  -1.164777  0  -0.312292  -0.54147  0  2.335663  0
O  O138  1  0.03990028  0.88551634  0.57458920  1  -1.167427  0  -0.3124  -0.542551  0  2.452522  0
O  O139  1  0.04111598  0.12727940  0.52597319  1  -1.180173  0  -0.312376  -0.54182  0  2.335598  0
O  O140  1  0.95888244  0.02597156  0.62727862  1  -1.179708  0  -0.312325  -0.541763  0  2.335494  0
O  O141  1  0.00000099  0.49999997  0.00000096  1  -1.233011  0  -0.571834  -1.032965  0  2.535581  0
O  O142  1  0.95887320  0.58614188  0.06709965  1  -1.163377  0  -0.312247  -0.541476  0  2.335791  0
O  O143  1  0.03991905  0.42541483  0.11447859  1  -1.166989  0  -0.312548  -0.542879  0  2.452076  0
O  O144  1  0.84674968  0.37271893  0.08614987  1  -1.164242  0  -0.312373  -0.54165  0  2.335582  0
O  O145  1  0.04112823  0.56709164  0.08615717  1  -1.163583  0  -0.312347  -0.541659  0  2.335578  0
O  O146  1  0.84675070  0.47402433  0.06708251  1  -1.164109  0  -0.312397  -0.541814  0  2.335516  0
O  O147  1  0.96009542  0.34562751  0.11449778  1  -1.166345  0  -0.312458  -0.542631  0  2.452242  0
O  O148  1  0.95887179  0.37271471  0.97403758  1  -1.179634  0  -0.31237  -0.541636  0  2.335622  0
O  O149  1  0.03987280  0.61446607  0.84561951  1  -1.166017  0  -0.312496  -0.542575  0  2.452133  0
O  O150  1  0.04111386  0.47401653  0.87273110  1  -1.179496  0  -0.312296  -0.541627  0  2.335662  0
O  O151  1  0.96010391  0.61448849  0.92541152  1  -1.167447  0  -0.312572  -0.542771  0  2.451982  0
O  O152  1  0.15325538  0.56709293  0.97401689  1  -1.163918  0  -0.312508  -0.541994  0  2.335245  0
O  O153  1  0.15324200  0.58615213  0.87271136  1  -1.164722  0  -0.312198  -0.541374  0  2.335409  0
