# generated using pymatgen
data_Hg2H15C10S2I3N4
_symmetry_space_group_name_H-M   'P 1'
_cell_length_a   8.34191292
_cell_length_b   11.83752843
_cell_length_c   21.18800000
_cell_angle_alpha   97.99104311
_cell_angle_beta   90.00000000
_cell_angle_gamma   90.00000000
_symmetry_Int_Tables_number   1
_chemical_formula_structural   Hg2H15C10S2I3N4
_chemical_formula_sum   'Hg8 H60 C40 S8 I12 N16'
_cell_volume   2071.94853049
_cell_formula_units_Z   4
loop_
 _symmetry_equiv_pos_site_id
 _symmetry_equiv_pos_as_xyz
  1  'x, y, z'
loop_
 _atom_site_type_symbol
 _atom_site_label
 _atom_site_symmetry_multiplicity
 _atom_site_fract_x
 _atom_site_fract_y
 _atom_site_fract_z
 _atom_site_occupancy
 _atom_site_hle17_bader_spin_density
 _atom_site_hle17_ddec_charge
 _atom_site_hle17_ddec_spin_density
 _atom_site_hle17_ddec_sum_bond_order
 _atom_site_hle17_magmom
 _atom_site_hse06_10hf_bader_spin_density
 _atom_site_hse06_10hf_ddec_charge
 _atom_site_hse06_10hf_ddec_spin_density
 _atom_site_hse06_10hf_ddec_sum_bond_order
 _atom_site_hse06_10hf_magmom
 _atom_site_hse06_bader_spin_density
 _atom_site_hse06_ddec_charge
 _atom_site_hse06_ddec_spin_density
 _atom_site_hse06_ddec_sum_bond_order
 _atom_site_hse06_magmom
 _atom_site_pbe_bader_charge
 _atom_site_pbe_bader_spin_density
 _atom_site_pbe_cm5_charge
 _atom_site_pbe_ddec_charge
 _atom_site_pbe_ddec_spin_density
 _atom_site_pbe_ddec_sum_bond_order
 _atom_site_pbe_magmom
Hg  Hg0  1  0.14876684  0.19120529  0.62676721  1  0  0.459222  0  2.279723  0  0  0.360014  0  2.780747  0  0  0.395383  0  2.761713  0  0.421167  0  0.315942  0.336854  0  2.792633  0
Hg  Hg1  1  0.64876846  0.80879439  0.87323385  1  0  0.459217  0  2.279698  0  0  0.360008  0  2.780709  0  0  0.395382  0  2.761665  0  0.421057  0  0.315947  0.336849  0  2.792593  0
Hg  Hg2  1  0.85122802  0.80879609  0.37323351  1  0  0.459249  0  2.279677  0  0  0.360044  0  2.780694  0  0  0.395414  0  2.761657  0  0.421147  0  0.315966  0.336885  0  2.79258  0
Hg  Hg3  1  0.35123479  0.19120614  0.12676586  1  0  0.459213  0  2.279735  0  0  0.360004  0  2.780753  0  0  0.395367  0  2.761737  0  0.421116  0  0.315929  0.336846  0  2.792639  0
Hg  Hg4  1  0.77113608  0.46944002  0.52473598  1  0  0.493475  0  2.022665  0  0  0.419108  0  2.465939  0  0  0.448724  0  2.446596  0  0.40554  0  0.33159  0.398925  0  2.479013  0
Hg  Hg5  1  0.27114165  0.53056051  0.97526420  1  0  0.493439  0  2.022664  0  0  0.41905  0  2.465963  0  0  0.448676  0  2.446599  0  0.405482  0  0.331579  0.398868  0  2.479037  0
Hg  Hg6  1  0.22885878  0.53055965  0.47526508  1  0  0.493431  0  2.022686  0  0  0.419045  0  2.465971  0  0  0.448663  0  2.446624  0  0.405513  0  0.331586  0.398862  0  2.479045  0
Hg  Hg7  1  0.72886040  0.46943832  0.02473443  1  0  0.493505  0  2.022736  0  0  0.41913  0  2.466052  0  0  0.448754  0  2.446687  0  0.405541  0  0.331623  0.398948  0  2.479127  0
H  H8  1  0.44794642  0.36027552  0.59801875  1  0  0.110327  0  1.016425  0  0  0.112909  0  1.090023  0  0  0.116185  0  1.088248  0  0.154358  0  0.098919  0.11076  0  1.091002  0
H  H9  1  0.94794924  0.63972756  0.90198210  1  0  0.11021  0  1.016602  0  0  0.112817  0  1.090185  0  0  0.116091  0  1.088414  0  0.154398  0  0.098883  0.110668  0  1.091162  0
H  H10  1  0.55205443  0.63972586  0.40198150  1  0  0.110287  0  1.016478  0  0  0.112881  0  1.09007  0  0  0.116156  0  1.088297  0  0.154375  0  0.09891  0.110732  0  1.091047  0
H  H11  1  0.05204801  0.36027723  0.09801794  1  0  0.110261  0  1.016525  0  0  0.112856  0  1.090119  0  0  0.116147  0  1.088302  0  0.154346  0  0.098897  0.110707  0  1.091097  0
H  H12  1  0.53349154  0.19206346  0.49857542  1  0  0.12466  0  0.949481  0  0  0.13156  0  1.014001  0  0  0.135152  0  1.011375  0  0.165369  0  0.118379  0.129032  0  1.0159  0
H  H13  1  0.03349711  0.80793877  0.00142442  1  0  0.12462  0  0.94968  0  0  0.131513  0  1.014207  0  0  0.135104  0  1.011584  0  0.165506  0  0.11836  0.128984  0  1.016105  0
H  H14  1  0.46650691  0.80793707  0.50142524  1  0  0.124633  0  0.94952  0  0  0.131549  0  1.014022  0  0  0.135143  0  1.011396  0  0.16537  0  0.118378  0.12902  0  1.015921  0
H  H15  1  0.96649894  0.19206431  0.99857548  1  0  0.124623  0  0.949638  0  0  0.131531  0  1.01415  0  0  0.135118  0  1.011522  0  0.165297  0  0.118374  0.129002  0  1.016047  0
H  H16  1  0.72427512  0.20318729  0.79769878  1  0  0.115622  0  0.991911  0  0  0.121332  0  1.059888  0  0  0.124922  0  1.056921  0  0.173657  0  0.106592  0.118757  0  1.062056  0
H  H17  1  0.22426990  0.79681495  0.70230248  1  0  0.11562  0  0.991958  0  0  0.121395  0  1.059871  0  0  0.124986  0  1.056903  0  0.173728  0  0.106587  0.118792  0  1.062067  0
H  H18  1  0.27572693  0.79681409  0.20230241  1  0  0.115674  0  0.991873  0  0  0.121371  0  1.059852  0  0  0.124963  0  1.056883  0  0.173685  0  0.106593  0.118796  0  1.062024  0
H  H19  1  0.77572975  0.20318558  0.29769770  1  0  0.1156  0  0.991997  0  0  0.121363  0  1.059919  0  0  0.124954  0  1.056951  0  0.173712  0  0.106572  0.118774  0  1.062102  0
H  H20  1  0.46918735  0.10904422  0.85570874  1  0  0.118516  0  0.969183  0  0  0.125511  0  1.035705  0  0  0.128524  0  1.033726  0  0.135018  0  0.114682  0.123218  0  1.037388  0
H  H21  1  0.96918897  0.89095460  0.64429320  1  0  0.118493  0  0.969308  0  0  0.125535  0  1.035747  0  0  0.128547  0  1.033767  0  0.135014  0  0.114675  0.12324  0  1.037432  0
H  H22  1  0.53081110  0.89095545  0.14429138  1  0  0.118542  0  0.96917  0  0  0.125544  0  1.03568  0  0  0.128577  0  1.033679  0  0.135019  0  0.114685  0.123251  0  1.037364  0
H  H23  1  0.03081188  0.10904422  0.35570827  1  0  0.11849  0  0.969242  0  0  0.125524  0  1.035699  0  0  0.128545  0  1.03371  0  0.135031  0  0.114687  0.123229  0  1.037384  0
H  H24  1  0.74541056  0.35989591  0.72905449  1  0  0.096595  0  0.907242  0  0  0.104788  0  0.973888  0  0  0.106617  0  0.971975  0  0.140278  0  0.127471  0.103314  0  0.975527  0
H  H25  1  0.24541014  0.64010206  0.77094549  1  0  0.096582  0  0.907242  0  0  0.104766  0  0.973912  0  0  0.106595  0  0.971999  0  0.140286  0  0.127465  0.103292  0  0.975551  0
H  H26  1  0.25459029  0.64010461  0.27094616  1  0  0.096626  0  0.907236  0  0  0.104813  0  0.973883  0  0  0.106643  0  0.97197  0  0.140298  0  0.127476  0.103339  0  0.975523  0
H  H27  1  0.75458711  0.35989506  0.22905537  1  0  0.096587  0  0.907205  0  0  0.104779  0  0.973847  0  0  0.106609  0  0.971932  0  0.140251  0  0.127469  0.103304  0  0.975487  0
H  H28  1  0.56602725  0.42656893  0.70491155  1  0  0.095983  0  0.91844  0  0  0.103154  0  0.987683  0  0  0.105192  0  0.985488  0  0.164797  0  0.124501  0.101469  0  0.989625  0
H  H29  1  0.06602562  0.57343245  0.79508823  1  0  0.095935  0  0.918497  0  0  0.103108  0  0.987746  0  0  0.105145  0  0.985549  0  0.164811  0  0.124478  0.101422  0  0.989687  0
H  H30  1  0.43397360  0.57343331  0.29508877  1  0  0.095982  0  0.918487  0  0  0.103157  0  0.987716  0  0  0.105195  0  0.98552  0  0.164827  0  0.12449  0.101472  0  0.989658  0
H  H31  1  0.93397163  0.42656722  0.20491142  1  0  0.095973  0  0.91849  0  0  0.103149  0  0.987715  0  0  0.105186  0  0.985522  0  0.164827  0  0.124493  0.101463  0  0.989656  0
H  H32  1  0.87226396  0.01883458  0.56020081  1  0  0.098376  0  0.975075  0  0  0.11396  0  1.047441  0  0  0.115456  0  1.046393  0  0.091855  0  0.09113  0.112803  0  1.048228  0
H  H33  1  0.37226713  0.98116765  0.93979903  1  0  0.098346  0  0.975114  0  0  0.113912  0  1.047486  0  0  0.115407  0  1.04644  0  0.091973  0  0.09111  0.112755  0  1.048274  0
H  H34  1  0.12773449  0.98116680  0.43980038  1  0  0.098348  0  0.975094  0  0  0.113903  0  1.047483  0  0  0.115382  0  1.046452  0  0.092036  0  0.091103  0.112746  0  1.048269  0
H  H35  1  0.62773252  0.01883032  0.06020143  1  0  0.09833  0  0.97511  0  0  0.113891  0  1.047505  0  0  0.115387  0  1.046458  0  0.091943  0  0.09109  0.112733  0  1.048293  0
H  H36  1  0.80468474  0.06054894  0.48631685  1  0  0.100419  0  0.97216  0  0  0.116564  0  1.042895  0  0  0.117941  0  1.042047  0  0.109052  0  0.088178  0.11551  0  1.043544  0
H  H37  1  0.30468911  0.93945415  0.01368259  1  0  0.100419  0  0.972167  0  0  0.116555  0  1.042904  0  0  0.117933  0  1.042055  0  0.109058  0  0.088196  0.115503  0  1.04355  0
H  H38  1  0.19531491  0.93945244  0.51368340  1  0  0.100426  0  0.972181  0  0  0.116588  0  1.042884  0  0  0.117965  0  1.042035  0  0.109044  0  0.088189  0.115531  0  1.043537  0
H  H39  1  0.69531294  0.06054467  0.98631793  1  0  0.100448  0  0.972165  0  0  0.116586  0  1.042898  0  0  0.117963  0  1.042051  0  0.109093  0  0.08822  0.115534  0  1.043544  0
H  H40  1  0.67917396  0.97537626  0.52944220  1  0  0.099479  0  0.947338  0  0  0.116401  0  1.017912  0  0  0.117681  0  1.016903  0  0.089726  0  0.091985  0.115445  0  1.018549  0
H  H41  1  0.17917713  0.02462512  0.97055663  1  0  0.099494  0  0.947286  0  0  0.116411  0  1.017853  0  0  0.11769  0  1.016844  0  0.089739  0  0.092005  0.115455  0  1.018489  0
H  H42  1  0.32082569  0.02462768  0.47055919  1  0  0.099474  0  0.947373  0  0  0.11639  0  1.017944  0  0  0.11767  0  1.016934  0  0.089684  0  0.091986  0.115435  0  1.018579  0
H  H43  1  0.82082492  0.97537456  0.02944396  1  0  0.099493  0  0.947362  0  0  0.116408  0  1.017932  0  0  0.117688  0  1.016923  0  0.089757  0  0.092001  0.115454  0  1.018567  0
H  H44  1  0.08544923  0.23674218  0.79720883  1  0  0.105085  0  0.967337  0  0  0.120296  0  1.038519  0  0  0.121936  0  1.037532  0  0.107167  0  0.091557  0.118962  0  1.039454  0
H  H45  1  0.58545085  0.76325750  0.70279034  1  0  0.105076  0  0.967396  0  0  0.120287  0  1.038568  0  0  0.121926  0  1.037582  0  0.107174  0  0.091566  0.118952  0  1.039504  0
H  H46  1  0.91455042  0.76325835  0.20278993  1  0  0.1051  0  0.967376  0  0  0.120319  0  1.038538  0  0  0.121957  0  1.037554  0  0.107182  0  0.091581  0.118983  0  1.039475  0
H  H47  1  0.41454880  0.23674218  0.29720883  1  0  0.105071  0  0.967372  0  0  0.120277  0  1.038546  0  0  0.121919  0  1.037554  0  0.107193  0  0.091557  0.118942  0  1.039483  0
H  H48  1  0.16167035  0.18812917  0.86789700  1  0  0.106674  0  0.936804  0  0  0.124946  0  1.003337  0  0  0.126367  0  1.002183  0  0.043665  0  0.096244  0.123804  0  1.004301  0
H  H49  1  0.66167198  0.81187050  0.63210312  1  0  0.106681  0  0.936803  0  0  0.124956  0  1.003328  0  0  0.126378  0  1.002174  0  0.043667  0  0.096256  0.123813  0  1.00429  0
H  H50  1  0.83833050  0.81187135  0.13210271  1  0  0.106644  0  0.936808  0  0  0.124912  0  1.003349  0  0  0.126333  0  1.002195  0  0.043656  0  0.096229  0.12377  0  1.004314  0
H  H51  1  0.33833127  0.18812832  0.36789740  1  0  0.10666  0  0.936796  0  0  0.124923  0  1.003334  0  0  0.126344  0  1.00218  0  0.04365  0  0.096235  0.123781  0  1.004298  0
H  H52  1  0.14846355  0.09143377  0.79494131  1  0  0.110636  0  0.943689  0  0  0.127042  0  1.013232  0  0  0.128304  0  1.012638  0  0.113676  0  0.093332  0.125997  0  1.013871  0
H  H53  1  0.64846397  0.90856591  0.70505834  1  0  0.110646  0  0.943683  0  0  0.127048  0  1.013235  0  0  0.12831  0  1.012641  0  0.113698  0  0.093331  0.126003  0  1.013871  0
H  H54  1  0.85153610  0.90856761  0.20505800  1  0  0.110626  0  0.943719  0  0  0.127057  0  1.013215  0  0  0.12832  0  1.012618  0  0.113658  0  0.093347  0.126012  0  1.013853  0
H  H55  1  0.35153568  0.09143377  0.29494131  1  0  0.110627  0  0.943689  0  0  0.127023  0  1.013246  0  0  0.128285  0  1.01265  0  0.113695  0  0.09333  0.125977  0  1.013883  0
H  H56  1  0.77600906  0.54164339  0.64974119  1  0  0.132176  0  1.00875  0  0  0.146933  0  1.072613  0  0  0.149065  0  1.075171  0  0.057205  0  0.062998  0.145266  0  1.071156  0
H  H57  1  0.27601223  0.45835629  0.85025752  1  0  0.132185  0  1.008751  0  0  0.14695  0  1.07259  0  0  0.149082  0  1.075148  0  0.057222  0  0.062997  0.145284  0  1.071133  0
H  H58  1  0.22398939  0.45835799  0.35025859  1  0  0.132168  0  1.00877  0  0  0.146928  0  1.072616  0  0  0.14906  0  1.075175  0  0.057151  0  0.063002  0.145262  0  1.071159  0
H  H59  1  0.72398982  0.54164253  0.14974017  1  0  0.132221  0  1.00873  0  0  0.146941  0  1.072645  0  0  0.149072  0  1.075204  0  0.05717  0  0.063006  0.145274  0  1.071189  0
H  H60  1  0.96680702  0.57101831  0.61516078  1  0  0.137591  0  1.00467  0  0  0.152015  0  1.069053  0  0  0.153995  0  1.07214  0  0.077697  0  0.062893  0.150485  0  1.067175  0
H  H61  1  0.46680900  0.42898136  0.88483745  1  0  0.137603  0  1.004596  0  0  0.152014  0  1.068995  0  0  0.153983  0  1.072094  0  0.077762  0  0.062902  0.150486  0  1.067117  0
H  H62  1  0.03319143  0.42898307  0.38483805  1  0  0.137575  0  1.004679  0  0  0.152009  0  1.069036  0  0  0.153989  0  1.072122  0  0.077781  0  0.062902  0.15048  0  1.067158  0
H  H63  1  0.53319305  0.57101660  0.11515970  1  0  0.137583  0  1.004638  0  0  0.152017  0  1.069016  0  0  0.153996  0  1.072102  0  0.077723  0  0.0629  0.150489  0  1.067132  0
H  H64  1  0.92129348  0.42901719  0.63013474  1  0  0.130431  0  1.001565  0  0  0.147543  0  1.06374  0  0  0.148953  0  1.066964  0  0.04694  0  0.061173  0.146316  0  1.061854  0
H  H65  1  0.42129426  0.57098333  0.86986450  1  0  0.130419  0  1.001572  0  0  0.147527  0  1.063751  0  0  0.148937  0  1.066975  0  0.046966  0  0.061157  0.1463  0  1.061865  0
H  H66  1  0.07870617  0.57098248  0.36986538  1  0  0.130384  0  1.001598  0  0  0.14749  0  1.063788  0  0  0.1489  0  1.067013  0  0.046939  0  0.061139  0.146264  0  1.061902  0
H  H67  1  0.57870779  0.42901634  0.13013373  1  0  0.130381  0  1.001606  0  0  0.147524  0  1.063744  0  0  0.148933  0  1.066969  0  0.046944  0  0.061161  0.146297  0  1.061858  0
C  C68  1  0.73554952  0.18779051  0.63072089  1  0  0.272403  0  3.737742  0  0  0.221589  0  4.039536  0  0  0.243516  0  4.048743  0  0.776655  0  0.210329  0.207155  0  4.032812  0
C  C69  1  0.23555149  0.81221172  0.86927848  1  0  0.272394  0  3.737704  0  0  0.22157  0  4.039542  0  0  0.243497  0  4.048753  0  0.776617  0  0.210307  0.207136  0  4.032818  0
C  C70  1  0.26445014  0.81221087  0.36927983  1  0  0.272395  0  3.737668  0  0  0.221515  0  4.039563  0  0  0.243441  0  4.048774  0  0.776467  0  0.210319  0.207081  0  4.032837  0
C  C71  1  0.76444696  0.18778966  0.13072177  1  0  0.272543  0  3.737631  0  0  0.221722  0  4.03947  0  0  0.243649  0  4.048679  0  0.776621  0  0.210376  0.207288  0  4.032744  0
C  C72  1  0.53700393  0.29315124  0.59521047  1  0  -0.057195  0  3.735409  0  0  -0.098612  0  4.00812  0  0  -0.097513  0  4.026839  0  0.335918  0  -0.009409  -0.099439  0  3.995494  0
C  C73  1  0.03700590  0.70685014  0.90478931  1  0  -0.057056  0  3.735439  0  0  -0.09847  0  4.008165  0  0  -0.097369  0  4.026886  0  0.335968  0  -0.009355  -0.099298  0  3.995538  0
C  C74  1  0.46299452  0.70685014  0.40479025  1  0  -0.057097  0  3.735371  0  0  -0.098512  0  4.008072  0  0  -0.097413  0  4.026796  0  0.335944  0  -0.009343  -0.09934  0  3.995445  0
C  C75  1  0.96299735  0.29314868  0.09521216  1  0  -0.057056  0  3.735357  0  0  -0.098467  0  4.008083  0  0  -0.097361  0  4.026812  0  0.336018  0  -0.009384  -0.099294  0  3.995456  0
C  C76  1  0.36790243  0.28474269  0.75602190  1  0  0.270056  0  3.740976  0  0  0.223594  0  4.034608  0  0  0.244164  0  4.04532  0  0.8131  0  0.210063  0.21  0  4.026737  0
C  C77  1  0.86790045  0.71525358  0.74397748  1  0  0.270066  0  3.740948  0  0  0.223495  0  4.034742  0  0  0.244065  0  4.045455  0  0.81315  0  0.210034  0.209901  0  4.026869  0
C  C78  1  0.63209842  0.71525614  0.24397721  1  0  0.270012  0  3.740935  0  0  0.223563  0  4.034559  0  0  0.244137  0  4.045272  0  0.813242  0  0.210088  0.209968  0  4.026688  0
C  C79  1  0.13209800  0.28474269  0.25602190  1  0  0.269876  0  3.740956  0  0  0.22341  0  4.034611  0  0  0.243979  0  4.045327  0  0.813105  0  0.210013  0.209817  0  4.026738  0
C  C80  1  0.57890079  0.21034271  0.54674424  1  0  -0.03497  0  3.6881  0  0  -0.079048  0  3.954176  0  0  -0.076811  0  3.97155  0  0.352037  0  0.002714  -0.08041  0  3.942541  0
C  C81  1  0.07890277  0.78965867  0.95325601  1  0  -0.03495  0  3.688257  0  0  -0.079032  0  3.954326  0  0  -0.076792  0  3.971697  0  0.351823  0  0.002688  -0.080394  0  3.942692  0
C  C82  1  0.42109526  0.78965612  0.45325628  1  0  -0.035015  0  3.688166  0  0  -0.07912  0  3.954237  0  0  -0.076878  0  3.971598  0  0.352019  0  0.002627  -0.080483  0  3.942604  0
C  C83  1  0.92109808  0.21034100  0.04674410  1  0  -0.034944  0  3.688156  0  0  -0.079039  0  3.954228  0  0  -0.076785  0  3.971578  0  0.352054  0  0.002695  -0.080401  0  3.942592  0
C  C84  1  0.59675761  0.21581420  0.79353365  1  0  -0.028267  0  3.711714  0  0  -0.07778  0  3.98926  0  0  -0.074677  0  4.005408  0  0.366648  0  0.004025  -0.079824  0  3.978447  0
C  C85  1  0.09675359  0.78418718  0.70646802  1  0  -0.028225  0  3.711744  0  0  -0.077802  0  3.989229  0  0  -0.074698  0  4.005374  0  0.366475  0  0.004061  -0.079815  0  3.978432  0
C  C86  1  0.40324444  0.78418889  0.20646768  1  0  -0.028257  0  3.711661  0  0  -0.077743  0  3.989185  0  0  -0.074635  0  4.005336  0  0.366871  0  0.004079  -0.079785  0  3.978369  0
C  C87  1  0.90324486  0.21581420  0.29353271  1  0  -0.028274  0  3.711842  0  0  -0.077847  0  3.98936  0  0  -0.074741  0  4.005508  0  0.366445  0  0.004043  -0.079876  0  3.978556  0
C  C88  1  0.47130677  0.16981836  0.82206243  1  0  -0.033809  0  3.683941  0  0  -0.078208  0  3.950633  0  0  -0.076529  0  3.968902  0  0.354351  0  0.004385  -0.079387  0  3.938737  0
C  C89  1  0.97130359  0.83018302  0.67794018  1  0  -0.033831  0  3.684056  0  0  -0.078249  0  3.950756  0  0  -0.07657  0  3.969025  0  0.354419  0  0.004382  -0.079427  0  3.938854  0
C  C90  1  0.52869408  0.83018387  0.17793883  1  0  -0.033936  0  3.683943  0  0  -0.078334  0  3.950635  0  0  -0.076674  0  3.968888  0  0.354339  0  0.004349  -0.079514  0  3.938741  0
C  C91  1  0.02869366  0.16981751  0.32206142  1  0  -0.033827  0  3.683987  0  0  -0.07824  0  3.950704  0  0  -0.076571  0  3.968969  0  0.35436  0  0.004377  -0.079418  0  3.938804  0
C  C92  1  0.62438437  0.34520888  0.70948920  1  0  0.122388  0  3.591503  0  0  0.048305  0  3.83126  0  0  0.058004  0  3.837817  0  0.6023  0  0.062485  0.041789  0  3.827108  0
C  C93  1  0.12438514  0.65479165  0.79051098  1  0  0.122483  0  3.591497  0  0  0.048426  0  3.831252  0  0  0.058127  0  3.837808  0  0.602332  0  0.062546  0.04191  0  3.827102  0
C  C94  1  0.37561648  0.65479336  0.29051112  1  0  0.122332  0  3.591627  0  0  0.048263  0  3.831379  0  0  0.057965  0  3.837943  0  0.602336  0  0.062517  0.041748  0  3.827227  0
C  C95  1  0.87561331  0.34520802  0.20948913  1  0  0.122431  0  3.591528  0  0  0.048402  0  3.831261  0  0  0.058104  0  3.837819  0  0.602336  0  0.062554  0.041887  0  3.827108  0
C  C96  1  0.76857072  0.04404575  0.53385988  1  0  -0.174839  0  3.673456  0  0  -0.278026  0  3.918426  0  0  -0.274943  0  3.926925  0  0.212961  0  -0.147831  -0.27975  0  3.912573  0
C  C97  1  0.26857389  0.95595563  0.96613990  1  0  -0.174767  0  3.673441  0  0  -0.277909  0  3.91839  0  0  -0.274827  0  3.926896  0  0.212764  0  -0.147805  -0.279636  0  3.912536  0
C  C98  1  0.23143013  0.95595648  0.46614091  1  0  -0.174818  0  3.673577  0  0  -0.277972  0  3.918469  0  0  -0.274872  0  3.926981  0  0.212772  0  -0.147816  -0.279696  0  3.912613  0
C  C99  1  0.73142696  0.04404319  0.03386110  1  0  -0.174782  0  3.673487  0  0  -0.277928  0  3.918422  0  0  -0.274845  0  3.926924  0  0.212748  0  -0.147828  -0.279658  0  3.912566  0
C  C100  1  0.17179872  0.18007890  0.81586623  1  0  -0.16804  0  3.629383  0  0  -0.268454  0  3.870766  0  0  -0.265307  0  3.878418  0  0.233724  0  -0.142051  -0.270296  0  3.865738  0
C  C101  1  0.67180035  0.81992077  0.68413341  1  0  -0.168035  0  3.629429  0  0  -0.268437  0  3.870799  0  0  -0.26529  0  3.878452  0  0.233721  0  -0.142043  -0.270281  0  3.865782  0
C  C102  1  0.82820093  0.81992248  0.18413354  1  0  -0.168032  0  3.629406  0  0  -0.268451  0  3.870787  0  0  -0.265304  0  3.878435  0  0.233717  0  -0.142044  -0.270291  0  3.865753  0
C  C103  1  0.32820050  0.18007890  0.31586671  1  0  -0.167974  0  3.629315  0  0  -0.268359  0  3.870686  0  0  -0.265211  0  3.878336  0  0.233702  0  -0.141999  -0.270201  0  3.865658  0
C  C104  1  0.87140205  0.50802025  0.61692915  1  0  -0.543253  0  3.549416  0  0  -0.582951  0  3.79623  0  0  -0.599777  0  3.809837  0  -0.283639  0  -0.361534  -0.571938  0  3.787645  0
C  C105  1  0.37140402  0.49197942  0.88307049  1  0  -0.543252  0  3.549308  0  0  -0.582929  0  3.796164  0  0  -0.599742  0  3.809791  0  -0.283691  0  -0.361515  -0.571917  0  3.787578  0
C  C106  1  0.12859880  0.49198027  0.38307103  1  0  -0.543173  0  3.549435  0  0  -0.582858  0  3.796269  0  0  -0.599683  0  3.809879  0  -0.283683  0  -0.361509  -0.571847  0  3.787682  0
C  C107  1  0.62859923  0.50801855  0.11692713  1  0  -0.543259  0  3.549469  0  0  -0.582966  0  3.796308  0  0  -0.599789  0  3.80992  0  -0.283588  0  -0.361565  -0.571952  0  3.787725  0
S  S108  1  0.23980711  0.36100574  0.71576614  1  0  -0.387286  0  2.089776  0  0  -0.362964  0  2.438813  0  0  -0.377809  0  2.432527  0  -0.154274  0  -0.18558  -0.352056  0  2.442549  0
S  S109  1  0.73980513  0.63899138  0.78423425  1  0  -0.387293  0  2.089718  0  0  -0.362922  0  2.438784  0  0  -0.377769  0  2.4325  0  -0.154392  0  -0.185577  -0.352015  0  2.442518  0
S  S110  1  0.76019494  0.63899394  0.28423351  1  0  -0.387283  0  2.089751  0  0  -0.362966  0  2.438776  0  0  -0.37781  0  2.43249  0  -0.154406  0  -0.185597  -0.352058  0  2.442513  0
S  S111  1  0.26019332  0.36100574  0.21576661  1  0  -0.387252  0  2.089745  0  0  -0.362935  0  2.438798  0  0  -0.377782  0  2.432513  0  -0.154275  0  -0.185581  -0.352027  0  2.442533  0
S  S112  1  0.87372885  0.13794570  0.67876996  1  0  -0.365  0  2.135162  0  0  -0.343005  0  2.501377  0  0  -0.358363  0  2.49489  0  -0.13226  0  -0.168826  -0.332378  0  2.505563  0
S  S113  1  0.37373322  0.86205312  0.82122914  1  0  -0.365023  0  2.135125  0  0  -0.343018  0  2.501367  0  0  -0.358369  0  2.494866  0  -0.132298  0  -0.168848  -0.332391  0  2.505546  0
S  S114  1  0.12627080  0.86205568  0.32123029  1  0  -0.365041  0  2.135092  0  0  -0.343021  0  2.501318  0  0  -0.358381  0  2.494836  0  -0.132278  0  -0.168838  -0.332395  0  2.505504  0
S  S115  1  0.62627002  0.13794399  0.17877125  1  0  -0.365025  0  2.135078  0  0  -0.343014  0  2.501305  0  0  -0.358379  0  2.494835  0  -0.132341  0  -0.168838  -0.332388  0  2.505488  0
I  I116  1  0.35396797  0.01112212  0.64418789  1  0  -0.38947  0  1.06927  0  0  -0.344273  0  1.387743  0  0  -0.361433  0  1.37502  0  -0.407038  0  -0.210376  -0.332689  0  1.396438  0
I  I117  1  0.85396001  0.98888438  0.85581323  1  0  -0.38949  0  1.069271  0  0  -0.344277  0  1.38771  0  0  -0.361438  0  1.374986  0  -0.407024  0  -0.210386  -0.332696  0  1.396412  0
I  I118  1  0.64603048  0.98887926  0.35581236  1  0  -0.389473  0  1.069273  0  0  -0.344275  0  1.387737  0  0  -0.361433  0  1.375015  0  -0.407053  0  -0.210382  -0.332692  0  1.396435  0
I  I119  1  0.14604084  0.01112042  0.14418634  1  0  -0.389477  0  1.069279  0  0  -0.344264  0  1.387716  0  0  -0.361422  0  1.374996  0  -0.407015  0  -0.210374  -0.332684  0  1.396418  0
I  I120  1  0.10495195  0.25886528  0.50669942  1  0  -0.384315  0  1.160255  0  0  -0.32643  0  1.503066  0  0  -0.344818  0  1.486154  0  -0.372613  0  -0.192537  -0.313488  0  1.513787  0
I  I121  1  0.60495837  0.74112842  0.99329929  1  0  -0.384286  0  1.16026  0  0  -0.32639  0  1.503086  0  0  -0.344784  0  1.486177  0  -0.372528  0  -0.192531  -0.313448  0  1.513805  0
I  I122  1  0.89504291  0.74112842  0.49329788  1  0  -0.384296  0  1.160269  0  0  -0.326416  0  1.503107  0  0  -0.344806  0  1.486198  0  -0.372583  0  -0.192534  -0.313473  0  1.51382  0
I  I123  1  0.39504608  0.25886528  0.00669895  1  0  -0.384314  0  1.160304  0  0  -0.32642  0  1.503133  0  0  -0.344814  0  1.486224  0  -0.372527  0  -0.192533  -0.313478  0  1.513852  0
I  I124  1  0.63427179  0.40313126  0.41087767  1  0  -0.384642  0  1.176189  0  0  -0.33181  0  1.512268  0  0  -0.348392  0  1.492973  0  -0.352659  0  -0.18889  -0.320283  0  1.525401  0
I  I125  1  0.13427136  0.59687012  0.08912211  1  0  -0.384651  0  1.176183  0  0  -0.33181  0  1.512261  0  0  -0.3484  0  1.492958  0  -0.352685  0  -0.188896  -0.320283  0  1.525395  0
I  I126  1  0.36572906  0.59686927  0.58912204  1  0  -0.384637  0  1.17619  0  0  -0.331791  0  1.512275  0  0  -0.348373  0  1.49298  0  -0.352665  0  -0.188893  -0.320265  0  1.525406  0
I  I127  1  0.86572709  0.40313041  0.91087855  1  0  -0.38464  0  1.176215  0  0  -0.331796  0  1.512287  0  0  -0.348382  0  1.492987  0  -0.352709  0  -0.188896  -0.32027  0  1.525422  0
N  N128  1  0.63472852  0.27915262  0.64649626  1  0  -0.122358  0  3.526915  0  0  -0.032609  0  3.749733  0  0  -0.049064  0  3.774113  0  -1.191912  0  -0.242984  -0.021661  0  3.733119  0
N  N129  1  0.13473049  0.72084961  0.85350358  1  0  -0.12233  0  3.526933  0  0  -0.032655  0  3.749856  0  0  -0.049112  0  3.77424  0  -1.191935  0  -0.24297  -0.021708  0  3.733244  0
N  N130  1  0.36527114  0.72084876  0.35350399  1  0  -0.122314  0  3.526902  0  0  -0.032561  0  3.74975  0  0  -0.049016  0  3.774131  0  -1.191935  0  -0.242996  -0.021612  0  3.733136  0
N  N131  1  0.86526796  0.27915177  0.14649667  1  0  -0.122426  0  3.526975  0  0  -0.032776  0  3.749923  0  0  -0.049233  0  3.774305  0  -1.19197  0  -0.242996  -0.021828  0  3.73331  0
N  N132  1  0.33222955  0.21277818  0.79892415  1  0  -0.050449  0  3.564329  0  0  0.052042  0  3.776031  0  0  0.036673  0  3.802153  0  -1.208497  0  -0.238382  0.062152  0  3.758302  0
N  N133  1  0.83222758  0.78721894  0.70107530  1  0  -0.050496  0  3.564452  0  0  0.052011  0  3.776204  0  0  0.036641  0  3.802327  0  -1.208552  0  -0.238427  0.062121  0  3.758475  0
N  N134  1  0.66777130  0.78722150  0.20107503  1  0  -0.05043  0  3.564327  0  0  0.052037  0  3.776066  0  0  0.036666  0  3.802191  0  -1.208524  0  -0.238463  0.062146  0  3.758339  0
N  N135  1  0.16776967  0.21277818  0.29892462  1  0  -0.050363  0  3.564238  0  0  0.052115  0  3.775944  0  0  0.036747  0  3.802067  0  -1.208527  0  -0.238389  0.062223  0  3.758216  0
N  N136  1  0.53242105  0.28629524  0.75308556  1  0  -0.123082  0  3.522815  0  0  -0.034067  0  3.74773  0  0  -0.050293  0  3.771397  0  -1.223457  0  -0.241481  -0.023245  0  3.731546  0
N  N137  1  0.03241942  0.71370528  0.74691462  1  0  -0.123078  0  3.522889  0  0  -0.034027  0  3.747837  0  0  -0.050254  0  3.771504  0  -1.223275  0  -0.241479  -0.023206  0  3.731645  0
N  N138  1  0.46757980  0.71370784  0.24691529  1  0  -0.123011  0  3.522878  0  0  -0.034013  0  3.747801  0  0  -0.050253  0  3.771481  0  -1.22369  0  -0.241486  -0.023191  0  3.731615  0
N  N139  1  0.96757903  0.28629354  0.25308449  1  0  -0.122983  0  3.52287  0  0  -0.033972  0  3.747795  0  0  -0.050203  0  3.77147  0  -1.223276  0  -0.24149  -0.023151  0  3.731606  0
N  N140  1  0.70006605  0.14663576  0.56900173  1  0  -0.053115  0  3.577744  0  0  0.048634  0  3.792408  0  0  0.032973  0  3.818329  0  -1.218514  0  -0.241678  0.058838  0  3.774888  0
N  N141  1  0.20006922  0.85336562  0.93099805  1  0  -0.053191  0  3.577826  0  0  0.048566  0  3.792471  0  0  0.032902  0  3.818393  0  -1.218418  0  -0.241683  0.058771  0  3.774951  0
N  N142  1  0.29993240  0.85336562  0.43099946  1  0  -0.053118  0  3.577825  0  0  0.04865  0  3.792472  0  0  0.03299  0  3.818392  0  -1.218317  0  -0.241648  0.058854  0  3.774951  0
N  N143  1  0.79993043  0.14663491  0.06900261  1  0  -0.0533  0  3.57782  0  0  0.048456  0  3.792478  0  0  0.032793  0  3.818401  0  -1.218397  0  -0.241729  0.058661  0  3.774958  0
