# generated using pymatgen
data_AlH7(C3O2)3
_symmetry_space_group_name_H-M   'P 1'
_cell_length_a   10.17151023
_cell_length_b   15.99621403
_cell_length_c   15.99159252
_cell_angle_alpha   84.18014019
_cell_angle_beta   71.45325307
_cell_angle_gamma   71.44823877
_symmetry_Int_Tables_number   1
_chemical_formula_structural   AlH7(C3O2)3
_chemical_formula_sum   'Al8 H56 C72 O48'
_cell_volume   2338.60743292
_cell_formula_units_Z   8
loop_
 _symmetry_equiv_pos_site_id
 _symmetry_equiv_pos_as_xyz
  1  'x, y, z'
loop_
 _atom_site_type_symbol
 _atom_site_label
 _atom_site_symmetry_multiplicity
 _atom_site_fract_x
 _atom_site_fract_y
 _atom_site_fract_z
 _atom_site_occupancy
 _atom_site_pbe_bader_charge
 _atom_site_pbe_bader_spin_density
 _atom_site_pbe_cm5_charge
 _atom_site_pbe_ddec_charge
 _atom_site_pbe_ddec_spin_density
 _atom_site_pbe_ddec_sum_bond_order
 _atom_site_pbe_magmom
Al  Al0  1  0.33201547  0.91873032  0.56013706  1  2.501361  0  0.39422  1.636416  0  2.587493  0
Al  Al1  1  0.81093535  0.08114129  0.43992162  1  2.496646  0  0.393214  1.634383  0  2.591136  0
Al  Al2  1  0.00087508  0.06019196  0.58119446  1  2.501737  0  0.393068  1.634328  0  2.592537  0
Al  Al3  1  0.64227417  0.93970029  0.41875493  1  2.502214  0  0.393294  1.634502  0  2.590388  0
Al  Al4  1  0.41798664  0.58126393  0.93986454  1  2.501329  0  0.39407  1.636603  0  2.587461  0
Al  Al5  1  0.93906643  0.41886168  0.06007679  1  2.496783  0  0.393162  1.634437  0  2.590873  0
Al  Al6  1  0.74913517  0.43980557  0.91879843  1  2.501713  0  0.393215  1.634263  0  2.592603  0
Al  Al7  1  0.10772402  0.56029782  0.08124899  1  2.502137  0  0.393314  1.634457  0  2.59042  0
H  H8  1  0.52084940  0.36106468  0.28993004  1  0.040122  0  0.096137  0.096458  0  1.029006  0
H  H9  1  0.53427210  0.37413360  0.39638142  1  0.084775  0  0.112824  0.12515  0  0.959873  0
H  H10  1  0.38733900  0.44894760  0.36089441  1  0.093271  0  0.096254  0.096728  0  1.038736  0
H  H11  1  0.43548719  0.03307013  0.72182585  1  0.126138  0  0.114958  0.134182  0  0.991672  0
H  H12  1  0.01228282  0.22683739  0.77111337  1  0.137109  0  0.11582  0.127923  0  0.996235  0
H  H13  1  0.30487040  0.24375729  0.90827930  1  0.107391  0  0.113238  0.129243  0  1.013361  0
H  H14  1  0.74385941  0.53299444  0.02267350  1  0.605147  0  0.34546  0.419015  0  0.872176  0
H  H15  1  0.17220955  0.63867127  0.71013593  1  0.057685  0  0.096061  0.096282  0  1.028624  0
H  H16  1  0.30513462  0.62564544  0.60367894  1  0.067897  0  0.113319  0.125285  0  0.960488  0
H  H17  1  0.19758111  0.55084576  0.63909334  1  0.078427  0  0.096566  0.096994  0  1.03849  0
H  H18  1  0.19059899  0.96687160  0.27823191  1  0.12055  0  0.114848  0.133194  0  0.991898  0
H  H19  1  0.01079593  0.77298745  0.22896847  1  0.125215  0  0.116787  0.129965  0  0.99718  0
H  H20  1  0.45729261  0.75636817  0.09157858  1  0.121956  0  0.112984  0.128387  0  1.014244  0
H  H21  1  0.29947009  0.46712709  0.97734362  1  0.609125  0  0.345653  0.419177  0  0.872617  0
H  H22  1  0.63203473  0.79005301  0.13858381  1  0.062948  0  0.095606  0.095834  0  1.028986  0
H  H23  1  0.65860280  0.89646151  0.12523364  1  0.079322  0  0.112838  0.124549  0  0.960614  0
H  H24  1  0.58652912  0.86084731  0.05052709  1  0.091348  0  0.096082  0.096116  0  1.039067  0
H  H25  1  0.21885046  0.22149064  0.46677859  1  0.128158  0  0.115198  0.134007  0  0.991255  0
H  H26  1  0.98946300  0.27112719  0.27295690  1  0.122409  0  0.115715  0.127307  0  0.997016  0
H  H27  1  0.29912258  0.40813208  0.25619416  1  0.096484  0  0.113492  0.129145  0  1.013044  0
H  H28  1  0.02687632  0.52291999  0.96698602  1  0.608723  0  0.345936  0.420205  0  0.870603  0
H  H29  1  0.56047410  0.21004485  0.86111726  1  0.062165  0  0.095906  0.09757  0  1.028098  0
H  H30  1  0.68047315  0.10370384  0.87427084  1  0.034356  0  0.113558  0.12636  0  0.960763  0
H  H31  1  0.49821464  0.13922283  0.94927015  1  0.078992  0  0.096632  0.098391  0  1.037656  0
H  H32  1  0.90737947  0.77835857  0.53318964  1  0.097194  0  0.11534  0.133746  0  0.992684  0
H  H33  1  0.53375567  0.72879529  0.72707810  1  0.137956  0  0.11638  0.12895  0  0.995935  0
H  H34  1  0.96372713  0.59167792  0.74374833  1  0.088381  0  0.113599  0.129166  0  1.013266  0
H  H35  1  0.51660321  0.47719185  0.03300546  1  0.608375  0  0.3454  0.419126  0  0.871702  0
H  H36  1  0.22915024  0.13894463  0.21006682  1  0.040098  0  0.096132  0.096503  0  1.029143  0
H  H37  1  0.21572218  0.12588296  0.10361102  1  0.084709  0  0.112794  0.125126  0  0.959943  0
H  H38  1  0.36264730  0.05105710  0.13910145  1  0.093292  0  0.096251  0.0968  0  1.038758  0
H  H39  1  0.31450922  0.46693400  0.77818244  1  0.12601  0  0.114933  0.134179  0  0.991611  0
H  H40  1  0.73772159  0.27317400  0.72887743  1  0.1371  0  0.115839  0.1279  0  0.996322  0
H  H41  1  0.44513747  0.25625410  0.59171321  1  0.107413  0  0.11323  0.129166  0  1.013271  0
H  H42  1  0.00612569  0.96700235  0.47732755  1  0.605293  0  0.345432  0.418955  0  0.872122  0
H  H43  1  0.57778086  0.86133419  0.78986959  1  0.057748  0  0.096061  0.0963  0  1.028654  0
H  H44  1  0.44484884  0.87436464  0.89632297  1  0.067737  0  0.11329  0.125206  0  0.960536  0
H  H45  1  0.55240961  0.94916036  0.86091156  1  0.078333  0  0.096525  0.09695  0  1.0386  0
H  H46  1  0.55939164  0.53311596  0.22176622  1  0.120393  0  0.114876  0.133237  0  0.991983  0
H  H47  1  0.73919351  0.72701066  0.27103075  1  0.125399  0  0.116791  0.129954  0  0.997138  0
H  H48  1  0.29271387  0.74362334  0.40841637  1  0.121462  0  0.112985  0.128428  0  1.014163  0
H  H49  1  0.45051431  0.03286649  0.52266325  1  0.608994  0  0.345614  0.41901  0  0.872855  0
H  H50  1  0.11796648  0.70995433  0.36141976  1  0.062851  0  0.095616  0.095903  0  1.02898  0
H  H51  1  0.09138015  0.60354979  0.37476956  1  0.079263  0  0.112855  0.124524  0  0.960606  0
H  H52  1  0.16346878  0.63915409  0.44947244  1  0.091269  0  0.096082  0.096136  0  1.03901  0
H  H53  1  0.53116995  0.27849625  0.03321606  1  0.128224  0  0.115186  0.134022  0  0.991298  0
H  H54  1  0.76055237  0.22887446  0.22704415  1  0.122009  0  0.115703  0.127294  0  0.996852  0
H  H55  1  0.45089347  0.09187064  0.24380617  1  0.096388  0  0.113553  0.129192  0  1.01305  0
H  H56  1  0.72311836  0.97709075  0.53301580  1  0.608834  0  0.345939  0.420234  0  0.870556  0
H  H57  1  0.18953409  0.28995863  0.63887982  1  0.06213  0  0.095899  0.097552  0  1.028166  0
H  H58  1  0.06953199  0.39630029  0.62572790  1  0.075169  0  0.113551  0.126321  0  0.960669  0
H  H59  1  0.25179087  0.36078131  0.55073027  1  0.078902  0  0.096616  0.098364  0  1.037675  0
H  H60  1  0.84260276  0.72164516  0.96681610  1  0.096761  0  0.115353  0.133768  0  0.9927  0
H  H61  1  0.21623409  0.77120292  0.77293262  1  0.137771  0  0.116395  0.129083  0  0.996024  0
H  H62  1  0.78625454  0.90832713  0.75626139  1  0.088267  0  0.113647  0.129153  0  1.013325  0
H  H63  1  0.23340862  0.02279438  0.46699077  1  0.608344  0  0.345462  0.419205  0  0.871623  0
C  C64  1  0.15031247  0.24273702  0.84304439  1  0.045582  0  -0.012744  -0.020167  0  3.997088  0
C  C65  1  0.35576835  0.09239242  0.75562344  1  -0.03832  0  -0.086131  -0.194262  0  3.929172  0
C  C66  1  0.03773900  0.32057034  0.89361318  1  1.571806  0  0.272553  0.64218  0  4.06965  0
C  C67  1  0.56704713  0.14128044  0.88081662  1  0.396972  0  -0.14003  -0.180997  0  3.893079  0
C  C68  1  0.28503805  0.21010123  0.85984063  1  -0.041955  0  -0.091401  -0.216192  0  3.930398  0
C  C69  1  0.11752170  0.20119684  0.78296586  1  -0.033352  0  -0.080326  -0.128963  0  3.944658  0
C  C70  1  0.18928972  0.07443714  0.67912345  1  1.576421  0  0.263207  0.628494  0  4.103956  0
C  C71  1  0.22052145  0.12446091  0.74055843  1  -0.026608  0  -0.019432  -0.037764  0  4.026874  0
C  C72  1  0.38957427  0.13572366  0.81409527  1  0.446685  0  0.084548  0.24948  0  4.086938  0
C  C73  1  0.23654751  0.75722308  0.15699348  1  -0.042957  0  -0.012971  -0.02031  0  3.998793  0
C  C74  1  0.20405823  0.90755458  0.24442366  1  -0.090547  0  -0.085234  -0.189746  0  3.923764  0
C  C75  1  0.25216513  0.67948451  0.10638969  1  1.563405  0  0.272319  0.642019  0  4.074141  0
C  C76  1  0.58931261  0.85880841  0.11890040  1  0.340238  0  -0.138043  -0.173757  0  3.892879  0
C  C77  1  0.35537007  0.78992575  0.14011183  1  -0.012566  0  -0.091297  -0.214284  0  3.93115  0
C  C78  1  0.10211621  0.79871787  0.21712990  1  -0.036988  0  -0.081512  -0.132522  0  3.950815  0
C  C79  1  0.94299537  0.92544719  0.32089845  1  1.559075  0  0.26243  0.627443  0  4.106895  0
C  C80  1  0.08584155  0.87546206  0.25951518  1  0.064619  0  -0.019668  -0.038329  0  4.02674  0
C  C81  1  0.33969115  0.86428307  0.18588050  1  0.472383  0  0.083934  0.246209  0  4.08712  0
C  C82  1  0.14346376  0.34298897  0.25710429  1  -0.054802  0  -0.014156  -0.02503  0  4.001878  0
C  C83  1  0.19855889  0.25534103  0.40742977  1  -0.012839  0  -0.085989  -0.193301  0  3.924608  0
C  C84  1  0.10846552  0.39369924  0.17936149  1  1.567366  0  0.272013  0.641999  0  4.071653  0
C  C85  1  0.45855012  0.38059087  0.35873375  1  0.354358  0  -0.139166  -0.176024  0  3.890323  0
C  C86  1  0.24561548  0.35965770  0.28976756  1  0.015244  0  -0.091057  -0.21434  0  3.930887  0
C  C87  1  0.06907896  0.28290522  0.29861832  1  -0.030691  0  -0.079871  -0.126041  0  3.946873  0
C  C88  1  0.01370304  0.17913709  0.42541588  1  1.544892  0  0.264308  0.630835  0  4.105742  0
C  C89  1  0.09527802  0.24043154  0.37535396  1  0.039153  0  -0.019447  -0.038985  0  4.025104  0
C  C90  1  0.27580238  0.31378164  0.36410858  1  0.438556  0  0.085642  0.251698  0  4.084275  0
C  C91  1  0.74381325  0.65692080  0.74283525  1  0.054671  0  -0.013406  -0.021802  0  3.999535  0
C  C92  1  0.86158422  0.74451872  0.59253247  1  -0.070498  0  -0.08534  -0.19126  0  3.926563  0
C  C93  1  0.68174817  0.60624265  0.82055760  1  1.59127  0  0.272111  0.641462  0  4.075285  0
C  C94  1  0.19822246  0.61919677  0.64131418  1  0.367812  0  -0.138702  -0.174591  0  3.891081  0
C  C95  1  0.89534306  0.64018639  0.71018200  1  -0.079883  0  -0.091494  -0.214619  0  3.930927  0
C  C96  1  0.65083854  0.71699940  0.70133285  1  -0.050793  0  -0.079926  -0.128298  0  3.947576  0
C  C97  1  0.61839947  0.82073759  0.57452361  1  1.564291  0  0.262427  0.626605  0  4.110886  0
C  C98  1  0.71126570  0.75944640  0.62459004  1  -0.006808  0  -0.019253  -0.038274  0  4.026159  0
C  C99  1  0.95399381  0.68608440  0.63586388  1  0.551178  0  0.084912  0.249061  0  4.08716  0
C  C100  1  0.59968852  0.25726975  0.65695201  1  0.045789  0  -0.012718  -0.01991  0  3.996803  0
C  C101  1  0.39423124  0.40761501  0.74438218  1  -0.038268  0  -0.086089  -0.194298  0  3.928849  0
C  C102  1  0.71225848  0.17943907  0.60638026  1  1.571262  0  0.272343  0.641693  0  4.070065  0
C  C103  1  0.18295934  0.35872303  0.61918317  1  0.356405  0  -0.139994  -0.180874  0  3.893002  0
C  C104  1  0.46496638  0.28991213  0.64015836  1  -0.041987  0  -0.091416  -0.216231  0  3.930461  0
C  C105  1  0.63248367  0.29881191  0.71703039  1  -0.033386  0  -0.080311  -0.129031  0  3.944461  0
C  C106  1  0.56074711  0.42554655  0.82087466  1  1.576325  0  0.263061  0.628274  0  4.104197  0
C  C107  1  0.52947721  0.37554454  0.75944193  1  -0.026814  0  -0.019399  -0.037602  0  4.026733  0
C  C108  1  0.36043066  0.36428179  0.68590201  1  0.446899  0  0.084542  0.249565  0  4.086643  0
C  C109  1  0.51345068  0.74277173  0.34300287  1  -0.042768  0  -0.012975  -0.020331  0  3.998843  0
C  C110  1  0.54594058  0.59242968  0.25556909  1  -0.090258  0  -0.085127  -0.189679  0  3.923183  0
C  C111  1  0.49782016  0.82050700  0.39361784  1  1.563083  0  0.272268  0.641879  0  4.0744  0
C  C112  1  0.16068121  0.64119695  0.38110015  1  0.340365  0  -0.138095  -0.173834  0  3.892853  0
C  C113  1  0.39463119  0.71006510  0.35988244  1  -0.011708  0  -0.091306  -0.21443  0  3.931538  0
C  C114  1  0.64787964  0.70127233  0.28286285  1  -0.03742  0  -0.081502  -0.132436  0  3.951078  0
C  C115  1  0.80700000  0.57454392  0.17909691  1  1.558802  0  0.262422  0.627401  0  4.106983  0
C  C116  1  0.66415251  0.62453407  0.24047946  1  0.064508  0  -0.019668  -0.03835  0  4.02641  0
C  C117  1  0.41030333  0.63571043  0.31411707  1  0.472408  0  0.083817  0.246166  0  4.087186  0
C  C118  1  0.60655810  0.15701045  0.24288687  1  -0.055207  0  -0.01423  -0.024934  0  4.001767  0
C  C119  1  0.55145542  0.24465641  0.09256465  1  -0.012295  0  -0.08606  -0.193446  0  3.924412  0
C  C120  1  0.64153179  0.10628963  0.32063440  1  1.567339  0  0.272031  0.642078  0  4.071668  0
C  C121  1  0.29144484  0.11941581  0.14126388  1  0.354515  0  -0.139104  -0.176144  0  3.890578  0
C  C122  1  0.50439611  0.14033974  0.21022851  1  0.015448  0  -0.09108  -0.214377  0  3.930654  0
C  C123  1  0.68093187  0.21708827  0.20137941  1  -0.03029  0  -0.079929  -0.126213  0  3.947295  0
C  C124  1  0.73631676  0.32086101  0.07457693  1  1.544649  0  0.264378  0.630921  0  4.105788  0
C  C125  1  0.65474128  0.25956722  0.12464513  1  0.03931  0  -0.019427  -0.039014  0  4.024742  0
C  C126  1  0.47420933  0.18621646  0.13588603  1  0.438161  0  0.085674  0.251765  0  4.084065  0
C  C127  1  0.00617195  0.84308598  0.75717065  1  0.054417  0  -0.013449  -0.02163  0  3.998981  0
C  C128  1  0.88840148  0.75548700  0.90747603  1  -0.0701  0  -0.085412  -0.191288  0  3.926413  0
C  C129  1  0.06827357  0.89374962  0.67944105  1  1.591736  0  0.272316  0.641559  0  4.075096  0
C  C130  1  0.55176614  0.88081067  0.85869112  1  0.368871  0  -0.138581  -0.174441  0  3.890997  0
C  C131  1  0.85465061  0.85981867  0.78982616  1  -0.079832  0  -0.091564  -0.214602  0  3.931163  0
C  C132  1  0.09915567  0.78300211  0.79867395  1  -0.050346  0  -0.079934  -0.128583  0  3.947352  0
C  C133  1  0.13157175  0.67926260  0.92548799  1  1.564577  0  0.262483  0.62681  0  4.110229  0
C  C134  1  0.03871972  0.74055774  0.87541794  1  -0.006823  0  -0.019236  -0.038195  0  4.026083  0
C  C135  1  0.79599070  0.81392461  0.86414317  1  0.551165  0  0.084844  0.248701  0  4.087089  0
O  O136  1  0.04981064  0.33574188  0.96721787  1  -1.260681  0  -0.2313  -0.58315  0  2.330739  0
O  O137  1  0.28252404  0.99943812  0.65437897  1  -1.274149  0  -0.241595  -0.610517  0  2.388287  0
O  O138  1  0.07489986  0.10896608  0.65568428  1  -1.256216  0  -0.231674  -0.577045  0  2.322606  0
O  O139  1  0.93709921  0.36461485  0.86067267  1  -1.255772  0  -0.231752  -0.578367  0  2.314715  0
O  O140  1  0.18504407  0.98981373  0.51456987  1  -1.429294  0  -0.456761  -0.994333  0  2.195748  0
O  O141  1  0.52594005  0.09978493  0.82185448  1  -1.08041  0  -0.186238  -0.166165  0  2.584173  0
O  O142  1  0.35286213  0.66439831  0.03270971  1  -1.259766  0  -0.231547  -0.583617  0  2.332383  0
O  O143  1  0.93642914  0.00042612  0.34573328  1  -1.268224  0  -0.241249  -0.609433  0  2.38982  0
O  O144  1  0.83968409  0.89096065  0.34418570  1  -1.248362  0  -0.231514  -0.577284  0  2.323019  0
O  O145  1  0.16259532  0.63547452  0.13931389  1  -1.243405  0  -0.231484  -0.577907  0  2.314946  0
O  O146  1  0.68943953  0.01006870  0.48540937  1  -1.424054  0  -0.457383  -0.995648  0  2.196011  0
O  O147  1  0.44784135  0.90026632  0.17802509  1  -1.082287  0  -0.18555  -0.166359  0  2.583962  0
O  O148  1  0.13529636  0.46742083  0.16439764  1  -1.25912  0  -0.230243  -0.58162  0  2.331216  0
O  O149  1  0.03201885  0.15433456  0.50042093  1  -1.266326  0  -0.242665  -0.61215  0  2.390374  0
O  O150  1  0.93356579  0.15586599  0.39102403  1  -1.250852  0  -0.231662  -0.577811  0  2.322609  0
O  O151  1  0.05200919  0.36078527  0.13523348  1  -1.247947  0  -0.231922  -0.578542  0  2.315981  0
O  O152  1  0.92476736  0.01456761  0.51030643  1  -1.421684  0  -0.456693  -0.993797  0  2.196045  0
O  O153  1  0.37629519  0.32140322  0.40006083  1  -1.081364  0  -0.187283  -0.169409  0  2.581953  0
O  O154  1  0.76728830  0.53248575  0.83549380  1  -1.261554  0  -0.231451  -0.582434  0  2.333268  0
O  O155  1  0.68690805  0.84555431  0.49951252  1  -1.275061  0  -0.24096  -0.609122  0  2.392227  0
O  O156  1  0.48059200  0.84398077  0.60892479  1  -1.245162  0  -0.232779  -0.578361  0  2.323762  0
O  O157  1  0.54821331  0.63921458  0.86469938  1  -1.270244  0  -0.231772  -0.579076  0  2.315995  0
O  O158  1  0.44967027  0.98528955  0.48973811  1  -1.428734  0  -0.456997  -0.993653  0  2.197075  0
O  O159  1  0.09809121  0.67843980  0.59998429  1  -1.079522  0  -0.187713  -0.169936  0  2.582767  0
O  O160  1  0.70020386  0.16426554  0.53278538  1  -1.260752  0  -0.231085  -0.582755  0  2.331351  0
O  O161  1  0.46747917  0.50056866  0.84562459  1  -1.273372  0  -0.241689  -0.610792  0  2.387635  0
O  O162  1  0.67510304  0.39103014  0.84430727  1  -1.257007  0  -0.23152  -0.576717  0  2.32351  0
O  O163  1  0.81292017  0.13538822  0.63933154  1  -1.255046  0  -0.231734  -0.578291  0  2.314163  0
O  O164  1  0.56495918  0.51017657  0.98542439  1  -1.429316  0  -0.456632  -0.994249  0  2.195786  0
O  O165  1  0.22405876  0.40022184  0.67814610  1  -1.080534  0  -0.186246  -0.166239  0  2.583954  0
O  O166  1  0.39714083  0.83559189  0.46728730  1  -1.259796  0  -0.231392  -0.583419  0  2.33311  0
O  O167  1  0.81355615  0.49956234  0.15426594  1  -1.268267  0  -0.241237  -0.60938  0  2.38973  0
O  O168  1  0.91031019  0.60902519  0.15581025  1  -1.24808  0  -0.231604  -0.577344  0  2.323329  0
O  O169  1  0.58740564  0.86452095  0.36068962  1  -1.242994  0  -0.231631  -0.577986  0  2.314508  0
O  O170  1  0.06055781  0.48993468  0.01459162  1  -1.423964  0  -0.457323  -0.995545  0  2.196007  0
O  O171  1  0.30215076  0.59973047  0.32197625  1  -1.08239  0  -0.185454  -0.166255  0  2.58377  0
O  O172  1  0.61468517  0.03257595  0.33560065  1  -1.259194  0  -0.230151  -0.581528  0  2.331414  0
O  O173  1  0.71802101  0.34566034  0.99957790  1  -1.266711  0  -0.242733  -0.612132  0  2.390847  0
O  O174  1  0.81645718  0.34412774  0.10897958  1  -1.250292  0  -0.231678  -0.577815  0  2.322356  0
O  O175  1  0.69799367  0.13920360  0.36476309  1  -1.247711  0  -0.23194  -0.578637  0  2.316043  0
O  O176  1  0.82522536  0.48543348  0.98969835  1  -1.421564  0  -0.456741  -0.99389  0  2.196061  0
O  O177  1  0.37371848  0.17859422  0.09993422  1  -1.081557  0  -0.187251  -0.169314  0  2.581836  0
O  O178  1  0.98271039  0.96751997  0.66449995  1  -1.261446  0  -0.231696  -0.58282  0  2.332683  0
O  O179  1  0.06308719  0.65444841  0.00049202  1  -1.275326  0  -0.24091  -0.609028  0  2.392631  0
O  O180  1  0.26940765  0.65600821  0.89107466  1  -1.245186  0  -0.232893  -0.578611  0  2.322651  0
O  O181  1  0.20177200  0.86078560  0.63530963  1  -1.270458  0  -0.231703  -0.578794  0  2.316769  0
O  O182  1  0.30032832  0.51470592  0.01026161  1  -1.42881  0  -0.457055  -0.993861  0  2.196692  0
O  O183  1  0.65189242  0.82156829  0.90002453  1  -1.08064  0  -0.187662  -0.16974  0  2.582399  0
