# generated using pymatgen
data_CuH3C7N6
_symmetry_space_group_name_H-M   'P 1'
_cell_length_a   32.49870777
_cell_length_b   32.73345032
_cell_length_c   32.77127133
_cell_angle_alpha   90.01469659
_cell_angle_beta   90.12042400
_cell_angle_gamma   89.89793297
_symmetry_Int_Tables_number   1
_chemical_formula_structural   CuH3C7N6
_chemical_formula_sum   'Cu12 H36 C84 N72'
_cell_volume   34861.77577870
_cell_formula_units_Z   12
loop_
 _symmetry_equiv_pos_site_id
 _symmetry_equiv_pos_as_xyz
  1  'x, y, z'
loop_
 _atom_site_type_symbol
 _atom_site_label
 _atom_site_symmetry_multiplicity
 _atom_site_fract_x
 _atom_site_fract_y
 _atom_site_fract_z
 _atom_site_occupancy
 _atom_site_pbe_bader_charge
 _atom_site_pbe_bader_spin_density
 _atom_site_pbe_cm5_charge
 _atom_site_pbe_ddec_charge
 _atom_site_pbe_ddec_spin_density
 _atom_site_pbe_ddec_sum_bond_order
 _atom_site_pbe_magmom
Cu  Cu0  1  0.37442999  0.58625534  0.66393223  1  0.553671  0  0.499375  0.220133  0  2.090533  0
Cu  Cu1  1  0.33446996  0.62555105  0.58406838  1  0.555571  0  0.499513  0.220256  0  2.090149  0
Cu  Cu2  1  0.41469851  0.66451908  0.62381988  1  0.555146  0  0.497849  0.2199  0  2.0859  0
Cu  Cu3  1  0.62376731  0.91490603  0.16298050  1  0.554148  0  0.498306  0.219746  0  2.086447  0
Cu  Cu4  1  0.66516292  0.87382272  0.08549594  1  0.555015  0  0.498276  0.21996  0  2.085844  0
Cu  Cu5  1  0.58479968  0.83456907  0.12429955  1  0.554424  0  0.499296  0.220018  0  2.090012  0
Cu  Cu6  1  0.87541049  0.41409572  0.83623735  1  0.554095  0  0.499799  0.219513  0  2.092846  0
Cu  Cu7  1  0.83522491  0.37399672  0.91489941  1  0.553643  0  0.499444  0.21947  0  2.092205  0
Cu  Cu8  1  0.91488730  0.33425808  0.87523965  1  0.552617  0  0.498522  0.220286  0  2.087198  0
Cu  Cu9  1  0.12399155  0.08568483  0.33702206  1  0.55443  0  0.498772  0.219615  0  2.08959  0
Cu  Cu10  1  0.16507541  0.12635266  0.41489570  1  0.555241  0  0.497485  0.21978  0  2.083094  0
Cu  Cu11  1  0.08447602  0.16571925  0.37588429  1  0.556609  0  0.499945  0.220197  0  2.093551  0
H  H12  1  0.30945495  0.51593775  0.68204746  1  0.140243  0  0.130435  0.122735  0  0.9783  0
H  H13  1  0.26449506  0.55978312  0.56530059  1  0.127977  0  0.130418  0.12219  0  0.978131  0
H  H14  1  0.48634845  0.68276373  0.68821679  1  0.132748  0  0.130733  0.122974  0  0.977629  0
H  H15  1  0.43901062  0.56843323  0.73554753  1  0.143044  0  0.130626  0.122273  0  0.978243  0
H  H16  1  0.31571917  0.69133567  0.51434639  1  0.13797  0  0.130558  0.122308  0  0.977543  0
H  H17  1  0.43356131  0.73458682  0.55902097  1  0.127089  0  0.130453  0.121981  0  0.977921  0
H  H18  1  0.68775581  0.98686978  0.18053983  1  0.136236  0  0.130766  0.122736  0  0.978352  0
H  H19  1  0.73751995  0.93732644  0.06821234  1  0.128401  0  0.130586  0.122561  0  0.978131  0
H  H20  1  0.51554514  0.81517114  0.19051645  1  0.129034  0  0.130735  0.122549  0  0.977543  0
H  H21  1  0.55813145  0.93334483  0.23284609  1  0.122891  0  0.130509  0.122325  0  0.978769  0
H  H22  1  0.68383355  0.80882280  0.01532595  1  0.135093  0  0.130726  0.122594  0  0.97846  0
H  H23  1  0.56574876  0.76512259  0.05842530  1  0.130887  0  0.13064  0.12263  0  0.978009  0
H  H24  1  0.80964941  0.48429687  0.81767318  1  0.131371  0  0.130672  0.12266  0  0.978358  0
H  H25  1  0.76508444  0.43956321  0.93400922  1  0.130435  0  0.130667  0.122512  0  0.977558  0
H  H26  1  0.98478904  0.31524460  0.80945742  1  0.122694  0  0.130524  0.121883  0  0.977637  0
H  H27  1  0.94161844  0.43330728  0.76704233  1  0.123912  0  0.130648  0.122328  0  0.978797  0
H  H28  1  0.81612130  0.30842924  0.98440044  1  0.138328  0  0.130575  0.122454  0  0.978149  0
H  H29  1  0.93390436  0.26423044  0.94057241  1  0.14877  0  0.130335  0.122317  0  0.977664  0
H  H30  1  0.18838557  0.01411474  0.31916757  1  0.11827  0  0.130465  0.122545  0  0.978953  0
H  H31  1  0.23734216  0.06232940  0.43254517  1  0.13372  0  0.130322  0.122329  0  0.977932  0
H  H32  1  0.01446676  0.18468710  0.31001961  1  0.129566  0  0.130449  0.122182  0  0.97825  0
H  H33  1  0.05849174  0.06724499  0.26687505  1  0.131395  0  0.130171  0.121656  0  0.97908  0
H  H34  1  0.18366248  0.19142584  0.48507764  1  0.115253  0  0.130563  0.122171  0  0.978377  0
H  H35  1  0.06558991  0.23543388  0.44138182  1  0.137932  0  0.130642  0.12225  0  0.977638  0
H  H36  1  0.82122680  0.12410281  0.07052152  1  0.118614  0  0.112395  0.115053  0  1.001478  0
H  H37  1  0.92875813  0.17882394  0.12493501  1  0.103477  0  0.112776  0.114812  0  1.004762  0
H  H38  1  0.87488836  0.07147428  0.17892598  1  0.10318  0  0.11291  0.115603  0  1.003554  0
H  H39  1  0.17861140  0.37518223  0.57129124  1  0.110102  0  0.112979  0.115231  0  1.004952  0
H  H40  1  0.07118180  0.32111160  0.62603803  1  0.105486  0  0.112604  0.114619  0  1.004704  0
H  H41  1  0.12543408  0.42889461  0.67916024  1  0.104998  0  0.112529  0.114271  0  1.004733  0
H  H42  1  0.32173365  0.87589428  0.42907829  1  0.107472  0  0.11291  0.115203  0  1.003147  0
H  H43  1  0.42928150  0.82100187  0.37496581  1  0.116311  0  0.112328  0.114205  0  1.004762  0
H  H44  1  0.37525893  0.92860970  0.32098400  1  0.102496  0  0.112815  0.115024  0  1.003906  0
H  H45  1  0.62509370  0.57100101  0.82142717  1  0.101524  0  0.112774  0.11511  0  1.004147  0
H  H46  1  0.57146052  0.67935473  0.87413752  1  0.097659  0  0.112564  0.114489  0  1.002918  0
H  H47  1  0.67887162  0.62465208  0.92917169  1  0.100754  0  0.112654  0.114893  0  1.003603  0
C  C48  1  0.30373649  0.53226790  0.65379210  1  0.436815  0  0.024935  -0.015079  0  3.928356  0
C  C49  1  0.27390963  0.52466681  0.62366445  1  0.059281  0  -0.030527  -0.090507  0  4.085256  0
C  C50  1  0.28103213  0.55437797  0.59358823  1  0.425738  0  0.02612  -0.01303  0  3.925147  0
C  C51  1  0.46920990  0.65505978  0.69449696  1  0.418797  0  0.025878  -0.013379  0  3.925677  0
C  C52  1  0.47585096  0.62564593  0.72504460  1  0.090734  0  -0.031059  -0.092575  0  4.083301  0
C  C53  1  0.44524871  0.59608729  0.71842122  1  0.404897  0  0.025846  -0.01244  0  3.926183  0
C  C54  1  0.34423478  0.69662661  0.53077697  1  0.445098  0  0.025839  -0.012586  0  3.92521  0
C  C55  1  0.37471449  0.72614733  0.52365181  1  0.039953  0  -0.031058  -0.09257  0  4.084173  0
C  C56  1  0.40499458  0.71843876  0.55334300  1  0.431926  0  0.025814  -0.01217  0  3.925246  0
C  C57  1  0.69455918  0.96923930  0.15333862  1  0.419241  0  0.025157  -0.014225  0  3.92624  0
C  C58  1  0.72578599  0.97523157  0.12437007  1  0.042503  0  -0.030889  -0.091772  0  4.08251  0
C  C59  1  0.71976076  0.94417212  0.09537131  1  0.466411  0  0.026064  -0.013311  0  3.926519  0
C  C60  1  0.53147960  0.84383412  0.19558013  1  0.413361  0  0.025577  -0.012847  0  3.924435  0
C  C61  1  0.52378183  0.87419027  0.22492217  1  0.085549  0  -0.030305  -0.091203  0  4.083411  0
C  C62  1  0.55296022  0.90475797  0.21689007  1  0.432904  0  0.025107  -0.013722  0  3.927363  0
C  C63  1  0.65524106  0.80338278  0.03145299  1  0.407596  0  0.025263  -0.013392  0  3.926453  0
C  C64  1  0.62480026  0.77393722  0.02371918  1  0.08472  0  -0.030954  -0.092404  0  4.084083  0
C  C65  1  0.59435524  0.78132930  0.05320081  1  0.403328  0  0.025792  -0.013394  0  3.926922  0
C  C66  1  0.80408462  0.46779853  0.84582652  1  0.42568  0  0.025435  -0.013824  0  3.929028  0
C  C67  1  0.77426032  0.47513269  0.87592342  1  0.083307  0  -0.030696  -0.092091  0  4.088486  0
C  C68  1  0.78158696  0.44526287  0.90583737  1  0.417988  0  0.02556  -0.013439  0  3.928039  0
C  C69  1  0.96864710  0.34383902  0.80433474  1  0.439454  0  0.025883  -0.011901  0  3.924611  0
C  C70  1  0.97636052  0.37429541  0.77514583  1  0.072226  0  -0.030614  -0.092175  0  4.085001  0
C  C71  1  0.94685481  0.40470607  0.78295979  1  0.433521  0  0.025054  -0.01367  0  3.92834  0
C  C72  1  0.84463417  0.30288229  0.96813650  1  0.409801  0  0.025792  -0.013341  0  3.928277  0
C  C73  1  0.87501066  0.27319189  0.97554818  1  0.03056  0  -0.030656  -0.091381  0  4.08522  0
C  C74  1  0.90536240  0.28057644  0.94600669  1  0.435946  0  0.025585  -0.014059  0  3.927175  0
C  C75  1  0.19500196  0.03142962  0.34662465  1  0.44218  0  0.02564  -0.013876  0  3.927428  0
C  C76  1  0.22608835  0.02509046  0.37582014  1  0.045909  0  -0.030662  -0.091739  0  4.08276  0
C  C77  1  0.21979939  0.05582602  0.40510327  1  0.449355  0  0.026467  -0.012579  0  3.924954  0
C  C78  1  0.03080419  0.15623996  0.30476283  1  0.450399  0  0.025827  -0.012903  0  3.92485  0
C  C79  1  0.02342589  0.12602371  0.27520333  1  0.047744  0  -0.030293  -0.090972  0  4.086738  0
C  C80  1  0.05301187  0.09566442  0.28302700  1  0.447118  0  0.02562  -0.013104  0  3.927616  0
C  C81  1  0.15506233  0.19690829  0.46882665  1  0.43463  0  0.024731  -0.013515  0  3.926592  0
C  C82  1  0.12461601  0.22646671  0.47639014  1  0.051295  0  -0.030398  -0.092084  0  4.083614  0
C  C83  1  0.09418973  0.21913953  0.44677574  1  0.444515  0  0.025568  -0.012568  0  3.924019  0
C  C84  1  0.84470710  0.09442142  0.12472009  1  -0.048807  0  -0.000358  0.031445  0  4.01127  0
C  C85  1  0.84472064  0.12438867  0.09427668  1  0.025454  0  -0.064769  -0.123836  0  3.896012  0
C  C86  1  0.87495372  0.15479895  0.09438573  1  0.05777  0  -0.001035  0.029876  0  4.010694  0
C  C87  1  0.90519701  0.15519708  0.12485796  1  -0.01579  0  -0.065155  -0.123766  0  3.895929  0
C  C88  1  0.90511367  0.12519530  0.15526707  1  -0.048259  0  -0.001618  0.030753  0  4.010601  0
C  C89  1  0.87486427  0.09480976  0.15524680  1  0.07645  0  -0.065526  -0.125578  0  3.898539  0
C  C90  1  0.15530246  0.40538216  0.62514750  1  -0.05218  0  -0.001096  0.029907  0  4.011344  0
C  C91  1  0.15516399  0.37511545  0.59498296  1  0.079387  0  -0.065979  -0.125039  0  3.898483  0
C  C92  1  0.12486876  0.34480047  0.59531477  1  -0.034675  0  -0.001089  0.030498  0  4.009812  0
C  C93  1  0.09476129  0.34471585  0.62578525  1  -0.045271  0  -0.06509  -0.123334  0  3.893987  0
C  C94  1  0.09499056  0.37497494  0.65597404  1  0.045787  0  -0.000416  0.029661  0  4.010853  0
C  C95  1  0.12526017  0.40534093  0.65568218  1  0.046479  0  -0.064835  -0.122414  0  3.894533  0
C  C96  1  0.34513186  0.90562798  0.37503819  1  0.060929  0  -0.000859  0.030056  0  4.009812  0
C  C97  1  0.34519354  0.87557094  0.40539687  1  -0.026207  0  -0.065269  -0.123687  0  3.896547  0
C  C98  1  0.37543454  0.84506665  0.40532289  1  -0.035008  0  -0.001489  0.028737  0  4.011095  0
C  C99  1  0.40569993  0.84468664  0.37499903  1  0.0309  0  -0.064076  -0.12185  0  3.893888  0
C  C100  1  0.40560064  0.87477912  0.34464884  1  0.048632  0  -0.001289  0.029341  0  4.00812  0
C  C101  1  0.37527972  0.90522137  0.34462196  1  -0.036356  0  -0.06556  -0.124187  0  3.896254  0
C  C102  1  0.65530154  0.59453425  0.87531111  1  -0.053505  0  -0.001371  0.030205  0  4.011692  0
C  C103  1  0.62506004  0.59462889  0.84483198  1  0.079467  0  -0.064967  -0.124037  0  3.89723  0
C  C104  1  0.59488368  0.62517626  0.84444653  1  -0.045595  0  -0.00142  0.029289  0  4.009709  0
C  C105  1  0.59494215  0.65556820  0.87448127  1  0.068813  0  -0.064629  -0.122645  0  3.894286  0
C  C106  1  0.62515157  0.65536511  0.90499266  1  -0.033509  0  -0.001093  0.030258  0  4.010919  0
C  C107  1  0.65535222  0.62484188  0.90543889  1  0.061318  0  -0.064758  -0.123624  0  3.896427  0
C  C108  1  0.75718178  0.00646922  0.12447105  1  0.93921  0  0.240524  0.273283  0  4.016865  0
C  C109  1  0.81294060  0.06239138  0.12463647  1  0.945179  0  0.241802  0.250207  0  3.975589  0
C  C110  1  0.24281822  0.49317183  0.62390890  1  0.944466  0  0.240289  0.272078  0  4.019818  0
C  C111  1  0.18717374  0.43722464  0.62472470  1  0.95781  0  0.240896  0.249109  0  3.978345  0
C  C112  1  0.25752601  0.99378679  0.37563272  1  0.936456  0  0.240228  0.272689  0  4.019522  0
C  C113  1  0.31333318  0.93773062  0.37519665  1  0.953617  0  0.241924  0.251075  0  3.975077  0
C  C114  1  0.74289939  0.50647412  0.87588620  1  0.949797  0  0.240523  0.272714  0  4.019557  0
C  C115  1  0.68711441  0.56251074  0.87558538  1  0.969348  0  0.241747  0.249619  0  3.976811  0
C  C116  1  0.99233249  0.12593624  0.24362700  1  0.914693  0  0.24035  0.271993  0  4.023311  0
C  C117  1  0.93686307  0.12552562  0.18731664  1  0.958282  0  0.241645  0.249657  0  3.977691  0
C  C118  1  0.50722324  0.62560804  0.75640016  1  0.946078  0  0.240437  0.273809  0  4.020503  0
C  C119  1  0.56306189  0.62534664  0.81240399  1  0.973746  0  0.24159  0.2503  0  3.975436  0
C  C120  1  0.00768486  0.37444338  0.74390747  1  0.911258  0  0.24029  0.273221  0  4.018521  0
C  C121  1  0.06334418  0.37481088  0.68800521  1  0.973877  0  0.241197  0.249003  0  3.978656  0
C  C122  1  0.49278017  0.87419314  0.25649612  1  0.918627  0  0.240448  0.272502  0  4.021228  0
C  C123  1  0.43736119  0.87449687  0.31270013  1  0.941737  0  0.242049  0.250159  0  3.975157  0
C  C124  1  0.87498143  0.24195822  0.00672506  1  0.979453  0  0.240981  0.273226  0  4.018995  0
C  C125  1  0.87494488  0.18640183  0.06245481  1  0.955889  0  0.241524  0.250067  0  3.977208  0
C  C126  1  0.37490059  0.75756451  0.49266437  1  1.006255  0  0.240285  0.272663  0  4.019326  0
C  C127  1  0.37529771  0.81335591  0.43715834  1  0.949269  0  0.241444  0.250298  0  3.977374  0
C  C128  1  0.62487826  0.74290082  0.99232818  1  0.982619  0  0.240159  0.272551  0  4.019817  0
C  C129  1  0.62509448  0.68726986  0.93663328  1  0.948938  0  0.241428  0.250323  0  3.977216  0
C  C130  1  0.12463313  0.25751547  0.50775175  1  0.91705  0  0.240447  0.273169  0  4.018437  0
C  C131  1  0.12473759  0.31299650  0.56356158  1  0.976713  0  0.241466  0.250751  0  3.976636  0
N  N132  1  0.31261094  0.57815280  0.60520302  1  -0.765386  0  -0.33256  -0.137204  0  3.741564  0
N  N133  1  0.32711417  0.56400998  0.64228790  1  -0.789253  0  -0.332238  -0.135523  0  3.743128  0
N  N134  1  0.42191257  0.60731234  0.68644253  1  -0.776622  0  -0.332745  -0.137169  0  3.74194  0
N  N135  1  0.43716531  0.64361813  0.67120572  1  -0.786008  0  -0.332003  -0.136597  0  3.73811  0
N  N136  1  0.39320230  0.68680751  0.57663342  1  -0.791658  0  -0.332512  -0.137563  0  3.739781  0
N  N137  1  0.35576973  0.67286548  0.56221296  1  -0.783803  0  -0.332439  -0.136919  0  3.742327  0
N  N138  1  0.68746379  0.92119268  0.10649680  1  -0.781202  0  -0.331975  -0.136396  0  3.739028  0
N  N139  1  0.67144436  0.93712730  0.14216994  1  -0.781522  0  -0.331651  -0.135566  0  3.738069  0
N  N140  1  0.57651534  0.89324942  0.18527126  1  -0.772775  0  -0.332034  -0.136251  0  3.739748  0
N  N141  1  0.56275622  0.85570664  0.17162212  1  -0.775066  0  -0.332459  -0.137293  0  3.740781  0
N  N142  1  0.60605168  0.81268409  0.07696998  1  -0.778209  0  -0.333076  -0.136738  0  3.741633  0
N  N143  1  0.64355986  0.82679078  0.06306549  1  -0.784683  0  -0.331785  -0.136653  0  3.738514  0
N  N144  1  0.81328642  0.42164084  0.89415495  1  -0.780518  0  -0.332678  -0.136372  0  3.742425  0
N  N145  1  0.82768329  0.43605594  0.85721928  1  -0.781696  0  -0.333042  -0.136337  0  3.742902  0
N  N146  1  0.92309402  0.39299271  0.81431510  1  -0.778  0  -0.332845  -0.13588  0  3.742161  0
N  N147  1  0.93704696  0.35549990  0.82802174  1  -0.77373  0  -0.331978  -0.137552  0  3.740263  0
N  N148  1  0.89368478  0.31216504  0.92250043  1  -0.784526  0  -0.332076  -0.136111  0  3.739818  0
N  N149  1  0.85628889  0.32642758  0.93666774  1  -0.776459  0  -0.333208  -0.137112  0  3.742523  0
N  N150  1  0.18751703  0.07897531  0.39391671  1  -0.784014  0  -0.332381  -0.137597  0  3.738548  0
N  N151  1  0.17175203  0.06345031  0.35791582  1  -0.774251  0  -0.331852  -0.135242  0  3.739586  0
N  N152  1  0.07652026  0.10718102  0.31474445  1  -0.780111  0  -0.332653  -0.136395  0  3.740586  0
N  N153  1  0.06231696  0.14448867  0.32864660  1  -0.785325  0  -0.332459  -0.136724  0  3.741743  0
N  N154  1  0.10589815  0.18770518  0.42311302  1  -0.787851  0  -0.33288  -0.137607  0  3.744027  0
N  N155  1  0.14340996  0.17349157  0.43719109  1  -0.773029  0  -0.331233  -0.135904  0  3.737937  0
N  N156  1  0.76687788  0.02407282  0.16076177  1  -0.519982  0  -0.163731  -0.159794  0  3.181644  0
N  N157  1  0.77503580  0.01609145  0.08830153  1  -0.49984  0  -0.163117  -0.158984  0  3.181175  0
N  N158  1  0.80341216  0.04482478  0.08844064  1  -0.586222  0  -0.159456  -0.150287  0  3.200898  0
N  N159  1  0.79550733  0.05255691  0.16078071  1  -0.594864  0  -0.159313  -0.149756  0  3.202941  0
N  N160  1  0.23169607  0.47758153  0.66066874  1  -0.53317  0  -0.16255  -0.158388  0  3.184465  0
N  N161  1  0.22690242  0.48111207  0.58751684  1  -0.580222  0  -0.163855  -0.16016  0  3.18227  0
N  N162  1  0.19848653  0.45243800  0.58803404  1  -0.528283  0  -0.158686  -0.148511  0  3.205743  0
N  N163  1  0.20318386  0.44902812  0.66101829  1  -0.578008  0  -0.158431  -0.148731  0  3.205938  0
N  N164  1  0.27507849  0.98350884  0.41185458  1  -0.583289  0  -0.16278  -0.158235  0  3.18107  0
N  N165  1  0.26748128  0.97671723  0.33917846  1  -0.53089  0  -0.163457  -0.159582  0  3.183728  0
N  N166  1  0.29613704  0.94816598  0.33901692  1  -0.587577  0  -0.158936  -0.149358  0  3.20243  0
N  N167  1  0.30350633  0.95472873  0.41156170  1  -0.499189  0  -0.159608  -0.150775  0  3.202304  0
N  N168  1  0.72730954  0.51842910  0.91240277  1  -0.506093  0  -0.163352  -0.158741  0  3.180318  0
N  N169  1  0.73108188  0.52190731  0.83921224  1  -0.525975  0  -0.162931  -0.158588  0  3.185319  0
N  N170  1  0.70251730  0.55051142  0.83914539  1  -0.582568  0  -0.158672  -0.149301  0  3.208065  0
N  N171  1  0.69882835  0.54715330  0.91216276  1  -0.616746  0  -0.159451  -0.149969  0  3.201899  0
N  N172  1  0.98058225  0.08918023  0.22835222  1  -0.491599  0  -0.163181  -0.159087  0  3.186692  0
N  N173  1  0.97695055  0.16249761  0.23125033  1  -0.585752  0  -0.163416  -0.159196  0  3.180679  0
N  N174  1  0.94863124  0.16219976  0.20239949  1  -0.520355  0  -0.158744  -0.148939  0  3.202766  0
N  N175  1  0.95218417  0.08905712  0.19960657  1  -0.590887  0  -0.158698  -0.149208  0  3.207871  0
N  N176  1  0.52409582  0.66199819  0.76712110  1  -0.498486  0  -0.163282  -0.160026  0  3.18219  0
N  N177  1  0.51779694  0.58908480  0.77309004  1  -0.524416  0  -0.163083  -0.159913  0  3.184938  0
N  N178  1  0.54643378  0.58902009  0.80162610  1  -0.592856  0  -0.159026  -0.149062  0  3.203618  0
N  N179  1  0.55254964  0.66178985  0.79585760  1  -0.614666  0  -0.158982  -0.148986  0  3.201773  0
N  N180  1  0.01975883  0.41121196  0.72897218  1  -0.504206  0  -0.163201  -0.159482  0  3.184189  0
N  N181  1  0.02304406  0.33786671  0.73159357  1  -0.504593  0  -0.163477  -0.159499  0  3.182777  0
N  N182  1  0.05146941  0.33814529  0.70297778  1  -0.616858  0  -0.158541  -0.148721  0  3.205543  0
N  N183  1  0.04824642  0.41131305  0.70042205  1  -0.58377  0  -0.158625  -0.148699  0  3.20658  0
N  N184  1  0.47793123  0.83758560  0.26916146  1  -0.508491  0  -0.163983  -0.160488  0  3.181943  0
N  N185  1  0.48060688  0.91093756  0.27153449  1  -0.499627  0  -0.163478  -0.159879  0  3.186772  0
N  N186  1  0.45227256  0.91100819  0.30022650  1  -0.584513  0  -0.158733  -0.148395  0  3.206723  0
N  N187  1  0.44963566  0.83783404  0.29792956  1  -0.587377  0  -0.158522  -0.148614  0  3.20306  0
N  N188  1  0.83805067  0.23004605  0.02191237  1  -0.578899  0  -0.163171  -0.158176  0  3.181214  0
N  N189  1  0.91188581  0.22653502  0.01874269  1  -0.595911  0  -0.16296  -0.158729  0  3.184112  0
N  N190  1  0.91178389  0.19819117  0.04730027  1  -0.540139  0  -0.158951  -0.149861  0  3.205732  0
N  N191  1  0.83812156  0.20158279  0.05035242  1  -0.497413  0  -0.159524  -0.150813  0  3.20338  0
N  N192  1  0.33808612  0.76973417  0.47714970  1  -0.569763  0  -0.163254  -0.159144  0  3.183826  0
N  N193  1  0.41188569  0.77295785  0.48117456  1  -0.616388  0  -0.162777  -0.158675  0  3.181022  0
N  N194  1  0.41201298  0.80141657  0.45272966  1  -0.510251  0  -0.158717  -0.148895  0  3.201612  0
N  N195  1  0.33838153  0.79831482  0.44883327  1  -0.535249  0  -0.159192  -0.150041  0  3.206195  0
N  N196  1  0.58800398  0.72769445  0.98008706  1  -0.562694  0  -0.163109  -0.158952  0  3.182692  0
N  N197  1  0.66182468  0.73110754  0.97698076  1  -0.609581  0  -0.162353  -0.157919  0  3.183125  0
N  N198  1  0.66185947  0.70259535  0.94857276  1  -0.518912  0  -0.159092  -0.150089  0  3.205315  0
N  N199  1  0.58820587  0.69930388  0.95156403  1  -0.513883  0  -0.159111  -0.150008  0  3.204463  0
N  N200  1  0.16154949  0.26905098  0.52341726  1  -0.530249  0  -0.162618  -0.158005  0  3.184024  0
N  N201  1  0.08775215  0.27305112  0.51955658  1  -0.536833  0  -0.163127  -0.15923  0  3.181854  0
N  N202  1  0.08789263  0.30136080  0.54817079  1  -0.546441  0  -0.159164  -0.150051  0  3.204538  0
N  N203  1  0.16152256  0.29749046  0.55188567  1  -0.557351  0  -0.159232  -0.150557  0  3.206581  0
