# generated using pymatgen
data_LaH9C8NO9
_symmetry_space_group_name_H-M   'P 1'
_cell_length_a   7.87297052
_cell_length_b   7.65993661
_cell_length_c   9.75383179
_cell_angle_alpha   95.49870296
_cell_angle_beta   102.39949597
_cell_angle_gamma   99.23584916
_symmetry_Int_Tables_number   1
_chemical_formula_structural   LaH9C8NO9
_chemical_formula_sum   'La2 H18 C16 N2 O18'
_cell_volume   561.84791716
_cell_formula_units_Z   2
loop_
 _symmetry_equiv_pos_site_id
 _symmetry_equiv_pos_as_xyz
  1  'x, y, z'
loop_
 _atom_site_type_symbol
 _atom_site_label
 _atom_site_symmetry_multiplicity
 _atom_site_fract_x
 _atom_site_fract_y
 _atom_site_fract_z
 _atom_site_occupancy
 _atom_site_hle17_bader_spin_density
 _atom_site_hle17_ddec_charge
 _atom_site_hle17_ddec_spin_density
 _atom_site_hle17_ddec_sum_bond_order
 _atom_site_hle17_magmom
 _atom_site_hse06_10hf_bader_spin_density
 _atom_site_hse06_10hf_ddec_charge
 _atom_site_hse06_10hf_ddec_spin_density
 _atom_site_hse06_10hf_ddec_sum_bond_order
 _atom_site_hse06_10hf_magmom
 _atom_site_hse06_bader_spin_density
 _atom_site_hse06_ddec_charge
 _atom_site_hse06_ddec_spin_density
 _atom_site_hse06_ddec_sum_bond_order
 _atom_site_hse06_magmom
 _atom_site_pbe_bader_spin_density
 _atom_site_pbe_cm5_charge
 _atom_site_pbe_ddec_charge
 _atom_site_pbe_ddec_spin_density
 _atom_site_pbe_ddec_sum_bond_order
 _atom_site_pbe_magmom
La  La0  1  0.28113984  0.28506109  0.36105015  1  0  2.095561  0  1.694199  0  0  1.963949  0  2.189918  0  0  2.061018  0  2.098112  0  0  1.361908  1.891595  0  2.253504  0
La  La1  1  0.71886064  0.71493495  0.63894919  1  0  2.095619  0  1.694084  0  0  1.963985  0  2.189832  0  0  2.061065  0  2.098012  0  0  1.361911  1.89164  0  2.253416  0
H  H2  1  0.66828884  0.23967425  0.50361912  1  0  0.436202  0  0.864471  0  0  0.405939  0  0.927621  0  0  0.417164  0  0.911265  0  0  0.306773  0.397806  0  0.939498  0
H  H3  1  0.33171225  0.76032437  0.49638264  1  0  0.436159  0  0.864533  0  0  0.405889  0  0.92769  0  0  0.417115  0  0.911333  0  0  0.306761  0.397746  0  0.939579  0
H  H4  1  0.59389741  0.05053828  0.40722372  1  0  0.440018  0  0.857729  0  0  0.410964  0  0.91889  0  0  0.421705  0  0.90313  0  0  0.308983  0.403285  0  0.930146  0
H  H5  1  0.40610165  0.94946327  0.59277389  1  0  0.440042  0  0.857703  0  0  0.410988  0  0.918861  0  0  0.421729  0  0.9031  0  0  0.308994  0.403307  0  0.930119  0
H  H6  1  0.24977939  0.98212581  0.11193996  1  0  0.426734  0  0.880095  0  0  0.393921  0  0.946864  0  0  0.406611  0  0.928607  0  0  0.294261  0.384867  0  0.959864  0
H  H7  1  0.75021817  0.01787415  0.88806546  1  0  0.42671  0  0.8801  0  0  0.393912  0  0.946852  0  0  0.406599  0  0.9286  0  0  0.294279  0.384863  0  0.959847  0
H  H8  1  0.44979730  0.01231805  0.19544960  1  0  0.416107  0  0.857901  0  0  0.391288  0  0.928645  0  0  0.40107  0  0.917612  0  0  0.306015  0.384212  0  0.93655  0
H  H9  1  0.55020180  0.98768334  0.80455210  1  0  0.416089  0  0.857926  0  0  0.39128  0  0.928654  0  0  0.401061  0  0.917621  0  0  0.306019  0.384205  0  0.93656  0
H  H10  1  0.09593336  0.89922368  0.26244677  1  0  0.437339  0  0.861271  0  0  0.404754  0  0.928281  0  0  0.416618  0  0.91081  0  0  0.302645  0.396316  0  0.940668  0
H  H11  1  0.90406355  0.10077380  0.73755316  1  0  0.437341  0  0.861259  0  0  0.404775  0  0.928239  0  0  0.416636  0  0.910772  0  0  0.302649  0.396336  0  0.940627  0
H  H12  1  0.07180024  0.89905245  0.41961949  1  0  0.43999  0  0.851699  0  0  0.412811  0  0.907681  0  0  0.424946  0  0.889917  0  0  0.306259  0.40406  0  0.920475  0
H  H13  1  0.92820074  0.10095156  0.58038278  1  0  0.439985  0  0.851708  0  0  0.412819  0  0.907672  0  0  0.424955  0  0.889908  0  0  0.306259  0.404066  0  0.920468  0
H  H14  1  0.08995273  0.41164564  0.79650773  1  0  0.116216  0  0.956512  0  0  0.122704  0  1.021973  0  0  0.126326  0  1.020268  0  0  0.114393  0.120249  0  1.023063  0
H  H15  1  0.91005130  0.58834898  0.20349000  1  0  0.116248  0  0.956511  0  0  0.122731  0  1.021976  0  0  0.126354  0  1.020269  0  0  0.114398  0.120258  0  1.023089  0
H  H16  1  0.32438391  0.68283782  0.80308560  1  0  0.108693  0  0.923719  0  0  0.119464  0  0.98054  0  0  0.122693  0  0.978045  0  0  0.120382  0.117076  0  0.982455  0
H  H17  1  0.67561387  0.31716374  0.19691283  1  0  0.108691  0  0.923737  0  0  0.119472  0  0.98055  0  0  0.122702  0  0.978055  0  0  0.120381  0.117086  0  0.982463  0
H  H18  1  0.52986957  0.81416082  0.03592506  1  0  0.119196  0  0.949547  0  0  0.127715  0  1.010171  0  0  0.132086  0  1.006721  0  0  0.11364  0.124393  0  1.013073  0
H  H19  1  0.47012684  0.18584610  0.96407573  1  0  0.119067  0  0.949575  0  0  0.127645  0  1.01018  0  0  0.132017  0  1.006727  0  0  0.11357  0.12432  0  1.013088  0
C  C20  1  0.03251995  0.24901532  0.02683438  1  0  0.646467  0  3.899273  0  0  0.593458  0  4.199481  0  0  0.627787  0  4.191743  0  0  0.224319  0.570125  0  4.204135  0
C  C21  1  0.96747766  0.75097945  0.97316540  1  0  0.646539  0  3.899173  0  0  0.59343  0  4.199471  0  0  0.627765  0  4.191731  0  0  0.224242  0.570096  0  4.204121  0
C  C22  1  0.17661266  0.40090946  0.01866183  1  0  0.094546  0  3.755885  0  0  0.101241  0  4.001601  0  0  0.102044  0  4.02165  0  0  0.117971  0.100379  0  3.988482  0
C  C23  1  0.82338811  0.59908791  0.98133770  1  0  0.094343  0  3.756099  0  0  0.101094  0  4.001796  0  0  0.101897  0  4.02184  0  0  0.11798  0.100238  0  3.988664  0
C  C24  1  0.18581215  0.47238279  0.89367352  1  0  -0.088356  0  3.656185  0  0  -0.116949  0  3.913236  0  0  -0.119977  0  3.931175  0  0  -0.0665  -0.115125  0  3.901514  0
C  C25  1  0.81419117  0.52761455  0.10632437  1  0  -0.088308  0  3.656285  0  0  -0.116914  0  3.913329  0  0  -0.11994  0  3.931264  0  0  -0.066491  -0.115079  0  3.901619  0
C  C26  1  0.31400656  0.62284706  0.89855559  1  0  0.020889  0  3.655455  0  0  0.001383  0  3.914576  0  0  0.004282  0  3.929713  0  0  -0.053219  -0.000465  0  3.904491  0
C  C27  1  0.68599211  0.37715850  0.10144339  1  0  0.020843  0  3.655408  0  0  0.001331  0  3.914594  0  0  0.004234  0  3.929719  0  0  -0.053206  -0.000516  0  3.904502  0
C  C28  1  0.42762547  0.69734959  0.02821429  1  0  -0.097297  0  3.674595  0  0  -0.124319  0  3.926356  0  0  -0.127252  0  3.944194  0  0  -0.068595  -0.12241  0  3.914822  0
C  C29  1  0.57237321  0.30265593  0.97178570  1  0  -0.097056  0  3.674321  0  0  -0.124184  0  3.926146  0  0  -0.127113  0  3.943986  0  0  -0.068543  -0.122275  0  3.914613  0
C  C30  1  0.41253339  0.61478710  0.14780412  1  0  0.102858  0  3.765815  0  0  0.111032  0  4.007147  0  0  0.112092  0  4.026452  0  0  0.120636  0.110085  0  3.994153  0
C  C31  1  0.58746467  0.38521583  0.85219347  1  0  0.102739  0  3.765734  0  0  0.110956  0  4.007093  0  0  0.112009  0  4.026404  0  0  0.120623  0.110007  0  3.994102  0
C  C32  1  0.53072277  0.68593320  0.29164560  1  0  0.637353  0  3.911915  0  0  0.585714  0  4.213716  0  0  0.620021  0  4.206992  0  0  0.224844  0.562291  0  4.217354  0
C  C33  1  0.46927303  0.31407113  0.70835278  1  0  0.637553  0  3.911797  0  0  0.585852  0  4.213677  0  0  0.620161  0  4.206951  0  0  0.224932  0.562429  0  4.217313  0
C  C34  1  0.96086567  0.41304235  0.52488054  1  0  0.552673  0  3.910815  0  0  0.508012  0  4.207909  0  0  0.538311  0  4.201572  0  0  0.229574  0.487416  0  4.21128  0
C  C35  1  0.03913680  0.58695088  0.47511988  1  0  0.552691  0  3.910699  0  0  0.507997  0  4.207845  0  0  0.538293  0  4.20151  0  0  0.229613  0.487402  0  4.211212  0
N  N36  1  0.29104935  0.46848873  0.14260435  1  0  -0.388736  0  3.259635  0  0  -0.349558  0  3.51466  0  0  -0.367803  0  3.538468  0  0  -0.367379  -0.336413  0  3.497854  0
N  N37  1  0.70895231  0.53151264  0.85739572  1  0  -0.388643  0  3.259644  0  0  -0.349484  0  3.514648  0  0  -0.367732  0  3.53846  0  0  -0.367372  -0.336342  0  3.497845  0
O  O38  1  0.02904915  0.20857818  0.14984240  1  0  -0.661537  0  1.996587  0  0  -0.621945  0  2.249287  0  0  -0.654324  0  2.242206  0  0  -0.381368  -0.598608  0  2.252906  0
O  O39  1  0.97095743  0.79142146  0.85016343  1  0  -0.661557  0  1.996663  0  0  -0.621922  0  2.24941  0  0  -0.654296  0  2.242326  0  0  -0.381337  -0.598587  0  2.25303  0
O  O40  1  0.92228577  0.17831856  0.91309859  1  0  -0.614723  0  2.060681  0  0  -0.552022  0  2.281189  0  0  -0.578324  0  2.271734  0  0  -0.290985  -0.533789  0  2.287412  0
O  O41  1  0.07771574  0.82167593  0.08690487  1  0  -0.614778  0  2.06051  0  0  -0.551991  0  2.281014  0  0  -0.578319  0  2.271572  0  0  -0.290978  -0.533756  0  2.287235  0
O  O42  1  0.54089248  0.57471809  0.38318780  1  0  -0.728192  0  2.03275  0  0  -0.678513  0  2.296061  0  0  -0.716243  0  2.292065  0  0  -0.383218  -0.651037  0  2.297397  0
O  O43  1  0.45910548  0.42529022  0.61681031  1  0  -0.728274  0  2.032649  0  0  -0.678546  0  2.295947  0  0  -0.716278  0  2.291956  0  0  -0.383241  -0.651069  0  2.297281  0
O  O44  1  0.60937934  0.84612343  0.31495129  1  0  -0.61401  0  1.941463  0  0  -0.561131  0  2.158076  0  0  -0.585322  0  2.147588  0  0  -0.294894  -0.544189  0  2.164906  0
O  O45  1  0.39062318  0.15388205  0.68504624  1  0  -0.614087  0  1.94142  0  0  -0.561197  0  2.15807  0  0  -0.585384  0  2.147575  0  0  -0.294939  -0.54425  0  2.16489  0
O  O46  1  0.02609005  0.27630383  0.49842064  1  0  -0.612177  0  2.029903  0  0  -0.559334  0  2.259157  0  0  -0.588935  0  2.25092  0  0  -0.318654  -0.538335  0  2.263915  0
O  O47  1  0.97392008  0.72369440  0.50158357  1  0  -0.612293  0  2.029756  0  0  -0.559435  0  2.259018  0  0  -0.589035  0  2.250781  0  0  -0.318729  -0.538437  0  2.263779  0
O  O48  1  0.83704112  0.42107468  0.58855742  1  0  -0.637487  0  2.080377  0  0  -0.588978  0  2.326009  0  0  -0.618489  0  2.318983  0  0  -0.333658  -0.56797  0  2.329772  0
O  O49  1  0.16295848  0.57891728  0.41144343  1  0  -0.637473  0  2.08044  0  0  -0.58893  0  2.326046  0  0  -0.61845  0  2.319055  0  0  -0.333668  -0.567917  0  2.3298  0
O  O50  1  0.56931366  0.17175040  0.42734089  1  0  -0.901202  0  1.87849  0  0  -0.851735  0  2.074611  0  0  -0.877301  0  2.041853  0  0  -0.635777  -0.833153  0  2.097609  0
O  O51  1  0.43068982  0.82825377  0.57265463  1  0  -0.901175  0  1.878518  0  0  -0.851709  0  2.074664  0  0  -0.877276  0  2.041906  0  0  -0.635773  -0.833117  0  2.097681  0
O  O52  1  0.35608912  0.07753025  0.15887165  1  0  -0.857076  0  1.853706  0  0  -0.808197  0  2.05019  0  0  -0.834318  0  2.023308  0  0  -0.614173  -0.789145  0  2.068782  0
O  O53  1  0.64390682  0.92246854  0.84113031  1  0  -0.857062  0  1.85375  0  0  -0.808169  0  2.050167  0  0  -0.834288  0  2.023289  0  0  -0.614182  -0.789118  0  2.068755  0
O  O54  1  0.13605112  0.96759375  0.35907564  1  0  -0.89  0  1.846412  0  0  -0.841663  0  2.039329  0  0  -0.866474  0  2.002304  0  0  -0.644171  -0.823522  0  2.065114  0
O  O55  1  0.86394308  0.03240930  0.64092236  1  0  -0.890001  0  1.846401  0  0  -0.841676  0  2.039274  0  0  -0.866496  0  2.00226  0  0  -0.644163  -0.823532  0  2.065071  0
