# generated using pymatgen
data_Ag3H13(C6O7)2
_symmetry_space_group_name_H-M   'P 1'
_cell_length_a   6.37776446
_cell_length_b   9.48552002
_cell_length_c   15.25931820
_cell_angle_alpha   96.28000890
_cell_angle_beta   93.49377346
_cell_angle_gamma   100.40053980
_symmetry_Int_Tables_number   1
_chemical_formula_structural   Ag3H13(C6O7)2
_chemical_formula_sum   'Ag6 H26 C24 O28'
_cell_volume   899.43923837
_cell_formula_units_Z   2
loop_
 _symmetry_equiv_pos_site_id
 _symmetry_equiv_pos_as_xyz
  1  'x, y, z'
loop_
 _atom_site_type_symbol
 _atom_site_label
 _atom_site_symmetry_multiplicity
 _atom_site_fract_x
 _atom_site_fract_y
 _atom_site_fract_z
 _atom_site_occupancy
 _atom_site_hle17_bader_spin_density
 _atom_site_hle17_ddec_charge
 _atom_site_hle17_ddec_spin_density
 _atom_site_hle17_ddec_sum_bond_order
 _atom_site_hle17_magmom
 _atom_site_hse06_10hf_bader_spin_density
 _atom_site_hse06_10hf_ddec_charge
 _atom_site_hse06_10hf_ddec_spin_density
 _atom_site_hse06_10hf_ddec_sum_bond_order
 _atom_site_hse06_10hf_magmom
 _atom_site_hse06_bader_spin_density
 _atom_site_hse06_ddec_charge
 _atom_site_hse06_ddec_spin_density
 _atom_site_hse06_ddec_sum_bond_order
 _atom_site_hse06_magmom
 _atom_site_pbe_bader_spin_density
 _atom_site_pbe_cm5_charge
 _atom_site_pbe_ddec_charge
 _atom_site_pbe_ddec_spin_density
 _atom_site_pbe_ddec_sum_bond_order
 _atom_site_pbe_magmom
Ag  Ag0  1  0.38123820  0.86000405  0.00962880  1  0  0.64065  0  1.276186  0  0  0.510887  0  1.723197  0  0  0.549145  0  1.657225  0  0  0.410608  0.483403  0  1.769481  0
Ag  Ag1  1  0.61877576  0.14000135  0.99037299  1  0  0.640645  0  1.276226  0  0  0.51088  0  1.723215  0  0  0.54914  0  1.65724  0  0  0.41062  0.483395  0  1.769503  0
Ag  Ag2  1  0.86771762  0.41393903  0.43076279  1  0  0.551208  0  1.479502  0  0  0.435884  0  1.94113  0  0  0.472983  0  1.873785  0  0  0.412657  0.40972  0  1.988383  0
Ag  Ag3  1  0.13227943  0.58606203  0.56923763  1  0  0.551222  0  1.479466  0  0  0.435816  0  1.941082  0  0  0.472916  0  1.873734  0  0  0.412642  0.409649  0  1.98834  0
Ag  Ag4  1  0.56001550  0.41763791  0.56844383  1  0  0.596996  0  1.39997  0  0  0.48534  0  1.845056  0  0  0.519751  0  1.78038  0  0  0.42093  0.46073  0  1.890481  0
Ag  Ag5  1  0.43998381  0.58235992  0.43155708  1  0  0.597033  0  1.399969  0  0  0.485389  0  1.845057  0  0  0.519799  0  1.78038  0  0  0.420922  0.460782  0  1.890484  0
H  H6  1  0.88572431  0.41761313  0.83769807  1  0  0.411212  0  0.783641  0  0  0.395055  0  0.834744  0  0  0.405  0  0.82423  0  0  0.348001  0.387522  0  0.843138  0
H  H7  1  0.11428324  0.58238038  0.16230535  1  0  0.411222  0  0.783535  0  0  0.395069  0  0.834642  0  0  0.405016  0  0.824127  0  0  0.348009  0.387532  0  0.843041  0
H  H8  1  0.47677624  0.89482919  0.56963389  1  0  0.399275  0  0.892823  0  0  0.367838  0  0.971528  0  0  0.379523  0  0.959635  0  0  0.305766  0.359672  0  0.979712  0
H  H9  1  0.52321140  0.10517186  0.43036761  1  0  0.39919  0  0.893032  0  0  0.367762  0  0.971723  0  0  0.379447  0  0.95983  0  0  0.305724  0.359593  0  0.97992  0
H  H10  1  0.92245203  0.87653781  0.89819946  1  0  0.40849  0  0.880528  0  0  0.378972  0  0.95187  0  0  0.391239  0  0.940087  0  0  0.306839  0.370387  0  0.959984  0
H  H11  1  0.07755319  0.12346434  0.10180255  1  0  0.408541  0  0.880423  0  0  0.378991  0  0.951818  0  0  0.391257  0  0.940033  0  0  0.306835  0.37041  0  0.959924  0
H  H12  1  0.25077520  0.98535411  0.73252681  1  0  0.11342  0  0.912962  0  0  0.123942  0  0.973877  0  0  0.126187  0  0.973303  0  0  0.118127  0.122477  0  0.974358  0
H  H13  1  0.74922411  0.01464372  0.26747475  1  0  0.113438  0  0.912941  0  0  0.123971  0  0.973824  0  0  0.12622  0  0.973247  0  0  0.118146  0.122477  0  0.974342  0
H  H14  1  0.25143409  0.23386297  0.74915502  1  0  0.120327  0  0.903262  0  0  0.126525  0  0.964477  0  0  0.130391  0  0.961465  0  0  0.116934  0.123691  0  0.966929  0
H  H15  1  0.74856960  0.76613380  0.25084133  1  0  0.120287  0  0.903287  0  0  0.126492  0  0.964521  0  0  0.130363  0  0.961511  0  0  0.116926  0.12366  0  0.96697  0
H  H16  1  0.16354297  0.09413029  0.61124319  1  0  0.11241  0  0.930716  0  0  0.121367  0  0.996229  0  0  0.124538  0  0.994194  0  0  0.117231  0.11881  0  0.99812  0
H  H17  1  0.83645846  0.90586972  0.38875202  1  0  0.112337  0  0.930829  0  0  0.121433  0  0.996222  0  0  0.124605  0  0.994176  0  0  0.117243  0.118868  0  0.998123  0
H  H18  1  0.81832116  0.00335978  0.53742026  1  0  0.10868  0  0.924958  0  0  0.116552  0  0.990261  0  0  0.119063  0  0.98909  0  0  0.114344  0.114569  0  0.991275  0
H  H19  1  0.18167431  0.99664129  0.46257881  1  0  0.108627  0  0.925024  0  0  0.116541  0  0.990259  0  0  0.119054  0  0.989086  0  0  0.114351  0.114553  0  0.991279  0
H  H20  1  0.01186787  0.86239306  0.61153689  1  0  0.105487  0  0.92345  0  0  0.116917  0  0.987266  0  0  0.119647  0  0.985386  0  0  0.113034  0.114743  0  0.988929  0
H  H21  1  0.98812791  0.13760908  0.38846292  1  0  0.10548  0  0.92351  0  0  0.116959  0  0.98726  0  0  0.119693  0  0.985376  0  0  0.113034  0.114785  0  0.988921  0
H  H22  1  0.99393271  0.79213299  0.75188801  1  0  0.124659  0  0.931833  0  0  0.134028  0  0.99172  0  0  0.136852  0  0.990576  0  0  0.116423  0.131905  0  0.992986  0
H  H23  1  0.00606843  0.20786594  0.24810843  1  0  0.124636  0  0.931794  0  0  0.13401  0  0.991687  0  0  0.136833  0  0.990546  0  0  0.116426  0.131888  0  0.992953  0
H  H24  1  0.17651429  0.63170857  0.87366525  1  0  0.412877  0  0.892776  0  0  0.383216  0  0.95546  0  0  0.393782  0  0.939967  0  0  0.279699  0.375711  0  0.966498  0
H  H25  1  0.82348336  0.36829466  0.12633533  1  0  0.41291  0  0.892729  0  0  0.383243  0  0.955423  0  0  0.393809  0  0.939929  0  0  0.279718  0.375738  0  0.96646  0
H  H26  1  0.20489854  0.53537525  0.94880737  1  0  0.406269  0  0.844605  0  0  0.392986  0  0.896867  0  0  0.400628  0  0.888317  0  0  0.310132  0.387732  0  0.902671  0
H  H27  1  0.79510254  0.46462907  0.05119141  1  0  0.406367  0  0.844566  0  0  0.393081  0  0.896816  0  0  0.400721  0  0.88827  0  0  0.310127  0.387826  0  0.902622  0
H  H28  1  0.64088599  0.28382870  0.23789412  1  0  0.418235  0  0.887889  0  0  0.385443  0  0.954899  0  0  0.395876  0  0.939766  0  0  0.287601  0.37806  0  0.965579  0
H  H29  1  0.35911197  0.71617561  0.76210720  1  0  0.418218  0  0.887901  0  0  0.385418  0  0.954923  0  0  0.395853  0  0.939784  0  0  0.287598  0.378036  0  0.965601  0
H  H30  1  0.75523854  0.45198623  0.25965848  1  0  0.421406  0  0.848312  0  0  0.395561  0  0.918147  0  0  0.40447  0  0.905844  0  0  0.299735  0.388873  0  0.926187  0
H  H31  1  0.24476323  0.54801484  0.74034271  1  0  0.421499  0  0.848323  0  0  0.395653  0  0.91815  0  0  0.404561  0  0.905754  0  0  0.299759  0.388964  0  0.92619  0
C  C32  1  0.11975523  0.01732935  0.76955024  1  0  -0.132011  0  3.596338  0  0  -0.140542  0  3.833277  0  0  -0.145995  0  3.847387  0  0  -0.079741  -0.136864  0  3.82387  0
C  C33  1  0.88024062  0.98266740  0.23044854  1  0  -0.132085  0  3.596561  0  0  -0.140598  0  3.833475  0  0  -0.146058  0  3.847595  0  0  -0.079727  -0.136904  0  3.824065  0
C  C34  1  0.09338591  0.16280991  0.73914956  1  0  -0.137504  0  3.606604  0  0  -0.149345  0  3.83921  0  0  -0.154527  0  3.852519  0  0  -0.083007  -0.145677  0  3.829984  0
C  C35  1  0.90661271  0.83719116  0.26085024  1  0  -0.137342  0  3.606655  0  0  -0.14923  0  3.839241  0  0  -0.154417  0  3.852557  0  0  -0.082998  -0.145557  0  3.830005  0
C  C36  1  0.02987030  0.13922176  0.63872180  1  0  -0.130206  0  3.609943  0  0  -0.140534  0  3.847531  0  0  -0.146575  0  3.861296  0  0  -0.081104  -0.135905  0  3.837822  0
C  C37  1  0.97013490  0.86078041  0.36127627  1  0  -0.12993  0  3.609743  0  0  -0.140502  0  3.847591  0  0  -0.146542  0  3.861358  0  0  -0.08109  -0.135868  0  3.83788  0
C  C38  1  0.82922508  0.02396101  0.61013999  1  0  -0.157805  0  3.617216  0  0  -0.169301  0  3.85262  0  0  -0.173988  0  3.866093  0  0  -0.089556  -0.166159  0  3.843657  0
C  C39  1  0.17077855  0.97604115  0.38985935  1  0  -0.157809  0  3.61731  0  0  -0.169289  0  3.852729  0  0  -0.173975  0  3.866202  0  0  -0.089555  -0.166142  0  3.843762  0
C  C40  1  0.86711928  0.88184530  0.64356230  1  0  -0.128043  0  3.611077  0  0  -0.138577  0  3.850187  0  0  -0.144161  0  3.864143  0  0  -0.083372  -0.134151  0  3.840295  0
C  C41  1  0.13287147  0.11815577  0.35643535  1  0  -0.128165  0  3.611235  0  0  -0.138718  0  3.850386  0  0  -0.144305  0  3.864343  0  0  -0.083413  -0.13429  0  3.840489  0
C  C42  1  0.92971269  0.89053690  0.74283678  1  0  -0.169243  0  3.62913  0  0  -0.18159  0  3.864701  0  0  -0.187341  0  3.879026  0  0  -0.091285  -0.177652  0  3.855216  0
C  C43  1  0.07028001  0.10945985  0.25716127  1  0  -0.169154  0  3.628908  0  0  -0.181508  0  3.86448  0  0  -0.187253  0  3.8788  0  0  -0.091257  -0.177567  0  3.854986  0
C  C44  1  0.21899965  0.03347507  0.86445154  1  0  0.676743  0  3.83001  0  0  0.616597  0  4.132815  0  0  0.651273  0  4.129832  0  0  0.214924  0.592775  0  4.134239  0
C  C45  1  0.78100054  0.96652600  0.13554765  1  0  0.676721  0  3.829958  0  0  0.616556  0  4.132757  0  0  0.651235  0  4.129774  0  0  0.214941  0.592736  0  4.134175  0
C  C46  1  0.94839274  0.23384639  0.79739190  1  0  0.686031  0  3.731181  0  0  0.633295  0  4.042199  0  0  0.665445  0  4.034739  0  0  0.23699  0.611343  0  4.046389  0
C  C47  1  0.05159446  0.76614170  0.20260999  1  0  0.685781  0  3.731036  0  0  0.633251  0  4.041771  0  0  0.665403  0  4.034312  0  0  0.236996  0.611296  0  4.04596  0
C  C48  1  0.03449167  0.27371760  0.59278584  1  0  0.683708  0  3.803239  0  0  0.623296  0  4.10401  0  0  0.659583  0  4.099954  0  0  0.213231  0.598522  0  4.105847  0
C  C49  1  0.96550910  0.72628565  0.40721089  1  0  0.683842  0  3.803385  0  0  0.623396  0  4.1042  0  0  0.659685  0  4.100139  0  0  0.213254  0.598623  0  4.106037  0
C  C50  1  0.62311500  0.08030431  0.62670898  1  0  0.695603  0  3.685817  0  0  0.640078  0  3.99625  0  0  0.673109  0  3.98803  0  0  0.236886  0.6171  0  4.001836  0
C  C51  1  0.37688700  0.91970323  0.37329332  1  0  0.695507  0  3.6859  0  0  0.640007  0  3.99626  0  0  0.673035  0  3.988041  0  0  0.236821  0.617029  0  4.001841  0
C  C52  1  0.70719606  0.74544833  0.60689856  1  0  0.673558  0  3.822344  0  0  0.610637  0  4.129351  0  0  0.646463  0  4.125002  0  0  0.211387  0.586002  0  4.131302  0
C  C53  1  0.29279754  0.25455166  0.39310039  1  0  0.673726  0  3.822041  0  0  0.610705  0  4.129213  0  0  0.646528  0  4.12487  0  0  0.211449  0.58607  0  4.131162  0
C  C54  1  0.73338185  0.87406053  0.79529181  1  0  0.698203  0  3.732123  0  0  0.642974  0  4.043135  0  0  0.676644  0  4.03416  0  0  0.234763  0.619781  0  4.049139  0
C  C55  1  0.26660986  0.12593839  0.20470375  1  0  0.69816  0  3.73193  0  0  0.642935  0  4.04295  0  0  0.676608  0  4.033971  0  0  0.234691  0.619742  0  4.048955  0
O  O56  1  0.16229109  0.92825081  0.90983729  1  0  -0.630746  0  2.146674  0  0  -0.540879  0  2.401872  0  0  -0.573909  0  2.39056  0  0  -0.320893  -0.517804  0  2.409122  0
O  O57  1  0.83770444  0.07174487  0.09015944  1  0  -0.630744  0  2.146699  0  0  -0.540853  0  2.401901  0  0  -0.573881  0  2.390586  0  0  -0.320938  -0.517778  0  2.409155  0
O  O58  1  0.36091260  0.14365884  0.88848601  1  0  -0.591186  0  2.075039  0  0  -0.522329  0  2.340642  0  0  -0.552886  0  2.328154  0  0  -0.319763  -0.500979  0  2.348457  0
O  O59  1  0.63908363  0.85633359  0.11151379  1  0  -0.591216  0  2.074922  0  0  -0.522346  0  2.340524  0  0  -0.552908  0  2.328038  0  0  -0.319781  -0.500996  0  2.348337  0
O  O60  1  0.82886446  0.16990697  0.84593302  1  0  -0.5403  0  2.0201  0  0  -0.49374  0  2.266783  0  0  -0.51698  0  2.256776  0  0  -0.272807  -0.477102  0  2.273219  0
O  O61  1  0.17114687  0.83008333  0.15406371  1  0  -0.540304  0  2.019588  0  0  -0.493818  0  2.266145  0  0  -0.517066  0  2.256144  0  0  -0.272874  -0.477181  0  2.272581  0
O  O62  1  0.97597796  0.37766988  0.79535884  1  0  -0.532191  0  2.103643  0  0  -0.481668  0  2.316507  0  0  -0.502285  0  2.301187  0  0  -0.323882  -0.467143  0  2.327597  0
O  O63  1  0.02403392  0.62232795  0.20464433  1  0  -0.532058  0  2.103782  0  0  -0.481617  0  2.316612  0  0  -0.502235  0  2.301294  0  0  -0.323848  -0.467092  0  2.327707  0
O  O64  1  0.91869649  0.25690699  0.52006834  1  0  -0.613105  0  2.151428  0  0  -0.533616  0  2.424425  0  0  -0.567348  0  2.415612  0  0  -0.323985  -0.510599  0  2.430277  0
O  O65  1  0.08130174  0.74309840  0.47993045  1  0  -0.613358  0  2.151585  0  0  -0.533681  0  2.424448  0  0  -0.567415  0  2.415636  0  0  -0.323992  -0.510665  0  2.430301  0
O  O66  1  0.16370638  0.38870756  0.62635094  1  0  -0.623792  0  2.160226  0  0  -0.54125  0  2.441953  0  0  -0.574323  0  2.428367  0  0  -0.324216  -0.517866  0  2.450415  0
O  O67  1  0.83629666  0.61129243  0.37364955  1  0  -0.623876  0  2.16028  0  0  -0.541351  0  2.442062  0  0  -0.574426  0  2.428477  0  0  -0.324202  -0.517967  0  2.450526  0
O  O68  1  0.62076399  0.20447130  0.65976304  1  0  -0.539207  0  1.954284  0  0  -0.484973  0  2.189399  0  0  -0.508297  0  2.179081  0  0  -0.285862  -0.469052  0  2.196491  0
O  O69  1  0.37923945  0.79552436  0.34024108  1  0  -0.539194  0  1.95421  0  0  -0.484989  0  2.189323  0  0  -0.508305  0  2.178992  0  0  -0.285843  -0.469071  0  2.196425  0
O  O70  1  0.44168118  0.99169307  0.59443401  1  0  -0.549416  0  2.123542  0  0  -0.495882  0  2.355698  0  0  -0.5185  0  2.341509  0  0  -0.330603  -0.480257  0  2.365464  0
O  O71  1  0.55831836  0.00831123  0.40556932  1  0  -0.549311  0  2.123699  0  0  -0.495777  0  2.355784  0  0  -0.51839  0  2.341595  0  0  -0.330546  -0.48017  0  2.365578  0
O  O72  1  0.56571941  0.75583174  0.54511694  1  0  -0.638509  0  2.177356  0  0  -0.556871  0  2.446211  0  0  -0.588997  0  2.434788  0  0  -0.322585  -0.534004  0  2.452902  0
O  O73  1  0.43427263  0.24416825  0.45488197  1  0  -0.638456  0  2.177149  0  0  -0.556816  0  2.446074  0  0  -0.588934  0  2.434648  0  0  -0.322587  -0.533948  0  2.452765  0
O  O74  1  0.73558240  0.62836533  0.63403754  1  0  -0.596176  0  2.109242  0  0  -0.521215  0  2.38616  0  0  -0.553325  0  2.373514  0  0  -0.315857  -0.499017  0  2.395002  0
O  O75  1  0.26441464  0.37163574  0.36596026  1  0  -0.59626  0  2.109201  0  0  -0.52127  0  2.386168  0  0  -0.553381  0  2.373526  0  0  -0.315875  -0.499072  0  2.39501  0
O  O76  1  0.55160221  0.85929568  0.75721991  1  0  -0.575529  0  1.99941  0  0  -0.516849  0  2.218272  0  0  -0.541204  0  2.210518  0  0  -0.287069  -0.499894  0  2.223431  0
O  O77  1  0.44841304  0.14070863  0.24278380  1  0  -0.575529  0  1.998947  0  0  -0.516882  0  2.217823  0  0  -0.541244  0  2.210074  0  0  -0.287076  -0.499921  0  2.222975  0
O  O78  1  0.75986764  0.85681263  0.87951305  1  0  -0.551404  0  2.102368  0  0  -0.507726  0  2.339346  0  0  -0.529088  0  2.320506  0  0  -0.324182  -0.492914  0  2.352309  0
O  O79  1  0.24013543  0.14318734  0.12049268  1  0  -0.551378  0  2.102557  0  0  -0.507674  0  2.339565  0  0  -0.529032  0  2.320721  0  0  -0.324103  -0.492864  0  2.352534  0
O  O80  1  0.14911229  0.62073885  0.93645829  1  0  -0.820875  0  1.82433  0  0  -0.771709  0  1.993749  0  0  -0.791777  0  1.964153  0  0  -0.596181  -0.757211  0  2.014315  0
O  O81  1  0.85089226  0.37926654  0.06354392  1  0  -0.82099  0  1.824271  0  0  -0.771803  0  1.993706  0  0  -0.79187  0  1.964109  0  0  -0.596167  -0.757303  0  2.014274  0
O  O82  1  0.77777148  0.35474378  0.23995121  1  0  -0.80818  0  1.846167  0  0  -0.748781  0  2.021772  0  0  -0.770084  0  1.992473  0  0  -0.570321  -0.733254  0  2.041515  0
O  O83  1  0.22222654  0.64525514  0.76004777  1  0  -0.80825  0  1.846216  0  0  -0.748843  0  2.021811  0  0  -0.770147  0  1.992421  0  0  -0.570327  -0.733322  0  2.04157  0
