# generated using pymatgen
data_CoH22C32N4O7
_symmetry_space_group_name_H-M   'P 1'
_cell_length_a   9.86802539
_cell_length_b   11.34500408
_cell_length_c   13.38600000
_cell_angle_alpha   89.36983495
_cell_angle_beta   76.57981419
_cell_angle_gamma   68.71837976
_symmetry_Int_Tables_number   1
_chemical_formula_structural   CoH22C32N4O7
_chemical_formula_sum   'Co2 H44 C64 N8 O14'
_cell_volume   1353.83523294
_cell_formula_units_Z   2
loop_
 _symmetry_equiv_pos_site_id
 _symmetry_equiv_pos_as_xyz
  1  'x, y, z'
loop_
 _atom_site_type_symbol
 _atom_site_label
 _atom_site_symmetry_multiplicity
 _atom_site_fract_x
 _atom_site_fract_y
 _atom_site_fract_z
 _atom_site_occupancy
 _atom_site_hle17_ddec_charge
 _atom_site_hle17_ddec_spin_density
 _atom_site_hle17_ddec_sum_bond_order
 _atom_site_hle17_magmom
 _atom_site_hse06_10hf_ddec_charge
 _atom_site_hse06_10hf_ddec_spin_density
 _atom_site_hse06_10hf_ddec_sum_bond_order
 _atom_site_hse06_10hf_magmom
 _atom_site_hse06_ddec_charge
 _atom_site_hse06_ddec_spin_density
 _atom_site_hse06_ddec_sum_bond_order
 _atom_site_hse06_magmom
 _atom_site_pbe_bader_charge
 _atom_site_pbe_bader_spin_density
 _atom_site_pbe_cm5_charge
 _atom_site_pbe_ddec_charge
 _atom_site_pbe_ddec_spin_density
 _atom_site_pbe_ddec_sum_bond_order
 _atom_site_pbe_magmom
Co  Co0  1  0.33256467  0.92104881  0.07157039  1  1.008612  2.970913  2.016692  2.575  0.962188  2.897401  2.452499  2.633  1.040661  2.930751  2.377954  2.712  1.284298  2.589073  0.681082  0.892143  2.863215  2.521558  2.558
Co  Co1  1  0.66743273  0.07895762  0.92843216  1  1.008589  -2.970909  2.016661  -2.575  0.962195  -2.897401  2.452472  -2.633  1.04068  -2.930751  2.377927  -2.712  1.284529  -2.589164  0.681182  0.892346  -2.863148  2.521349  -2.558
H  H2  1  0.20041041  0.86319059  0.90499703  1  0.084872  0.000485  0.928373  0.001  0.094472  0.00033  0.98956  0.001  0.097658  0.000236  0.985637  0.001  0.093985  0.001302  0.119489  0.091814  0.000415  0.992884  0.001
H  H3  1  0.79958907  0.13681109  0.09500372  1  0.084898  -0.000485  0.92837  -0.001  0.094485  -0.00033  0.989575  -0.001  0.09768  -0.000236  0.985642  -0.001  0.093995  -0.0013  0.119488  0.091819  -0.000415  0.992902  -0.001
H  H4  1  0.23535176  0.68166951  0.78641971  1  0.122463  0.000108  0.990662  0.0  0.126862  0.000183  1.057344  0.0  0.130956  0.000132  1.055611  0.0  0.118126  0.000545  0.106349  0.124023  0.000242  1.058603  0.0
H  H5  1  0.76464772  0.31833217  0.21358029  1  0.122461  -0.000107  0.99064  0.0  0.126861  -0.000183  1.057326  0.0  0.130949  -0.000132  1.055599  0.0  0.118054  -0.000543  0.106336  0.124016  -0.000241  1.058588  0.0
H  H6  1  0.63394766  0.46960876  0.88645820  1  0.122902  0.000211  0.997208  0.0  0.131157  0.000278  1.057551  0.0  0.135271  0.000221  1.055973  0.0  0.134935  0.000591  0.108797  0.128009  0.000322  1.059025  0.0
H  H7  1  0.36605015  0.53039197  0.11354135  1  0.122872  -0.000214  0.997229  0.0  0.131124  -0.000278  1.057578  0.0  0.135239  -0.000221  1.055998  0.0  0.134916  -0.000592  0.108789  0.127974  -0.000322  1.059058  0.0
H  H8  1  0.58422903  0.66177351  0.00031462  1  0.076737  0.000371  0.961035  0.001  0.085219  0.000249  1.025392  0.001  0.087469  0.000151  1.02328  0.001  0.107714  0.001366  0.114141  0.083356  0.000333  1.027101  0.001
H  H9  1  0.41577128  0.33822627  0.99968526  1  0.07668  -0.000371  0.961101  -0.001  0.08517  -0.000249  1.025442  -0.001  0.087419  -0.000152  1.023332  -0.001  0.10772  -0.001365  0.114129  0.08331  -0.000332  1.027148  -0.001
H  H10  1  0.42230816  0.42739573  0.48381439  1  0.109841  1.1e-05  0.95314  0.0  0.116307  0.0  1.019202  0.0  0.11967  -0.0  1.016557  0.0  0.119545  -0.0  0.106933  0.113954  -1e-06  1.021048  0.0
H  H11  1  0.57769070  0.57260500  0.51618572  1  0.109866  -1e-05  0.953125  0.0  0.116332  -0.0  1.01918  0.0  0.11969  -0.0  1.016555  0.0  0.119576  1e-06  0.106946  0.113985  1e-06  1.021023  0.0
H  H12  1  0.57688618  0.24793694  0.35067272  1  0.112065  -3.5e-05  0.955625  0.0  0.122021  6e-06  1.016806  0.0  0.125216  1e-06  1.015991  0.0  0.100447  2.1e-05  0.105205  0.119847  1.3e-05  1.017342  0.0
H  H13  1  0.42311226  0.75206474  0.64932671  1  0.112094  3.4e-05  0.95562  0.0  0.122055  -6e-06  1.016792  0.0  0.125251  -1e-06  1.015976  0.0  0.100465  -1.8e-05  0.105227  0.11989  -1.2e-05  1.01732  0.0
H  H14  1  0.73721356  0.01362274  0.58616149  1  0.109679  3.2e-05  0.965644  0.0  0.118557  3e-05  1.02793  0.0  0.121495  2.7e-05  1.028372  0.0  0.094096  3e-05  0.102647  0.116361  3.6e-05  1.028244  0.0
H  H15  1  0.26278737  0.98637799  0.41383827  1  0.109683  -3.3e-05  0.965586  0.0  0.118565  -3e-05  1.027872  0.0  0.121497  -2.7e-05  1.028318  0.0  0.094082  -2.7e-05  0.102643  0.116366  -3.5e-05  1.028196  0.0
H  H16  1  0.59315188  0.19413498  0.71772862  1  0.110103  0.000154  0.966655  0.0  0.113808  0.000145  1.039732  0.0  0.118251  0.000163  1.035429  0.0  0.112069  0.000107  0.106191  0.110448  0.000105  1.042865  0.0
H  H17  1  0.40684802  0.80586575  0.28227132  1  0.110076  -0.000153  0.966689  0.0  0.113786  -0.000145  1.039759  0.0  0.118223  -0.000163  1.035468  0.0  0.11205  -0.000103  0.106199  0.110423  -0.000103  1.042911  0.0
H  H18  1  0.64292484  0.85123249  0.39735635  1  0.112891  -4e-06  0.962516  0.0  0.121269  -2e-06  1.024887  0.0  0.123567  -1e-06  1.02577  0.0  0.09148  -3e-06  0.104042  0.119238  -2e-06  1.025277  0.0
H  H19  1  0.35707547  0.14876729  0.60264277  1  0.112878  5e-06  0.962488  0.0  0.121263  2e-06  1.024851  0.0  0.123561  1e-06  1.025736  0.0  0.091484  6e-06  0.10404  0.119229  3e-06  1.02524  0.0
H  H20  1  0.78879267  0.62432663  0.39892326  1  0.086035  9e-06  1.004285  0.0  0.093302  -2e-06  1.07325  0.0  0.09612  -0.0  1.071399  0.0  0.084219  -1e-06  0.102295  0.091155  -3e-06  1.074839  0.0
H  H21  1  0.21120659  0.37567315  0.60107680  1  0.08609  -9e-06  1.004258  0.0  0.09333  2e-06  1.073249  0.0  0.096147  0.0  1.071399  0.0  0.084218  1e-06  0.102308  0.091181  3e-06  1.074837  0.0
H  H22  1  0.17835255  0.70925855  0.40914954  1  0.097812  9e-06  0.96485  0.0  0.104784  5e-06  1.031025  0.0  0.107521  2e-06  1.029812  0.0  0.089919  1.8e-05  0.102836  0.102481  3e-06  1.03283  0.0
H  H23  1  0.82164777  0.29074123  0.59085034  1  0.097838  -9e-06  0.964896  0.0  0.10481  -6e-06  1.031065  0.0  0.10755  -2e-06  1.029843  0.0  0.089917  -1.9e-05  0.102851  0.102503  -4e-06  1.032872  0.0
H  H24  1  0.02872620  0.94041713  0.40591727  1  0.111229  -2.6e-05  0.950693  0.0  0.119876  -1.5e-05  1.015402  0.0  0.122699  -1.3e-05  1.015062  0.0  0.073233  -1.4e-05  0.10543  0.117458  -1.9e-05  1.016574  0.0
H  H25  1  0.97127349  0.05958170  0.59408347  1  0.111221  2.6e-05  0.950659  0.0  0.11986  1.5e-05  1.015382  0.0  0.122683  1.3e-05  1.015043  0.0  0.073211  1.6e-05  0.105427  0.117439  2e-05  1.016551  0.0
H  H26  1  0.90693768  0.27531813  0.32726427  1  0.128124  0.000154  0.953336  0.0  0.138607  0.000235  1.010949  0.0  0.142287  0.000174  1.009618  0.0  0.126576  0.000683  0.111907  0.135879  0.000297  1.01241  0.0
H  H27  1  0.09306430  0.72468260  0.67273456  1  0.128132  -0.000152  0.953327  0.0  0.138621  -0.000235  1.010934  0.0  0.1423  -0.000174  1.009604  0.0  0.126546  -0.000681  0.111914  0.135884  -0.000296  1.012403  0.0
H  H28  1  0.03206890  0.06960942  0.21846540  1  0.091567  0.000233  0.956074  0.001  0.099499  7.9e-05  1.017031  0.001  0.103068  -6e-06  1.013662  0.001  0.12371  0.001131  0.115879  0.096691  0.000185  1.019566  0.001
H  H29  1  0.96793099  0.93039131  0.78153454  1  0.091523  -0.000231  0.956126  -0.001  0.099491  -7.9e-05  1.017036  -0.001  0.103059  5e-06  1.013668  -0.001  0.123699  -0.001126  0.115863  0.096678  -0.000183  1.019561  -0.001
H  H30  1  0.44951497  0.09350474  0.17794857  1  0.08608  0.000552  0.951409  0.001  0.092706  0.000414  1.015769  0.001  0.095441  0.000337  1.013264  0.001  0.07398  0.001405  0.115632  0.090336  0.000499  1.017965  0.001
H  H31  1  0.55048555  0.90649694  0.82205050  1  0.086125  -0.000552  0.951465  -0.001  0.092754  -0.000414  1.015801  -0.001  0.095487  -0.000338  1.013299  -0.001  0.073973  -0.001404  0.115673  0.090379  -0.000499  1.017993  -0.001
H  H32  1  0.34360098  0.29771774  0.28679973  1  0.126047  0.000137  0.983534  0.0  0.132414  0.000225  1.046366  0.0  0.135995  0.000163  1.045754  0.0  0.135409  0.000639  0.106939  0.129861  0.000295  1.047046  0.0
H  H33  1  0.65640037  0.70228204  0.71319997  1  0.126056  -0.000137  0.983543  0.0  0.132428  -0.000225  1.046365  0.0  0.136006  -0.000163  1.045758  0.0  0.135414  -0.000638  0.106945  0.129865  -0.000295  1.047054  0.0
H  H34  1  0.28003374  0.38426780  0.88670689  1  0.089447  -0.000177  0.973529  0.0  0.097731  -6.9e-05  1.04038  0.0  0.100561  -2.9e-05  1.038415  0.0  0.08073  -0.000287  0.09966  0.095766  -0.000118  1.041567  0.0
H  H35  1  0.71996511  0.61573293  0.11329323  1  0.089448  0.000176  0.973533  0.0  0.097733  6.9e-05  1.040383  0.0  0.100564  2.8e-05  1.038418  0.0  0.0807  0.000288  0.099658  0.095772  0.000119  1.041567  0.0
H  H36  1  0.04240896  0.53138468  0.85051085  1  0.092424  2.8e-05  0.945579  0.0  0.10335  -8e-06  1.003157  0.0  0.106101  -5e-06  1.003103  0.0  0.073765  3.5e-05  0.100104  0.10173  1.3e-05  1.003011  0.0
H  H37  1  0.95759073  0.46861415  0.14948839  1  0.092447  -2.9e-05  0.945531  0.0  0.103353  8e-06  1.003135  0.0  0.106105  5e-06  1.00308  0.0  0.073739  -3.2e-05  0.100117  0.101739  -1.2e-05  1.002987  0.0
H  H38  1  0.84802978  0.44821421  0.82970356  1  0.090822  -5.6e-05  0.971602  0.0  0.100729  2.8e-05  1.035073  0.0  0.103586  2.3e-05  1.033144  0.0  0.074092  -1e-05  0.100915  0.098722  1.4e-05  1.036358  0.0
H  H39  1  0.15196886  0.55178463  0.17029661  1  0.09083  5.6e-05  0.971613  0.0  0.100744  -2.8e-05  1.035074  0.0  0.103594  -2.3e-05  1.033157  0.0  0.074082  9e-06  0.100919  0.09874  -1.5e-05  1.03636  0.0
H  H40  1  0.11349579  0.08083769  0.90441333  1  0.107993  -0.00024  0.954458  0.0  0.114913  -0.000228  1.022255  0.0  0.11939  -0.000162  1.017777  0.0  0.092355  -0.000557  0.106425  0.111736  -0.000276  1.02545  0.0
H  H41  1  0.88650639  0.91916019  0.09558550  1  0.107951  0.000239  0.954473  0.0  0.114887  0.000228  1.022266  0.0  0.119366  0.000161  1.017781  0.0  0.092384  0.000561  0.106409  0.111716  0.000278  1.025451  0.0
H  H42  1  0.57999776  0.38300556  0.76188596  1  0.322908  2.2e-05  0.892187  0.0  0.302662  1.9e-05  0.958913  0.0  0.310824  3.3e-05  0.952498  0.0  0.502305  -7.2e-05  0.317448  0.296881  1.2e-05  0.963304  0.0
H  H43  1  0.42000172  0.61699612  0.23811478  1  0.322909  -2.3e-05  0.892181  0.0  0.302654  -1.9e-05  0.95893  0.0  0.310818  -3.3e-05  0.95251  0.0  0.502295  7.2e-05  0.31745  0.296871  -1.2e-05  0.963328  0.0
H  H44  1  0.92540636  0.46255348  0.36686978  1  0.302534  1.2e-05  0.897347  0.0  0.28492  9e-06  0.96185  0.0  0.292427  6e-06  0.956081  0.0  0.478763  -5e-06  0.315553  0.279676  1.3e-05  0.965829  0.0
H  H45  1  0.07459353  0.53744725  0.63313015  1  0.302531  -1.4e-05  0.897359  0.0  0.28492  -9e-06  0.961857  0.0  0.292426  -6e-06  0.956088  0.0  0.478759  5e-06  0.315548  0.279672  -1.3e-05  0.965837  0.0
C  C46  1  0.29733779  0.77499677  0.89759706  1  0.14  -0.008739  3.721408  -0.012  0.11252  -0.001986  3.975255  -0.003  0.122996  -0.001638  3.990434  -0.003  0.456848  -0.005944  0.043504  0.104698  -0.002732  3.965795  -0.004
C  C47  1  0.70266107  0.22500396  0.10240381  1  0.139921  0.008747  3.721475  0.012  0.112466  0.001987  3.975326  0.003  0.122929  0.001638  3.990505  0.003  0.456946  0.005905  0.043467  0.10464  0.002713  3.965851  0.004
C  C48  1  0.31587865  0.67354464  0.83159638  1  -0.23227  0.00737  3.704998  0.01  -0.246201  0.002204  3.950988  0.003  -0.256927  0.001876  3.969694  0.003  0.018252  0.005052  -0.096706  -0.239438  0.00262  3.939287  0.004
C  C49  1  0.68412188  0.32645704  0.16840269  1  -0.232225  -0.007379  3.705043  -0.01  -0.246165  -0.002205  3.951003  -0.003  -0.256886  -0.001876  3.969717  -0.003  0.018133  -0.005034  -0.096693  -0.239409  -0.002611  3.939304  -0.004
C  C50  1  0.44146530  0.56072188  0.82463384  1  0.316284  -0.007728  3.761198  -0.01  0.305373  -0.002184  4.005342  -0.003  0.320386  -0.001537  4.022277  -0.002  0.365618  -0.006255  0.119321  0.294792  -0.003375  3.994511  -0.004
C  C51  1  0.55853397  0.43927790  0.17536622  1  0.316238  0.007737  3.761186  0.01  0.305357  0.002184  4.00529  0.003  0.320372  0.001535  4.022225  0.002  0.365678  0.006222  0.1193  0.294774  0.003358  3.99446  0.004
C  C52  1  0.53850028  0.55689244  0.88771773  1  -0.229688  0.00711  3.712624  0.01  -0.246585  0.001986  3.963678  0.003  -0.257509  0.001762  3.982984  0.003  -0.016886  0.004161  -0.094975  -0.239765  0.00219  3.9519  0.003
C  C53  1  0.46149857  0.44310829  0.11228314  1  -0.229609  -0.007117  3.712683  -0.01  -0.24652  -0.001987  3.963724  -0.003  -0.257444  -0.001762  3.983031  -0.003  -0.016886  -0.004148  -0.094948  -0.23972  -0.002184  3.95197  -0.003
C  C54  1  0.51057482  0.66274059  0.95080452  1  0.13922  -0.007431  3.739861  -0.01  0.110591  -0.001111  3.997912  -0.002  0.120027  -0.00102  4.014872  -0.002  0.470054  -0.003718  0.040127  0.10404  -0.001465  3.986614  -0.002
C  C55  1  0.48942403  0.33726014  0.04919560  1  0.139209  0.007442  3.739866  0.01  0.1106  0.001111  3.99792  0.002  0.120033  0.00102  4.014882  0.002  0.470048  0.003688  0.040097  0.104035  0.00145  3.986616  0.002
C  C56  1  0.41453014  0.43954933  0.68191071  1  0.562215  -0.001131  3.795409  -0.001  0.515209  -0.000403  4.081456  0.0  0.545366  -0.000195  4.080007  0.0  1.375211  -0.001455  0.249972  0.494604  -0.000881  4.082434  -0.001
C  C57  1  0.58546976  0.56045140  0.31808922  1  0.562236  0.00113  3.795416  0.001  0.51522  0.000403  4.08148  0.0  0.545378  0.000197  4.08003  0.0  1.3752  0.001449  0.249956  0.494609  0.000877  4.082464  0.001
C  C58  1  0.50187306  0.32501732  0.60897117  1  -0.103144  0.000251  3.790915  0.0  -0.08529  1.8e-05  4.031538  0.0  -0.094934  1.6e-05  4.054953  0.0  -0.03736  9.2e-05  -0.027494  -0.079171  4e-05  4.016713  0.0
C  C59  1  0.49812787  0.67498341  0.39102858  1  -0.103178  -0.000242  3.790941  0.0  -0.08532  -1.9e-05  4.031566  0.0  -0.094965  -1.8e-05  4.054976  0.0  -0.037293  -9.4e-05  -0.027499  -0.079202  -4.1e-05  4.016758  0.0
C  C60  1  0.49476326  0.33806209  0.50553966  1  -0.0389  -0.000319  3.736846  0.0  -0.063029  -7.3e-05  3.988975  0.0  -0.059783  -4.4e-05  4.00737  0.0  -0.022442  -0.00032  -0.077816  -0.065181  -0.000161  3.97686  0.0
C  C61  1  0.50523621  0.66193959  0.49446034  1  -0.038853  0.000307  3.736871  0.0  -0.062972  7.4e-05  3.98899  0.0  -0.05973  4.3e-05  4.007382  0.0  -0.022422  0.00032  -0.077772  -0.06512  0.000161  3.976864  0.0
C  C62  1  0.57886982  0.23830687  0.43140472  1  -0.17232  0.000178  3.730098  0.0  -0.194314  6e-06  3.985426  0.0  -0.200541  1e-05  4.003635  0.0  -0.001744  2.8e-05  -0.099107  -0.190129  1.4e-05  3.973428  0.0
C  C63  1  0.42112966  0.76169481  0.56859528  1  -0.172427  -0.000167  3.730217  0.0  -0.194429  -7e-06  3.985561  0.0  -0.200656  -9e-06  4.003767  0.0  -0.001762  -2.4e-05  -0.099158  -0.190234  -1.2e-05  3.973546  0.0
C  C64  1  0.66891406  0.12258569  0.46012973  1  0.289461  -0.00033  3.800702  0.0  0.280164  -8.1e-05  4.059446  0.0  0.293316  -4.6e-05  4.073347  0.0  0.36531  -0.000324  0.091744  0.271363  -0.000178  4.050068  0.0
C  C65  1  0.33108625  0.87741409  0.53987089  1  0.289509  0.00032  3.800782  0.0  0.280208  8.1e-05  4.05953  0.0  0.293361  4.8e-05  4.073429  0.0  0.365321  0.000325  0.091747  0.271412  0.000179  4.050141  0.0
C  C66  1  0.67181345  0.10544291  0.56351973  1  -0.207545  0.000208  3.752925  0.0  -0.224182  3.5e-05  4.001027  0.0  -0.231777  3.1e-05  4.020609  0.0  -0.065603  6.4e-05  -0.107741  -0.220125  4.7e-05  3.989423  0.0
C  C67  1  0.32818749  0.89455782  0.43647928  1  -0.2075  -0.000197  3.752782  0.0  -0.224135  -3.4e-05  4.000882  0.0  -0.231724  -3.2e-05  4.020459  0.0  -0.065137  -6.2e-05  -0.107672  -0.220081  -4.6e-05  3.989297  0.0
C  C68  1  0.58998352  0.20773590  0.63735729  1  -0.050593  -0.000288  3.723386  0.0  -0.071143  -2.8e-05  3.970837  0.0  -0.067193  1e-06  3.987382  0.0  0.018171  -0.000236  -0.080794  -0.073288  -0.000119  3.96066  0.0
C  C69  1  0.41001637  0.79226483  0.36264190  1  -0.05061  0.000276  3.723341  0.0  -0.071166  2.8e-05  3.970793  0.0  -0.067213  -1e-06  3.987333  0.0  0.017621  0.000234  -0.080873  -0.073328  0.000117  3.960662  0.0
C  C70  1  0.82908145  0.90706732  0.39953573  1  0.277285  -0.000363  3.787816  0.0  0.267735  -9.9e-05  4.050484  0.0  0.278628  -6.5e-05  4.065566  0.0  0.424103  -0.000475  0.086834  0.26012  -0.000266  4.040122  0.0
C  C71  1  0.17091886  0.09293246  0.60046339  1  0.277284  0.000361  3.787863  0.0  0.267738  9.9e-05  4.050524  0.0  0.278631  6.1e-05  4.065607  0.0  0.424087  0.000477  0.086841  0.260115  0.000267  4.040159  0.0
C  C72  1  0.75985637  0.81940782  0.40094857  1  -0.165507  0.000223  3.725362  0.0  -0.185063  5.1e-05  3.974956  0.0  -0.191509  4.3e-05  3.996662  0.0  -0.004932  0.000181  -0.094729  -0.180601  8.7e-05  3.960758  0.0
C  C73  1  0.24014248  0.18059291  0.59905080  1  -0.165543  -0.000222  3.72543  0.0  -0.185106  -5.1e-05  3.975018  0.0  -0.191553  -4e-05  3.996725  0.0  -0.00493  -0.000176  -0.094767  -0.180649  -8.4e-05  3.960826  0.0
C  C74  1  0.84417374  0.69120656  0.40151754  1  -0.046441  -0.000371  3.729596  0.0  -0.071259  -0.000105  3.980128  0.0  -0.070126  -7.1e-05  4.002283  0.0  -0.028075  -0.000464  -0.080251  -0.07157  -0.000244  3.965127  0.0
C  C75  1  0.15582616  0.30879417  0.59848164  1  -0.046488  0.00037  3.729666  0.0  -0.071277  0.000106  3.980209  0.0  -0.070143  7e-05  4.002366  0.0  -0.02813  0.000467  -0.080279  -0.071597  0.000246  3.965214  0.0
C  C76  1  0.99649131  0.65040003  0.40168880  1  -0.087772  0.000272  3.776255  0.0  -0.071334  6.5e-05  4.019059  0.0  -0.080737  4.6e-05  4.043609  0.0  -0.014762  0.000283  -0.023889  -0.065356  0.000151  4.002652  0.0
C  C77  1  0.00350859  0.34960070  0.59831039  1  -0.087772  -0.000271  3.776271  0.0  -0.071359  -6.7e-05  4.019097  0.0  -0.080767  -5e-05  4.043652  0.0  -0.0149  -0.000284  -0.023899  -0.065381  -0.000151  4.002693  0.0
C  C78  1  0.06059425  0.74127968  0.40792390  1  -0.026186  -0.000315  3.713166  0.0  -0.050964  -6.8e-05  3.963591  0.0  -0.048117  -6.4e-05  3.982759  0.0  -0.006289  -0.000372  -0.076557  -0.052635  -0.000213  3.951033  0.0
C  C79  1  0.93940606  0.25872010  0.59207523  1  -0.026215  0.000314  3.713192  0.0  -0.050981  6.9e-05  3.963618  0.0  -0.048134  6.3e-05  3.98279  0.0  -0.006316  0.000372  -0.076581  -0.052663  0.000214  3.951067  0.0
C  C80  1  0.97758782  0.86983208  0.40635969  1  -0.178881  0.000162  3.733182  0.0  -0.20015  -7e-06  3.989049  0.0  -0.206402  -6e-06  4.008908  0.0  -0.032707  0.000131  -0.097523  -0.195965  2.5e-05  3.976389  0.0
C  C81  1  0.02241145  0.13016770  0.59364111  1  -0.178849  -0.000163  3.73315  0.0  -0.200113  7e-06  3.989025  0.0  -0.206366  1e-05  4.008885  0.0  -0.032687  -0.00013  -0.097508  -0.19593  -2.4e-05  3.976363  0.0
C  C82  1  0.09999825  0.51450003  0.38337813  1  0.543346  -0.000852  3.813806  -0.001  0.496316  -0.000318  4.105709  0.0  0.526266  -0.000148  4.103546  0.0  1.363093  -0.001136  0.241961  0.475784  -0.000684  4.107024  -0.001
C  C83  1  0.90000310  0.48549975  0.61662156  1  0.543361  0.000852  3.813813  0.001  0.496345  0.000319  4.10571  0.0  0.526295  0.00015  4.103544  0.0  1.363196  0.001131  0.241977  0.475805  0.000681  4.107029  0.001
C  C84  1  0.11442804  0.30729371  0.31212129  1  0.315666  -0.007328  3.776226  -0.01  0.306797  -0.002425  4.019353  -0.003  0.321847  -0.001859  4.037099  -0.002  0.332753  -0.006361  0.118913  0.296265  -0.003435  4.007532  -0.004
C  C85  1  0.88557290  0.69270702  0.68787846  1  0.315682  0.007337  3.776241  0.01  0.306798  0.002426  4.019386  0.003  0.321848  0.00186  4.037131  0.002  0.332758  0.006349  0.118883  0.296254  0.003429  4.007571  0.004
C  C86  1  0.02796087  0.23771656  0.29531083  1  -0.236121  0.006648  3.709033  0.009  -0.251932  0.001965  3.9572  0.003  -0.262802  0.001857  3.976441  0.003  0.021443  0.003956  -0.09559  -0.244974  0.002088  3.945045  0.003
C  C87  1  0.97204007  0.76228417  0.70468893  1  -0.236132  -0.006661  3.709075  -0.009  -0.251954  -0.001965  3.957263  -0.003  -0.262822  -0.001857  3.976506  -0.003  0.021421  -0.003945  -0.095623  -0.245018  -0.002083  3.945124  -0.003
C  C88  1  0.09691759  0.12360118  0.23506198  1  0.128534  -0.007045  3.735945  -0.01  0.103396  -0.001532  3.989214  -0.003  0.112919  -0.001475  4.005227  -0.003  0.374126  -0.004125  0.035868  0.096577  -0.001768  3.978506  -0.003
C  C89  1  0.90308127  0.87639955  0.76493739  1  0.128556  0.007052  3.735999  0.01  0.1034  0.001533  3.989258  0.003  0.112923  0.001477  4.005273  0.003  0.37412  0.004118  0.035867  0.096569  0.001765  3.978546  0.003
C  C90  1  0.32946419  0.13601578  0.21302217  1  0.13991  -0.007859  3.713432  -0.011  0.114717  -0.002078  3.968393  -0.003  0.124683  -0.001887  3.984439  -0.003  0.495795  -0.005543  0.040506  0.10765  -0.002564  3.957582  -0.004
C  C91  1  0.67053633  0.86398590  0.78697691  1  0.13982  0.007867  3.713441  0.011  0.114631  0.002079  3.968398  0.003  0.124595  0.001888  3.984451  0.003  0.495564  0.005525  0.040464  0.107545  0.002555  3.957597  0.004
C  C92  1  0.27072540  0.25080024  0.27299720  1  -0.225789  0.006865  3.691195  0.009  -0.241783  0.002036  3.935575  0.003  -0.252942  0.00187  3.955498  0.003  0.038989  0.00436  -0.096216  -0.234724  0.002287  3.92309  0.003
C  C93  1  0.72927450  0.74920049  0.72700274  1  -0.225751  -0.006876  3.691122  -0.009  -0.241743  -0.002037  3.935507  -0.003  -0.2529  -0.00187  3.955431  -0.003  0.038985  -0.004351  -0.096238  -0.234702  -0.002284  3.923044  -0.003
C  C94  1  0.35309811  0.13296551  0.91963746  1  0.669406  0.004352  3.851543  0.007  0.629624  0.003975  4.141245  0.006  0.672326  0.003237  4.130621  0.005  1.530301  0.006192  0.224784  0.596897  0.004565  4.147143  0.007
C  C95  1  0.64690095  0.86703237  0.08036264  1  0.669375  -0.004353  3.851579  -0.007  0.629571  -0.003973  4.1413  -0.006  0.67227  -0.003237  4.130681  -0.005  1.530472  -0.006244  0.224771  0.596863  -0.004594  4.147196  -0.007
C  C96  1  0.21253176  0.22278222  0.89686359  1  -0.077087  -0.002321  3.780658  -0.003  -0.050083  -0.000693  4.006499  -0.001  -0.061304  -0.000754  4.028972  -0.001  -0.037798  -0.000671  -0.02029  -0.042809  -0.000375  3.993018  -0.001
C  C97  1  0.78746793  0.77721661  0.10313790  1  -0.07708  0.002324  3.780658  0.003  -0.050032  0.000693  4.00645  0.001  -0.06125  0.000754  4.028919  0.001  -0.037776  0.000685  -0.020267  -0.042749  0.000381  3.992948  0.001
C  C98  1  0.19190468  0.35006859  0.88162748  1  -0.058821  0.004463  3.721858  0.006  -0.086416  0.002222  3.972053  0.003  -0.083168  0.001588  3.990845  0.002  -0.012187  0.002313  -0.08339  -0.087199  0.001289  3.958173  0.002
C  C99  1  0.80809604  0.64993024  0.11837233  1  -0.058863  -0.004462  3.721958  -0.006  -0.086473  -0.002224  3.972139  -0.003  -0.083223  -0.001582  3.990925  -0.002  -0.012159  -0.002334  -0.08338  -0.087242  -0.0013  3.958238  -0.002
C  C100  1  0.05923815  0.43193316  0.86040668  1  -0.071405  -0.001922  3.768612  -0.003  -0.083772  -0.000409  4.027061  -0.001  -0.08892  -0.000468  4.048612  -0.001  -0.056888  -0.000607  -0.092694  -0.080627  -0.000292  4.011432  0.0
C  C101  1  0.94076195  0.56806472  0.13959325  1  -0.071368  0.001923  3.768696  0.003  -0.083716  0.000412  4.027147  0.001  -0.088865  0.000462  4.048698  0.001  -0.056877  0.000612  -0.092679  -0.080563  0.000294  4.011509  0.0
C  C102  1  0.94956187  0.38597041  0.84997772  1  -0.060881  0.003791  3.723233  0.005  -0.088302  0.001781  3.971091  0.002  -0.085431  0.001248  3.99007  0.001  -0.021084  0.001095  -0.082575  -0.088722  0.000568  3.956863  0.001
C  C103  1  0.05043928  0.61402748  0.15002203  1  -0.060898  -0.003792  3.723157  -0.005  -0.088328  -0.001782  3.971007  -0.002  -0.085454  -0.001247  3.989994  -0.001  -0.021082  -0.001114  -0.08255  -0.088737  -0.000577  3.95678  0.0
C  C104  1  0.96899945  0.25891656  0.86480857  1  -0.070091  -0.004306  3.770679  -0.006  -0.041945  -0.002103  3.999369  -0.003  -0.051465  -0.00149  4.022484  -0.002  -0.037729  -0.00491  -0.020651  -0.03593  -0.002529  3.984411  -0.004
C  C105  1  0.03099982  0.74108322  0.13519148  1  -0.070061  0.004308  3.770526  0.006  -0.041933  0.002102  3.99923  0.003  -0.05145  0.001494  4.022345  0.002  -0.03764  0.004918  -0.020681  -0.035919  0.002532  3.984285  0.004
C  C106  1  0.09942455  0.17871378  0.89053723  1  -0.057711  -0.000266  3.688385  0.0  -0.093115  -0.001094  3.928416  -0.001  -0.089032  -0.000476  3.945653  0.0  -0.004829  -7.3e-05  -0.076038  -0.097456  -0.000131  3.919095  0.0
C  C107  1  0.90057514  0.82128505  0.10946202  1  -0.057667  0.000265  3.688329  0.0  -0.093102  0.001095  3.928366  0.001  -0.089019  0.000473  3.9456  0.0  -0.004878  5.3e-05  -0.076006  -0.097427  0.00012  3.919025  0.0
C  C108  1  0.85040097  0.20945938  0.85625293  1  0.634088  0.002769  3.918028  0.006  0.586784  -0.00138  4.22032  0.0  0.623037  -0.001082  4.215326  0.0  1.554683  -0.000233  0.203546  0.560952  -0.001392  4.221119  0.001
C  C109  1  0.14960038  0.79054040  0.14374826  1  0.633848  -0.002768  3.918331  -0.006  0.586574  0.00138  4.220583  0.0  0.622829  0.001086  4.215587  0.0  1.554248  0.000224  0.203427  0.56074  0.001388  4.221416  -0.001
N  N110  1  0.39210748  0.77192468  0.95660980  1  -0.338088  0.04055  3.325674  0.069  -0.290617  0.027525  3.605409  0.044  -0.313758  0.023671  3.617995  0.037  -1.241243  0.055143  -0.337791  -0.273641  0.030916  3.597954  0.049
N  N111  1  0.60789179  0.22807510  0.04339100  1  -0.338025  -0.040562  3.325606  -0.069  -0.290598  -0.027528  3.60537  -0.044  -0.313731  -0.023671  3.617953  -0.037  -1.241329  -0.055054  -0.337813  -0.27366  -0.03087  3.597852  -0.049
N  N112  1  0.48029855  0.45354410  0.75878700  1  -0.441202  -0.000166  3.307019  0.0  -0.380803  -0.000134  3.540885  0.0  -0.403652  -0.000104  3.546048  0.0  -1.274892  -0.000726  -0.385149  -0.365333  -0.000159  3.537143  0.0
N  N113  1  0.51970135  0.54645663  0.24121293  1  -0.441188  0.000168  3.306962  0.0  -0.380814  0.000133  3.540839  0.0  -0.403664  0.000103  3.546006  0.0  -1.274884  0.000718  -0.38515  -0.365347  0.000156  3.537109  0.0
N  N114  1  0.03843536  0.42916097  0.36037381  1  -0.450635  -0.000248  3.327106  0.0  -0.394293  -0.000247  3.566051  0.0  -0.417704  -0.000233  3.573192  0.0  -1.258594  -0.000661  -0.393011  -0.378053  -0.000184  3.560802  0.0
N  N115  1  0.96156495  0.57083881  0.63962606  1  -0.450659  0.00025  3.327171  0.0  -0.394318  0.000246  3.566105  0.0  -0.417728  0.000229  3.573245  0.0  -1.258555  0.00066  -0.393021  -0.378083  0.000184  3.560864  0.0
N  N116  1  0.24594895  0.07289410  0.19126204  1  -0.345726  0.03701  3.291243  0.065  -0.302775  0.02472  3.581209  0.042  -0.326043  0.020899  3.593466  0.036  -1.209829  0.050306  -0.333163  -0.284798  0.028305  3.571907  0.047
N  N117  1  0.75405116  0.92710853  0.80873784  1  -0.345666  -0.037017  3.291159  -0.065  -0.302732  -0.024719  3.581132  -0.042  -0.326005  -0.0209  3.593399  -0.036  -1.209668  -0.050211  -0.333205  -0.284822  -0.028255  3.571858  -0.047
O  O118  1  0.29408379  0.51930700  0.67060589  1  -0.558348  -0.0007  1.935928  -0.001  -0.511416  -0.000253  2.159861  0.0  -0.531435  -0.00014  2.153429  0.0  -1.164939  -0.001154  -0.28973  -0.497864  -0.000562  2.164399  -0.001
O  O119  1  0.70591610  0.48069373  0.32939405  1  -0.55835  0.000702  1.935917  0.001  -0.511404  0.000254  2.159849  0.0  -0.531421  0.000141  2.153416  0.0  -1.164933  0.001152  -0.28971  -0.497859  0.000561  2.164399  0.001
O  O120  1  0.75141739  0.03133971  0.38032320  1  -0.298514  -6.4e-05  2.336218  0.0  -0.232162  -2.9e-05  2.558542  0.0  -0.249034  -1.4e-05  2.558022  0.0  -1.111737  -0.000153  -0.155667  -0.219834  -6.3e-05  2.558183  0.0
O  O121  1  0.24858459  0.96866102  0.61967713  1  -0.298517  6.4e-05  2.336242  0.0  -0.232173  2.9e-05  2.558573  0.0  -0.249045  1.2e-05  2.558052  0.0  -1.11173  0.000155  -0.155664  -0.219831  6.3e-05  2.558196  0.0
O  O122  1  0.23432540  0.48116636  0.38310568  1  -0.519137  -0.000675  1.919231  -0.001  -0.473295  -0.000306  2.135719  -0.001  -0.492283  -0.000196  2.130114  0.0  -1.134954  -0.00109  -0.281913  -0.460353  -0.00054  2.139374  -0.001
O  O123  1  0.76567491  0.51883342  0.61689345  1  -0.519156  0.000675  1.919177  0.001  -0.473315  0.000306  2.135672  0.001  -0.492304  0.000198  2.13007  0.0  -1.134951  0.001091  -0.281943  -0.460385  0.000542  2.139327  0.001
O  O124  1  0.34865376  0.03390785  0.96357880  1  -0.639227  0.0544  2.207992  0.085  -0.610122  0.044239  2.513585  0.066  -0.651404  0.03219  2.49747  0.046  -1.172064  0.105089  -0.315022  -0.572833  0.057358  2.521679  0.087
O  O125  1  0.65134696  0.96608623  0.03641732  1  -0.639194  -0.054397  2.207928  -0.085  -0.610058  -0.044235  2.513523  -0.066  -0.65134  -0.032186  2.49742  -0.046  -1.172167  -0.105038  -0.31495  -0.572805  -0.057331  2.52159  -0.087
O  O126  1  0.47192764  0.15793421  0.89062149  1  -0.613772  -0.045842  2.123416  -0.071  -0.580766  -0.03541  2.415329  -0.051  -0.61948  -0.027124  2.400134  -0.038  -1.154146  -0.077622  -0.304768  -0.547427  -0.043028  2.423764  -0.063
O  O127  1  0.52807080  0.84206272  0.10938023  1  -0.613804  0.045843  2.123425  0.071  -0.580785  0.035409  2.415285  0.051  -0.619508  0.027123  2.400123  0.038  -1.154166  0.077726  -0.304778  -0.547377  0.04308  2.423739  0.063
O  O128  1  0.86621879  0.09860496  0.88894042  1  -0.632141  -0.05806  2.084934  -0.091  -0.599566  -0.041009  2.366526  -0.061  -0.642048  -0.029649  2.357787  -0.043  -1.146218  -0.0993  -0.31934  -0.56284  -0.053146  2.368586  -0.08
O  O129  1  0.13378194  0.90139387  0.11106089  1  -0.632027  0.058054  2.084996  0.091  -0.599475  0.041008  2.36657  0.061  -0.641954  0.029646  2.357835  0.043  -1.146066  0.099413  -0.319247  -0.562654  0.053199  2.368636  0.08
O  O130  1  0.73979175  0.27495939  0.82222655  1  -0.624656  -0.008407  1.968408  -0.014  -0.583922  -0.009315  2.212252  -0.015  -0.610581  -0.006728  2.204708  -0.011  -1.200668  -0.022445  -0.312402  -0.562728  -0.011668  2.215924  -0.018
O  O131  1  0.26020689  0.72503944  0.17777586  1  -0.62457  0.008405  1.968562  0.014  -0.583812  0.009312  2.212348  0.015  -0.610485  0.006727  2.204837  0.011  -1.200179  0.022449  -0.3123  -0.562601  0.011671  2.216039  0.018
