# generated using pymatgen
data_CdH8C2(NCl)2
_symmetry_space_group_name_H-M   'P 1'
_cell_length_a   4.15279318
_cell_length_b   7.81542479
_cell_length_c   9.59081755
_cell_angle_alpha   89.99988390
_cell_angle_beta   89.99917550
_cell_angle_gamma   90.00004627
_symmetry_Int_Tables_number   1
_chemical_formula_structural   CdH8C2(NCl)2
_chemical_formula_sum   'Cd2 H16 C4 N4 Cl4'
_cell_volume   311.27806640
_cell_formula_units_Z   2
loop_
 _symmetry_equiv_pos_site_id
 _symmetry_equiv_pos_as_xyz
  1  'x, y, z'
loop_
 _atom_site_type_symbol
 _atom_site_label
 _atom_site_symmetry_multiplicity
 _atom_site_fract_x
 _atom_site_fract_y
 _atom_site_fract_z
 _atom_site_occupancy
 _atom_site_hle17_bader_spin_density
 _atom_site_hle17_ddec_charge
 _atom_site_hle17_ddec_spin_density
 _atom_site_hle17_ddec_sum_bond_order
 _atom_site_hle17_magmom
 _atom_site_hse06_10hf_bader_spin_density
 _atom_site_hse06_10hf_ddec_charge
 _atom_site_hse06_10hf_ddec_spin_density
 _atom_site_hse06_10hf_ddec_sum_bond_order
 _atom_site_hse06_10hf_magmom
 _atom_site_hse06_bader_spin_density
 _atom_site_hse06_ddec_charge
 _atom_site_hse06_ddec_spin_density
 _atom_site_hse06_ddec_sum_bond_order
 _atom_site_hse06_magmom
 _atom_site_pbe_bader_spin_density
 _atom_site_pbe_cm5_charge
 _atom_site_pbe_ddec_charge
 _atom_site_pbe_ddec_spin_density
 _atom_site_pbe_ddec_sum_bond_order
 _atom_site_pbe_magmom
Cd  Cd0  1  0.99999982  0.00000005  0.50000034  1  0  0.993509  0  1.792312  0  0  0.828425  0  2.231264  0  0  0.872009  0  2.194025  0  0  0.617597  0.797197  0  2.25693  0
Cd  Cd1  1  0.00000040  0.49999969  0.00000063  1  0  0.993496  0  1.792308  0  0  0.828406  0  2.231261  0  0  0.871995  0  2.194024  0  0  0.617587  0.797181  0  2.256928  0
H  H2  1  0.78764910  0.39019854  0.40302332  1  0  0.059493  0  0.957253  0  0  0.074343  0  1.024787  0  0  0.07482  0  1.025029  0  0  0.086386  0.073831  0  1.02493  0
H  H3  1  0.78765091  0.60980120  0.59697845  1  0  0.059464  0  0.957316  0  0  0.074315  0  1.024822  0  0  0.074778  0  1.025078  0  0  0.086372  0.073803  0  1.024966  0
H  H4  1  0.21235017  0.89019978  0.09697677  1  0  0.059482  0  0.957258  0  0  0.074324  0  1.024779  0  0  0.074801  0  1.025022  0  0  0.086383  0.073811  0  1.024922  0
H  H5  1  0.21234835  0.10979973  0.90302028  1  0  0.059472  0  0.957246  0  0  0.074303  0  1.024793  0  0  0.07478  0  1.025035  0  0  0.086362  0.07379  0  1.02494  0
H  H6  1  0.21235378  0.60979981  0.59697713  1  0  0.059505  0  0.957206  0  0  0.074338  0  1.024739  0  0  0.074817  0  1.024977  0  0  0.086395  0.073827  0  1.024881  0
H  H7  1  0.21234715  0.39019842  0.40302096  1  0  0.059459  0  0.957268  0  0  0.074295  0  1.024821  0  0  0.074772  0  1.025065  0  0  0.086363  0.073782  0  1.024967  0
H  H8  1  0.78765030  0.10979985  0.90302368  1  0  0.059496  0  0.957259  0  0  0.074347  0  1.024771  0  0  0.074824  0  1.025013  0  0  0.086388  0.073835  0  1.024915  0
H  H9  1  0.78764971  0.89019989  0.09698017  1  0  0.059452  0  0.957246  0  0  0.07428  0  1.024789  0  0  0.074758  0  1.025031  0  0  0.086351  0.073767  0  1.024932  0
H  H10  1  0.80435191  0.29139747  0.64296327  1  0  0.283113  0  0.934627  0  0  0.273717  0  0.993133  0  0  0.279477  0  0.989999  0  0  0.267645  0.269537  0  0.995536  0
H  H11  1  0.80435453  0.70859972  0.35703839  1  0  0.283183  0  0.934533  0  0  0.273774  0  0.993071  0  0  0.279534  0  0.989936  0  0  0.267649  0.269591  0  0.995473  0
H  H12  1  0.19565005  0.79139934  0.85703724  1  0  0.283106  0  0.934612  0  0  0.273705  0  0.993131  0  0  0.279463  0  0.989999  0  0  0.267626  0.269524  0  0.995533  0
H  H13  1  0.19564445  0.20859889  0.14296095  1  0  0.283179  0  0.934541  0  0  0.273774  0  0.993072  0  0  0.279533  0  0.989938  0  0  0.267646  0.269592  0  0.995474  0
H  H14  1  0.19565097  0.70860087  0.35703718  1  0  0.283114  0  0.93462  0  0  0.273717  0  0.993126  0  0  0.279476  0  0.989992  0  0  0.267637  0.269535  0  0.995525  0
H  H15  1  0.19564835  0.29139991  0.64296206  1  0  0.283185  0  0.934516  0  0  0.27378  0  0.993051  0  0  0.279539  0  0.989916  0  0  0.26764  0.269598  0  0.995456  0
H  H16  1  0.80435042  0.20860157  0.14296321  1  0  0.283106  0  0.93461  0  0  0.273706  0  0.993125  0  0  0.279464  0  0.989992  0  0  0.267625  0.269524  0  0.995526  0
H  H17  1  0.80435361  0.79140074  0.85703949  1  0  0.283175  0  0.934548  0  0  0.27377  0  0.99308  0  0  0.279529  0  0.989946  0  0  0.267645  0.269588  0  0.995483  0
C  C18  1  0.00000707  0.40956385  0.46956964  1  0  0.041747  0  3.636774  0  0  -0.013108  0  3.897281  0  0  -0.009415  0  3.910376  0  0  -0.091754  -0.01557  0  3.88842  0
C  C19  1  0.99999341  0.59043322  0.53043185  1  0  0.04168  0  3.636779  0  0  -0.013106  0  3.897217  0  0  -0.009403  0  3.910319  0  0  -0.091797  -0.015569  0  3.888355  0
C  C20  1  0.99999465  0.90956557  0.03043146  1  0  0.041734  0  3.636805  0  0  -0.013058  0  3.897263  0  0  -0.009367  0  3.910362  0  0  -0.091765  -0.01552  0  3.888401  0
C  C21  1  0.00000582  0.09043406  0.96956899  1  0  0.041701  0  3.636803  0  0  -0.013119  0  3.897283  0  0  -0.009427  0  3.910381  0  0  -0.091772  -0.015582  0  3.888425  0
N  N22  1  0.99998514  0.27560574  0.57833835  1  0  -0.623441  0  3.133446  0  0  -0.559102  0  3.367915  0  0  -0.58179  0  3.37153  0  0  -0.637317  -0.542986  0  3.365051  0
N  N23  1  0.00001292  0.72439260  0.42166210  1  0  -0.623401  0  3.133444  0  0  -0.559071  0  3.36788  0  0  -0.581757  0  3.371491  0  0  -0.63729  -0.542951  0  3.365004  0
N  N24  1  0.00000716  0.77560609  0.92166323  1  0  -0.62341  0  3.133424  0  0  -0.55908  0  3.367874  0  0  -0.581767  0  3.371492  0  0  -0.637288  -0.542964  0  3.365007  0
N  N25  1  0.99999090  0.22439354  0.07833722  1  0  -0.623393  0  3.133426  0  0  -0.559056  0  3.367878  0  0  -0.581743  0  3.371495  0  0  -0.637274  -0.54294  0  3.365008  0
Cl  Cl26  1  0.49999799  0.07443839  0.32255898  1  0  -0.6003  0  0.943532  0  0  -0.538153  0  1.215296  0  0  -0.553422  0  1.194444  0  0  -0.28776  -0.526806  0  1.229949  0
Cl  Cl27  1  0.50000248  0.92556123  0.67744043  1  0  -0.600302  0  0.943539  0  0  -0.538161  0  1.215304  0  0  -0.553429  0  1.19445  0  0  -0.287762  -0.526812  0  1.229957  0
Cl  Cl28  1  0.50000318  0.57443827  0.17744059  1  0  -0.6003  0  0.943539  0  0  -0.538153  0  1.215302  0  0  -0.553425  0  1.194452  0  0  -0.28776  -0.526808  0  1.229958  0
Cl  Cl29  1  0.49999970  0.42556136  0.82255881  1  0  -0.600303  0  0.943525  0  0  -0.538153  0  1.215276  0  0  -0.553425  0  1.194423  0  0  -0.287758  -0.526807  0  1.229933  0
