# generated using pymatgen
data_ZnH8C12(IN2)2
_symmetry_space_group_name_H-M   'P 1'
_cell_length_a   14.77359659
_cell_length_b   18.98007646
_cell_length_c   31.17917132
_cell_angle_alpha   100.57295646
_cell_angle_beta   89.97893184
_cell_angle_gamma   112.92460400
_symmetry_Int_Tables_number   1
_chemical_formula_structural   ZnH8C12(IN2)2
_chemical_formula_sum   'Zn12 H96 C144 I24 N48'
_cell_volume   7891.08626242
_cell_formula_units_Z   12
loop_
 _symmetry_equiv_pos_site_id
 _symmetry_equiv_pos_as_xyz
  1  'x, y, z'
loop_
 _atom_site_type_symbol
 _atom_site_label
 _atom_site_symmetry_multiplicity
 _atom_site_fract_x
 _atom_site_fract_y
 _atom_site_fract_z
 _atom_site_occupancy
 _atom_site_pbe_bader_charge
 _atom_site_pbe_bader_spin_density
 _atom_site_pbe_cm5_charge
 _atom_site_pbe_ddec_charge
 _atom_site_pbe_ddec_spin_density
 _atom_site_pbe_ddec_sum_bond_order
 _atom_site_pbe_magmom
Zn  Zn0  1  0.69559782  0.66366840  0.73231368  1  0.899262  0  0.442912  0.452272  0  2.749967  0
Zn  Zn1  1  0.55301760  0.83385618  0.90851007  1  0.903747  0  0.442617  0.475706  0  2.730073  0
Zn  Zn2  1  0.22726863  0.25029047  0.55855813  1  0.911008  0  0.449154  0.47897  0  2.741902  0
Zn  Zn3  1  0.96819728  0.66373335  0.23227992  1  0.901315  0  0.443004  0.451785  0  2.750579  0
Zn  Zn4  1  0.28100223  0.83400917  0.40851383  1  0.903896  0  0.442364  0.475372  0  2.730418  0
Zn  Zn5  1  0.02306601  0.25030386  0.05858185  1  0.911876  0  0.449268  0.478571  0  2.741871  0
Zn  Zn6  1  0.03180623  0.33626793  0.76771988  1  0.901378  0  0.443016  0.451843  0  2.75044  0
Zn  Zn7  1  0.71899691  0.16598744  0.59148737  1  0.903851  0  0.442368  0.475316  0  2.730487  0
Zn  Zn8  1  0.97693498  0.74969917  0.94141686  1  0.911827  0  0.449303  0.478612  0  2.741824  0
Zn  Zn9  1  0.30439737  0.33633112  0.26768496  1  0.899303  0  0.442897  0.452179  0  2.750134  0
Zn  Zn10  1  0.44698504  0.16614743  0.09148806  1  0.903735  0  0.442621  0.475672  0  2.730225  0
Zn  Zn11  1  0.77272858  0.74970905  0.44144211  1  0.910957  0  0.449144  0.478985  0  2.74186  0
H  H12  1  0.05848806  0.71711915  0.76554593  1  0.149564  0  0.116971  0.128658  0  0.996994  0
H  H13  1  0.90131046  0.73974369  0.76841850  1  0.128283  0  0.103953  0.081234  0  1.037283  0
H  H14  1  0.74940425  0.53174924  0.68161324  1  0.104963  0  0.115433  0.089323  0  0.998949  0
H  H15  1  0.90060491  0.50039316  0.67507875  1  0.121563  0  0.118141  0.130086  0  0.990442  0
H  H16  1  0.30937092  0.46024775  0.70106902  1  0.109546  0  0.098884  0.112969  0  1.045733  0
H  H17  1  0.32808002  0.35235884  0.64625829  1  0.114359  0  0.10295  0.080305  0  1.031468  0
H  H18  1  0.08512402  0.32581184  0.56842687  1  0.133179  0  0.104324  0.091171  0  1.0221  0
H  H19  1  0.05237857  0.42783472  0.62109895  1  0.116342  0  0.112528  0.122528  0  1.000123  0
H  H20  1  0.21791850  0.72537548  0.82171760  1  0.150802  0  0.101275  0.114683  0  1.044665  0
H  H21  1  0.34668078  0.80505762  0.88186522  1  0.10554  0  0.106717  0.084662  0  1.030019  0
H  H22  1  0.52687509  0.68906891  0.83843608  1  0.114034  0  0.101482  0.08401  0  1.038995  0
H  H23  1  0.40622920  0.60616291  0.77440542  1  0.125007  0  0.099525  0.106916  0  1.055048  0
H  H24  1  0.89272158  0.03647279  0.48609728  1  0.117621  0  0.116341  0.130503  0  0.97743  0
H  H25  1  0.05591352  0.15202252  0.48989081  1  0.12728  0  0.104989  0.081854  0  1.01664  0
H  H26  1  0.11157118  0.16122414  0.62138646  1  0.111498  0  0.106615  0.080881  0  1.013175  0
H  H27  1  0.95232809  0.04648357  0.62296174  1  0.134937  0  0.114801  0.129372  0  0.987897  0
H  H28  1  0.56140905  0.77830639  0.62278141  1  0.092281  0  0.119766  0.131047  0  0.98068  0
H  H29  1  0.55650144  0.69798159  0.67954639  1  0.093616  0  0.112582  0.085536  0  1.004038  0
H  H30  1  0.85824630  0.75999531  0.68163280  1  0.089895  0  0.116975  0.086197  0  0.99268  0
H  H31  1  0.87487082  0.84208090  0.62509212  1  0.125129  0  0.116855  0.127899  0  0.988754  0
H  H32  1  0.64088758  0.98745622  0.47745509  1  0.126328  0  0.116909  0.130705  0  0.985624  0
H  H33  1  0.48712597  0.96166012  0.43045683  1  0.128076  0  0.105526  0.081083  0  1.026408  0
H  H34  1  0.32705692  0.76435918  0.47916322  1  0.125059  0  0.108209  0.08482  0  1.017714  0
H  H35  1  0.47445081  0.78126529  0.52747913  1  0.116391  0  0.118782  0.131067  0  0.982975  0
H  H36  1  0.65875559  0.71712948  0.26562615  1  0.131416  0  0.116928  0.128604  0  0.997676  0
H  H37  1  0.83863349  0.73984269  0.26843720  1  0.131891  0  0.104186  0.081202  0  1.03802  0
H  H38  1  0.78254422  0.53198630  0.18154179  1  0.100884  0  0.115311  0.08928  0  0.998451  0
H  H39  1  0.59996917  0.50060081  0.17502788  1  0.136021  0  0.118173  0.129956  0  0.990683  0
H  H40  1  0.15090961  0.46032113  0.20104123  1  0.111838  0  0.098685  0.112604  0  1.045455  0
H  H41  1  0.02433420  0.35231929  0.14624563  1  0.106791  0  0.103068  0.080426  0  1.031792  0
H  H42  1  0.24089041  0.32590052  0.06840269  1  0.121683  0  0.104156  0.091  0  1.02219  0
H  H43  1  0.37565652  0.42800705  0.12106279  1  0.133684  0  0.112803  0.123253  0  0.999509  0
H  H44  1  0.50756416  0.72560602  0.32169917  1  0.114826  0  0.101096  0.114233  0  1.043906  0
H  H45  1  0.45834773  0.80529415  0.38180999  1  0.111048  0  0.106922  0.084592  0  1.029936  0
H  H46  1  0.16217856  0.68927944  0.33832727  1  0.109864  0  0.101421  0.083833  0  1.038831  0
H  H47  1  0.20001433  0.60629556  0.27435149  1  0.13399  0  0.100026  0.107559  0  1.054113  0
H  H48  1  0.14368459  0.03669531  0.98613477  1  0.122315  0  0.116367  0.130692  0  0.978043  0
H  H49  1  0.09616132  0.15223897  0.99003454  1  0.11251  0  0.105269  0.081988  0  1.017869  0
H  H50  1  0.04989694  0.16127916  0.12156761  1  0.106834  0  0.106579  0.080468  0  1.013547  0
H  H51  1  0.09419243  0.04646551  0.12301788  1  0.124482  0  0.114413  0.128895  0  0.987942  0
H  H52  1  0.21701328  0.77837824  0.12265831  1  0.127943  0  0.120014  0.130827  0  0.981347  0
H  H53  1  0.14151794  0.69804744  0.17943644  1  0.135998  0  0.112796  0.086231  0  1.004201  0
H  H54  1  0.90168763  0.75986539  0.18153344  1  0.085131  0  0.117165  0.086164  0  0.991263  0
H  H55  1  0.96722736  0.84200154  0.12499992  1  0.112218  0  0.11675  0.127799  0  0.988407  0
H  H56  1  0.34706636  0.98764398  0.97733758  1  0.130111  0  0.116854  0.130955  0  0.985171  0
H  H57  1  0.47508836  0.96169874  0.93044998  1  0.123568  0  0.105222  0.081174  0  1.026596  0
H  H58  1  0.43715448  0.76434444  0.97918505  1  0.130067  0  0.107912  0.084292  0  1.016976  0
H  H59  1  0.30667358  0.78138069  0.02746773  1  0.114382  0  0.119298  0.131717  0  0.982678  0
H  H60  1  0.34124686  0.28287238  0.73437404  1  0.131373  0  0.116948  0.128627  0  0.997697  0
H  H61  1  0.16137167  0.26015918  0.73156619  1  0.1319  0  0.104152  0.081155  0  1.03798  0
H  H62  1  0.21746015  0.46801265  0.81846127  1  0.101304  0  0.115359  0.089335  0  0.998442  0
H  H63  1  0.40003424  0.49940163  0.82497236  1  0.135964  0  0.118203  0.129978  0  0.990764  0
H  H64  1  0.84909157  0.53967956  0.79895722  1  0.111922  0  0.098675  0.112595  0  1.04544  0
H  H65  1  0.97566941  0.64768490  0.85375128  1  0.106853  0  0.103027  0.080388  0  1.031815  0
H  H66  1  0.75911902  0.67410717  0.93159397  1  0.127112  0  0.104193  0.091135  0  1.022109  0
H  H67  1  0.62434962  0.57199948  0.87893727  1  0.133648  0  0.112771  0.123209  0  0.999582  0
H  H68  1  0.49243652  0.27438826  0.67830337  1  0.114846  0  0.101083  0.114193  0  1.043883  0
H  H69  1  0.54164918  0.19470071  0.61819134  1  0.110851  0  0.106918  0.084612  0  1.029921  0
H  H70  1  0.83781594  0.31071600  0.66167412  1  0.10996  0  0.101438  0.083839  0  1.038832  0
H  H71  1  0.79998374  0.39369755  0.72565125  1  0.133998  0  0.099974  0.107432  0  1.054122  0
H  H72  1  0.85631823  0.96330597  0.01386342  1  0.122274  0  0.116308  0.130604  0  0.978119  0
H  H73  1  0.90383318  0.84775646  0.00996300  1  0.112258  0  0.105279  0.081994  0  1.017794  0
H  H74  1  0.95008720  0.83871452  0.87842846  1  0.10689  0  0.106553  0.080366  0  1.013609  0
H  H75  1  0.90580381  0.95353343  0.87697813  1  0.124424  0  0.114422  0.128944  0  0.987932  0
H  H76  1  0.78298760  0.22161778  0.87733866  1  0.127978  0  0.119977  0.130788  0  0.98137  0
H  H77  1  0.85848169  0.30195151  0.82056246  1  0.13591  0  0.112778  0.086292  0  1.004168  0
H  H78  1  0.09831503  0.24014231  0.81846643  1  0.085111  0  0.117202  0.086236  0  0.991312  0
H  H79  1  0.03277663  0.15800207  0.87499789  1  0.112504  0  0.116737  0.12775  0  0.988482  0
H  H80  1  0.65293792  0.01236022  0.02265997  1  0.130262  0  0.116863  0.130904  0  0.985314  0
H  H81  1  0.52491814  0.03830312  0.06954860  1  0.123677  0  0.105191  0.081095  0  1.026572  0
H  H82  1  0.56284176  0.23565450  0.02081448  1  0.130023  0  0.107907  0.084268  0  1.016982  0
H  H83  1  0.69332432  0.21862292  0.97253137  1  0.114565  0  0.119313  0.131756  0  0.982543  0
H  H84  1  0.94150896  0.28287863  0.23445605  1  0.149527  0  0.116979  0.128638  0  0.997001  0
H  H85  1  0.09868665  0.26025292  0.23158431  1  0.128254  0  0.103966  0.081263  0  1.037222  0
H  H86  1  0.25059286  0.46824737  0.31838797  1  0.105007  0  0.115457  0.089333  0  0.998941  0
H  H87  1  0.09939442  0.49960520  0.32492168  1  0.121582  0  0.118161  0.130067  0  0.990467  0
H  H88  1  0.69062552  0.53975294  0.29892879  1  0.109487  0  0.098931  0.113032  0  1.045637  0
H  H89  1  0.67191719  0.64764068  0.35373971  1  0.114366  0  0.102948  0.080351  0  1.031355  0
H  H90  1  0.91487135  0.67418535  0.43157343  1  0.133108  0  0.104329  0.091201  0  1.02193  0
H  H91  1  0.94761263  0.57215956  0.37890231  1  0.116466  0  0.112589  0.122616  0  1.000013  0
H  H92  1  0.78208217  0.27461880  0.17828335  1  0.150747  0  0.101263  0.114728  0  1.044598  0
H  H93  1  0.65332244  0.19494307  0.11813259  1  0.105452  0  0.106744  0.084647  0  1.030024  0
H  H94  1  0.47313288  0.31093995  0.16156071  1  0.114424  0  0.101411  0.083921  0  1.038974  0
H  H95  1  0.59377721  0.39384012  0.22559361  1  0.125243  0  0.099519  0.106937  0  1.054976  0
H  H96  1  0.10727167  0.96352558  0.51390604  1  0.117163  0  0.116352  0.130507  0  0.977499  0
H  H97  1  0.94408031  0.84797701  0.51011071  1  0.127376  0  0.104955  0.081838  0  1.016699  0
H  H98  1  0.88842799  0.83878064  0.37861565  1  0.111478  0  0.106613  0.080835  0  1.01326  0
H  H99  1  0.04767252  0.95352005  0.37704120  1  0.13504  0  0.114768  0.129334  0  0.988011  0
H  H100  1  0.43859601  0.22169664  0.37721858  1  0.092192  0  0.119835  0.131184  0  0.980597  0
H  H101  1  0.44349917  0.30202203  0.32045399  1  0.093572  0  0.112582  0.085517  0  1.003987  0
H  H102  1  0.14175778  0.24000713  0.31836585  1  0.090221  0  0.116971  0.086125  0  0.992771  0
H  H103  1  0.12512571  0.15791862  0.37490555  1  0.124579  0  0.116856  0.127949  0  0.988609  0
H  H104  1  0.35910905  0.01254214  0.52254695  1  0.126233  0  0.116916  0.130693  0  0.985541  0
H  H105  1  0.51287309  0.03834175  0.56954624  1  0.127624  0  0.10555  0.081128  0  1.026444  0
H  H106  1  0.67294368  0.23564036  0.52083959  1  0.124985  0  0.108242  0.0848  0  1.017644  0
H  H107  1  0.52555038  0.21873541  0.47252285  1  0.116599  0  0.118777  0.131047  0  0.982952  0
C  C108  1  0.16638062  0.51557481  0.69681367  1  1.098627  0  0.264712  0.385477  0  3.986891  0
C  C109  1  0.22692017  0.61398244  0.75618517  1  1.112839  0  0.265138  0.385061  0  4.010986  0
C  C110  1  0.08160243  0.59038520  0.72018629  1  1.099178  0  0.261037  0.376515  0  4.026633  0
C  C111  1  0.99151850  0.60715784  0.71958019  1  0.039978  0  0.021137  0.060276  0  3.93012  0
C  C112  1  0.99185758  0.67558188  0.74589600  1  -0.063534  0  -0.068833  -0.134908  0  3.909521  0
C  C113  1  0.90566738  0.68843176  0.74748128  1  0.466969  0  0.044099  0.083898  0  3.936355  0
C  C114  1  0.82017133  0.57154163  0.69897259  1  0.464123  0  0.054436  0.098184  0  3.90895  0
C  C115  1  0.90372403  0.55449602  0.69548121  1  -0.015899  0  -0.065772  -0.1345  0  3.900958  0
C  C116  1  0.17917338  0.45237598  0.66521426  1  0.013769  0  0.014114  0.046069  0  3.945896  0
C  C117  1  0.25749316  0.43067438  0.67238355  1  -0.039434  0  -0.076924  -0.135728  0  3.923257  0
C  C118  1  0.26878996  0.37187702  0.64207010  1  0.478449  0  0.045292  0.093634  0  3.916798  0
C  C119  1  0.13265456  0.35659810  0.59837848  1  0.458587  0  0.049623  0.10214  0  3.905864  0
C  C120  1  0.11504245  0.41370989  0.62757108  1  0.034143  0  -0.068184  -0.126435  0  3.9126  0
C  C121  1  0.30218946  0.65975392  0.79292346  1  -0.0286  0  0.0139  0.048801  0  3.936902  0
C  C122  1  0.28576222  0.71613428  0.82386180  1  -0.027329  0  -0.072968  -0.130161  0  3.915879  0
C  C123  1  0.35731710  0.76022079  0.85768140  1  0.492844  0  0.045843  0.097011  0  3.919162  0
C  C124  1  0.45709659  0.69467672  0.83337831  1  0.500128  0  0.048363  0.097709  0  3.90355  0
C  C125  1  0.38969590  0.64866377  0.79803458  1  -0.049868  0  -0.0732  -0.137787  0  3.905468  0
C  C126  1  0.81873795  0.96426845  0.55465056  1  1.119448  0  0.263648  0.38165  0  4.017937  0
C  C127  1  0.65679659  0.89740754  0.53326520  1  1.110529  0  0.262791  0.377679  0  4.012498  0
C  C128  1  0.72628153  0.86544151  0.58720208  1  1.149838  0  0.261499  0.380347  0  4.026323  0
C  C129  1  0.91245675  0.03173804  0.55409879  1  -0.027619  0  0.017171  0.052826  0  3.951524  0
C  C130  1  0.94025749  0.06228082  0.51636478  1  0.008224  0  -0.07164  -0.137121  0  3.927473  0
C  C131  1  0.02963828  0.12583610  0.51830291  1  0.43937  0  0.046064  0.099353  0  3.919391  0
C  C132  1  0.06125504  0.13129994  0.59211693  1  0.450926  0  0.044916  0.097113  0  3.928182  0
C  C133  1  0.97387862  0.06763735  0.59280884  1  0.025979  0  -0.06934  -0.131154  0  3.906053  0
C  C134  1  0.71893755  0.81643057  0.61993564  1  -0.051332  0  0.023174  0.069325  0  3.929581  0
C  C135  1  0.62829287  0.77533833  0.63526500  1  0.052632  0  -0.062908  -0.125714  0  3.893934  0
C  C136  1  0.62541905  0.73146988  0.66670406  1  0.505174  0  0.053385  0.101168  0  3.917997  0
C  C137  1  0.79432789  0.76595696  0.66792376  1  0.450153  0  0.048874  0.090532  0  3.936503  0
C  C138  1  0.80351125  0.81128090  0.63672652  1  0.01643  0  -0.068268  -0.129996  0  3.921145  0
C  C139  1  0.56853851  0.88580979  0.50584035  1  0.030532  0  0.018688  0.056958  0  3.944311  0
C  C140  1  0.57245628  0.93761151  0.47852277  1  -0.043798  0  -0.070339  -0.130977  0  3.917493  0
C  C141  1  0.48830216  0.92372548  0.45272929  1  0.474869  0  0.045029  0.086605  0  3.929291  0
C  C142  1  0.39843857  0.81268256  0.47988607  1  0.458212  0  0.048111  0.093579  0  3.917747  0
C  C143  1  0.47927715  0.82250538  0.50662091  1  -0.030216  0  -0.065803  -0.128061  0  3.901445  0
C  C144  1  0.34926535  0.51566696  0.19681735  1  1.083279  0  0.264697  0.38466  0  3.986379  0
C  C145  1  0.38717164  0.61405775  0.25620594  1  1.115589  0  0.263967  0.383307  0  4.010712  0
C  C146  1  0.50888958  0.59046690  0.22019549  1  1.117868  0  0.260909  0.37674  0  4.026641  0
C  C147  1  0.61575720  0.60725802  0.21959446  1  -0.033823  0  0.021318  0.060623  0  3.930162  0
C  C148  1  0.68386309  0.67566442  0.24593032  1  -0.018573  0  -0.068892  -0.135  0  3.909247  0
C  C149  1  0.78292554  0.68853833  0.24750251  1  0.503368  0  0.043709  0.084016  0  3.937488  0
C  C150  1  0.75157191  0.57176293  0.19892555  1  0.474163  0  0.054376  0.097909  0  3.90737  0
C  C151  1  0.65093331  0.55470274  0.19543699  1  -0.002795  0  -0.065715  -0.133886  0  3.900606  0
C  C152  1  0.27333773  0.45251695  0.16517815  1  -0.060296  0  0.01415  0.046478  0  3.943652  0
C  C153  1  0.17327274  0.43078225  0.17235507  1  0.011016  0  -0.076583  -0.134981  0  3.920904  0
C  C154  1  0.10317820  0.37195475  0.14204630  1  0.484805  0  0.045129  0.092325  0  3.916949  0
C  C155  1  0.22410537  0.35669729  0.09834662  1  0.456434  0  0.049748  0.10144  0  3.905496  0
C  C156  1  0.29883361  0.41384412  0.12753510  1  0.030978  0  -0.068169  -0.126687  0  3.911764  0
C  C157  1  0.35765728  0.65983987  0.29293431  1  0.011825  0  0.014678  0.049533  0  3.938818  0
C  C158  1  0.43043320  0.71631378  0.32384868  1  0.015954  0  -0.073615  -0.130369  0  3.917104  0
C  C159  1  0.40290028  0.76037953  0.35764700  1  0.476001  0  0.046282  0.097507  0  3.918482  0
C  C160  1  0.23758859  0.69485844  0.33331110  1  0.493086  0  0.048419  0.098828  0  3.900472  0
C  C161  1  0.25902525  0.64881535  0.29799736  1  -0.081194  0  -0.073796  -0.138763  0  3.905147  0
C  C162  1  0.14548710  0.96435363  0.05461040  1  1.103458  0  0.263242  0.380845  0  4.017331  0
C  C163  1  0.24057555  0.89752578  0.03316696  1  1.119429  0  0.26314  0.377338  0  4.009419  0
C  C164  1  0.13918267  0.86556386  0.08715569  1  1.131376  0  0.261574  0.38049  0  4.027214  0
C  C165  1  0.11925650  0.03182272  0.05413666  1  0.008434  0  0.017762  0.053688  0  3.950506  0
C  C166  1  0.12202781  0.06245693  0.01643745  1  -0.013098  0  -0.071656  -0.137852  0  3.927982  0
C  C167  1  0.09630315  0.12603860  0.01842709  1  0.474034  0  0.045893  0.099984  0  3.920088  0
C  C168  1  0.07020904  0.13139593  0.09224871  1  0.467077  0  0.044973  0.097365  0  3.929669  0
C  C169  1  0.09383493  0.06770585  0.09289126  1  -0.008016  0  -0.069506  -0.130806  0  3.906486  0
C  C170  1  0.09762033  0.81653692  0.11989846  1  -0.023395  0  0.023012  0.068755  0  3.930677  0
C  C171  1  0.14717898  0.77544837  0.13518367  1  0.03402  0  -0.062398  -0.124249  0  3.894789  0
C  C172  1  0.10615349  0.73156810  0.16663017  1  0.431456  0  0.052507  0.098623  0  3.919714  0
C  C173  1  0.97166083  0.76592459  0.16785795  1  0.451263  0  0.048335  0.090291  0  3.933916  0
C  C174  1  0.00784087  0.81130562  0.13668321  1  0.018978  0  -0.068238  -0.130024  0  3.920812  0
C  C175  1  0.31731661  0.88592678  0.00575971  1  -0.029418  0  0.01916  0.058627  0  3.940548  0
C  C176  1  0.36541656  0.93772687  0.97845254  1  0.002541  0  -0.070049  -0.131614  0  3.915562  0
C  C177  1  0.43573131  0.92377059  0.95269749  1  0.440219  0  0.044887  0.085793  0  3.929753  0
C  C178  1  0.41426533  0.81274107  0.97989825  1  0.422965  0  0.0486  0.09476  0  3.917298  0
C  C179  1  0.34315928  0.82259675  0.00658869  1  0.055456  0  -0.066492  -0.129621  0  3.902052  0
C  C180  1  0.65073748  0.48433431  0.80318181  1  1.084304  0  0.264677  0.384756  0  3.986162  0
C  C181  1  0.61283126  0.38593420  0.74379763  1  1.116902  0  0.263936  0.38319  0  4.010854  0
C  C182  1  0.49111170  0.40953263  0.77980604  1  1.11786  0  0.26085  0.376631  0  4.026943  0
C  C183  1  0.38424533  0.39274267  0.78040816  1  -0.033548  0  0.021309  0.06061  0  3.930296  0
C  C184  1  0.31614273  0.32433744  0.75407114  1  -0.018864  0  -0.068902  -0.135033  0  3.909249  0
C  C185  1  0.21707874  0.31146179  0.75250005  1  0.503487  0  0.043724  0.084102  0  3.937247  0
C  C186  1  0.24843005  0.42823660  0.80107598  1  0.473737  0  0.054291  0.097805  0  3.907621  0
C  C187  1  0.34906817  0.44529854  0.80456473  1  -0.002811  0  -0.065733  -0.133894  0  3.900787  0
C  C188  1  0.72666482  0.54748783  0.83482107  1  -0.060299  0  0.014131  0.046359  0  3.943705  0
C  C189  1  0.82673001  0.56922427  0.82764242  1  0.010807  0  -0.076552  -0.134908  0  3.920822  0
C  C190  1  0.89682425  0.62804711  0.85795388  1  0.484831  0  0.045053  0.092316  0  3.916992  0
C  C191  1  0.77589980  0.64331274  0.90164966  1  0.450831  0  0.049731  0.101323  0  3.905488  0
C  C192  1  0.70116991  0.58616124  0.87246355  1  0.031587  0  -0.068176  -0.126613  0  3.911791  0
C  C193  1  0.64234339  0.34015033  0.70706939  1  0.013323  0  0.014754  0.049471  0  3.938869  0
C  C194  1  0.56956699  0.28367816  0.67615489  1  0.014099  0  -0.0736  -0.130263  0  3.917231  0
C  C195  1  0.59709586  0.23961650  0.64235414  1  0.475879  0  0.046303  0.09751  0  3.918452  0
C  C196  1  0.76240783  0.30513409  0.66669190  1  0.492715  0  0.048525  0.09895  0  3.900561  0
C  C197  1  0.74097417  0.35117776  0.70200537  1  -0.081365  0  -0.073843  -0.138607  0  3.905066  0
C  C198  1  0.85451437  0.03564765  0.94538811  1  1.103472  0  0.263124  0.380584  0  4.01774  0
C  C199  1  0.75942669  0.10247433  0.96683014  1  1.119201  0  0.263151  0.377395  0  4.009306  0
C  C200  1  0.86081890  0.13443625  0.91284334  1  1.131096  0  0.261619  0.380573  0  4.02728  0
C  C201  1  0.88074168  0.96817739  0.94586076  1  0.008075  0  0.017808  0.053715  0  3.950712  0
C  C202  1  0.87796930  0.93753967  0.98355991  1  -0.013592  0  -0.071512  -0.137612  0  3.927893  0
C  C203  1  0.90369560  0.87395859  0.98156936  1  0.474968  0  0.045759  0.099792  0  3.920153  0
C  C204  1  0.92978130  0.86860067  0.90774800  1  0.466978  0  0.045098  0.097569  0  3.92946  0
C  C205  1  0.90615987  0.93229426  0.90710648  1  -0.00761  0  -0.069605  -0.130997  0  3.90674  0
C  C206  1  0.90238628  0.18346786  0.88010333  1  -0.023121  0  0.022971  0.068674  0  3.930833  0
C  C207  1  0.85282423  0.22455233  0.86481574  1  0.034153  0  -0.0623  -0.124035  0  3.894702  0
C  C208  1  0.89385060  0.26843435  0.83336943  1  0.431167  0  0.052453  0.098333  0  3.919584  0
C  C209  1  0.02834220  0.23407844  0.83214140  1  0.451197  0  0.048354  0.090218  0  3.933946  0
C  C210  1  0.99216061  0.18869566  0.86331626  1  0.018461  0  -0.06827  -0.129981  0  3.920865  0
C  C211  1  0.68268525  0.11407391  0.99423681  1  -0.029465  0  0.019087  0.058692  0  3.940386  0
C  C212  1  0.63458453  0.06227499  0.02154604  1  0.002497  0  -0.070046  -0.131706  0  3.915749  0
C  C213  1  0.56426746  0.07623068  0.04729910  1  0.439952  0  0.044894  0.085831  0  3.929782  0
C  C214  1  0.58573905  0.18726195  0.02010046  1  0.42411  0  0.048587  0.094767  0  3.917297  0
C  C215  1  0.65683715  0.17739985  0.99340674  1  0.054637  0  -0.066405  -0.1296  0  3.902022  0
C  C216  1  0.83361727  0.48442472  0.30318721  1  1.098926  0  0.264755  0.385579  0  3.986723  0
C  C217  1  0.77308411  0.38601767  0.24381481  1  1.11292  0  0.264966  0.384704  0  4.011201  0
C  C218  1  0.91839710  0.40961082  0.27981453  1  1.099258  0  0.261058  0.376599  0  4.026467  0
C  C219  1  0.00848112  0.39283702  0.28042338  1  0.039533  0  0.021039  0.060173  0  3.930025  0
C  C220  1  0.00814118  0.32441531  0.25410623  1  -0.063046  0  -0.068752  -0.134731  0  3.909617  0
C  C221  1  0.09432846  0.31156369  0.25252204  1  0.466917  0  0.043999  0.083699  0  3.936497  0
C  C222  1  0.17982510  0.42845498  0.30102990  1  0.463709  0  0.05436  0.098144  0  3.90902  0
C  C223  1  0.09627540  0.44550117  0.30452134  1  -0.016052  0  -0.065743  -0.134441  0  3.901031  0
C  C224  1  0.82082278  0.54762413  0.33478380  1  0.013699  0  0.014111  0.046152  0  3.945815  0
C  C225  1  0.74250444  0.56932456  0.32761471  1  -0.039491  0  -0.077  -0.135829  0  3.923357  0
C  C226  1  0.73120512  0.62811958  0.35792693  1  0.478449  0  0.045444  0.093716  0  3.91683  0
C  C227  1  0.86733966  0.64340085  0.40162073  1  0.458915  0  0.049605  0.102226  0  3.905598  0
C  C228  1  0.88494895  0.58628614  0.37242974  1  0.033708  0  -0.068222  -0.126622  0  3.912452  0
C  C229  1  0.69781782  0.34024677  0.20707530  1  -0.028866  0  0.014005  0.049054  0  3.936762  0
C  C230  1  0.71423953  0.28386349  0.17613729  1  -0.026866  0  -0.073076  -0.130438  0  3.916193  0
C  C231  1  0.64268785  0.23977932  0.14231762  1  0.492392  0  0.045861  0.0972  0  3.919152  0
C  C232  1  0.54291293  0.30532981  0.16661951  1  0.4996  0  0.048499  0.097957  0  3.903596  0
C  C233  1  0.61030722  0.35133809  0.20196271  1  -0.049919  0  -0.07325  -0.137943  0  3.905513  0
C  C234  1  0.18125781  0.03573225  0.44535206  1  1.119908  0  0.263775  0.381779  0  4.018048  0
C  C235  1  0.34320217  0.10259373  0.46673556  1  1.109338  0  0.262815  0.377925  0  4.012025  0
C  C236  1  0.27372110  0.13455801  0.41279817  1  1.150266  0  0.261513  0.380274  0  4.026505  0
C  C237  1  0.08753748  0.96826500  0.44590345  1  -0.027302  0  0.017213  0.052911  0  3.951644  0
C  C238  1  0.05974022  0.93772104  0.48363701  1  0.0087  0  -0.071722  -0.137286  0  3.927693  0
C  C239  1  0.97036117  0.87416519  0.48169977  1  0.438879  0  0.046149  0.099425  0  3.919441  0
C  C240  1  0.93874102  0.86870134  0.40788608  1  0.451045  0  0.044853  0.097093  0  3.928376  0
C  C241  1  0.02611733  0.93236101  0.40719256  1  0.025734  0  -0.069368  -0.131165  0  3.906311  0
C  C242  1  0.28106547  0.18357246  0.38006500  1  -0.050946  0  0.023176  0.069492  0  3.929398  0
C  C243  1  0.37171113  0.22466528  0.36473473  1  0.052692  0  -0.062993  -0.126021  0  3.893898  0
C  C244  1  0.37458127  0.26853315  0.33329497  1  0.505123  0  0.053269  0.101138  0  3.917889  0
C  C245  1  0.20567582  0.23404607  0.33207527  1  0.449604  0  0.048889  0.090648  0  3.936427  0
C  C246  1  0.19649003  0.18871863  0.36327180  1  0.016817  0  -0.068223  -0.130023  0  3.920916  0
C  C247  1  0.43146026  0.11419149  0.49416169  1  0.030552  0  0.018676  0.056858  0  3.944192  0
C  C248  1  0.42753843  0.06238978  0.52147959  1  -0.043748  0  -0.0703  -0.130864  0  3.917134  0
C  C249  1  0.51169485  0.07627230  0.54727236  1  0.475219  0  0.044967  0.08647  0  3.929057  0
C  C250  1  0.60156203  0.18731698  0.52011898  1  0.457165  0  0.04804  0.093617  0  3.917551  0
C  C251  1  0.52072433  0.17749591  0.49338242  1  -0.029156  0  -0.065775  -0.128126  0  3.901354  0
I  I252  1  0.72911533  0.75601414  0.80656258  1  -0.505151  0  -0.25467  -0.423127  0  1.370057  0
I  I253  1  0.53761991  0.54168627  0.70607855  1  -0.527969  0  -0.256154  -0.422128  0  1.330819  0
I  I254  1  0.62799695  0.94593160  0.86813678  1  -0.521942  0  -0.296292  -0.425666  0  1.247101  0
I  I255  1  0.63115778  0.76173444  0.94714812  1  -0.52863  0  -0.280323  -0.44275  0  1.287599  0
I  I256  1  0.24687176  0.29653478  0.48633134  1  -0.521478  0  -0.298739  -0.44074  0  1.202264  0
I  I257  1  0.34015552  0.20333611  0.59753481  1  -0.544415  0  -0.278408  -0.458727  0  1.29754  0
I  I258  1  0.02707216  0.75601867  0.30654674  1  -0.505841  0  -0.254675  -0.423009  0  1.370169  0
I  I259  1  0.00392362  0.54168923  0.20596581  1  -0.528141  0  -0.256201  -0.421954  0  1.330604  0
I  I260  1  0.31835861  0.94605524  0.36808858  1  -0.522313  0  -0.296512  -0.42566  0  1.245437  0
I  I261  1  0.13049442  0.76171234  0.44699221  1  -0.52956  0  -0.280045  -0.442253  0  1.288869  0
I  I262  1  0.04978218  0.29643088  0.98631379  1  -0.522243  0  -0.298779  -0.440875  0  1.202541  0
I  I263  1  0.86300219  0.20324829  0.09746395  1  -0.545442  0  -0.27834  -0.458617  0  1.297795  0
I  I264  1  0.97292754  0.24397095  0.69345849  1  -0.505864  0  -0.254672  -0.423024  0  1.370119  0
I  I265  1  0.99608027  0.45831147  0.79403231  1  -0.528136  0  -0.256194  -0.421995  0  1.330647  0
I  I266  1  0.68164015  0.05394195  0.63191237  1  -0.522311  0  -0.296498  -0.425642  0  1.24549  0
I  I267  1  0.86950143  0.23828310  0.55300694  1  -0.529529  0  -0.280061  -0.442274  0  1.288886  0
I  I268  1  0.95020844  0.70356222  0.01368285  1  -0.522202  0  -0.298792  -0.440877  0  1.202402  0
I  I269  1  0.13699809  0.79674248  0.90253564  1  -0.54542  0  -0.278354  -0.458643  0  1.297839  0
I  I270  1  0.27088188  0.24398539  0.19343638  1  -0.50518  0  -0.254678  -0.423105  0  1.370007  0
I  I271  1  0.46237230  0.45832084  0.29391998  1  -0.528041  0  -0.25615  -0.422129  0  1.330829  0
I  I272  1  0.37200228  0.05406383  0.13185563  1  -0.52191  0  -0.296258  -0.425615  0  1.247158  0
I  I273  1  0.36884222  0.23825982  0.05284288  1  -0.528609  0  -0.280332  -0.442719  0  1.287589  0
I  I274  1  0.75312568  0.70347467  0.51367354  1  -0.521481  0  -0.298728  -0.44074  0  1.202237  0
I  I275  1  0.65984296  0.79666458  0.40246588  1  -0.544405  0  -0.278421  -0.458754  0  1.29754  0
N  N276  1  0.23647911  0.55324592  0.73004666  1  -1.194741  0  -0.294522  -0.387974  0  3.211405  0
N  N277  1  0.15206110  0.63610534  0.75183031  1  -1.169018  0  -0.299242  -0.389195  0  3.230067  0
N  N278  1  0.08637442  0.53109388  0.69066038  1  -1.169149  0  -0.298922  -0.393187  0  3.190094  0
N  N279  1  0.20778707  0.33578722  0.60552971  1  -1.262891  0  -0.323101  -0.181895  0  3.559643  0
N  N280  1  0.44169403  0.75012709  0.86243823  1  -1.253886  0  -0.322715  -0.18426  0  3.554755  0
N  N281  1  0.82098965  0.63729930  0.72451941  1  -1.258534  0  -0.323494  -0.187563  0  3.560372  0
N  N282  1  0.81522768  0.92097903  0.58463061  1  -1.189892  0  -0.301148  -0.399734  0  3.227112  0
N  N283  1  0.64384759  0.85340209  0.56368730  1  -1.172399  0  -0.296563  -0.392421  0  3.22555  0
N  N284  1  0.74330970  0.95210206  0.52637911  1  -1.181905  0  -0.295308  -0.39013  0  3.208965  0
N  N285  1  0.08928289  0.15919468  0.55536909  1  -1.252876  0  -0.329481  -0.191297  0  3.571445  0
N  N286  1  0.70695715  0.72680328  0.68286962  1  -1.238294  0  -0.326292  -0.188402  0  3.583012  0
N  N287  1  0.40288512  0.86213861  0.45318735  1  -1.255641  0  -0.326221  -0.194633  0  3.565644  0
N  N288  1  0.31684322  0.55333561  0.23006506  1  -1.195149  0  -0.294674  -0.387957  0  3.209857  0
N  N289  1  0.48416794  0.63619307  0.25184267  1  -1.198641  0  -0.298926  -0.388404  0  3.229745  0
N  N290  1  0.44482196  0.53120419  0.19065886  1  -1.163304  0  -0.298208  -0.392518  0  3.190536  0
N  N291  1  0.12811331  0.33584374  0.10550668  1  -1.250384  0  -0.323345  -0.180762  0  3.557817  0
N  N292  1  0.30840876  0.75029933  0.36238910  1  -1.245716  0  -0.323147  -0.185085  0  3.553422  0
N  N293  1  0.81650677  0.63747624  0.22450132  1  -1.271481  0  -0.323455  -0.188213  0  3.562684  0
N  N294  1  0.10571200  0.92104094  0.08459390  1  -1.177382  0  -0.300925  -0.399785  0  3.226585  0
N  N295  1  0.20955206  0.85355074  0.06360555  1  -1.195072  0  -0.297114  -0.392053  0  3.224473  0
N  N296  1  0.20877111  0.95221818  0.02630950  1  -1.15579  0  -0.295914  -0.39033  0  3.205959  0
N  N297  1  0.07004424  0.15933848  0.05551922  1  -1.249008  0  -0.329571  -0.191314  0  3.571484  0
N  N298  1  0.01990806  0.72683707  0.18280827  1  -1.23573  0  -0.32569  -0.186489  0  3.580757  0
N  N299  1  0.45942730  0.86215966  0.95319151  1  -1.260663  0  -0.326394  -0.194276  0  3.566531  0
N  N300  1  0.68315737  0.44665983  0.76993633  1  -1.196217  0  -0.294736  -0.388094  0  3.209889  0
N  N301  1  0.51583681  0.36380530  0.74816097  1  -1.199498  0  -0.298821  -0.388195  0  3.229843  0
N  N302  1  0.55518068  0.46879942  0.80933928  1  -1.163344  0  -0.298185  -0.392505  0  3.190642  0
N  N303  1  0.87189215  0.66416279  0.89449081  1  -1.250812  0  -0.323291  -0.180773  0  3.557949  0
N  N304  1  0.69158989  0.24969495  0.63761505  1  -1.24498  0  -0.323197  -0.18522  0  3.553606  0
N  N305  1  0.18349624  0.36252271  0.77550175  1  -1.271411  0  -0.323403  -0.188198  0  3.562766  0
N  N306  1  0.89429208  0.07896151  0.91540410  1  -1.177263  0  -0.300866  -0.399721  0  3.226759  0
N  N307  1  0.79044748  0.14644937  0.93639123  1  -1.195019  0  -0.297204  -0.392176  0  3.224518  0
N  N308  1  0.79123046  0.04778192  0.97368856  1  -1.155521  0  -0.29586  -0.390212  0  3.206012  0
N  N309  1  0.92994667  0.84065520  0.94447685  1  -1.249346  0  -0.329569  -0.191212  0  3.571369  0
N  N310  1  0.98009690  0.27316713  0.81719153  1  -1.235394  0  -0.325662  -0.186328  0  3.580616  0
N  N311  1  0.54057214  0.13784161  0.04680636  1  -1.260931  0  -0.326395  -0.194176  0  3.566365  0
N  N312  1  0.76352498  0.44675653  0.26995134  1  -1.194648  0  -0.294498  -0.387914  0  3.211353  0
N  N313  1  0.84793910  0.36389069  0.24817083  1  -1.16905  0  -0.299071  -0.388982  0  3.230065  0
N  N314  1  0.91362251  0.46890506  0.30933883  1  -1.169352  0  -0.298953  -0.393294  0  3.190056  0
N  N315  1  0.79220482  0.66421114  0.39446880  1  -1.262681  0  -0.323216  -0.182105  0  3.559747  0
N  N316  1  0.55831238  0.24987594  0.13755919  1  -1.2537  0  -0.32275  -0.184474  0  3.554569  0
N  N317  1  0.17900572  0.36269790  0.27548282  1  -1.258059  0  -0.323434  -0.187443  0  3.560277  0
N  N318  1  0.18477390  0.07902518  0.41537336  1  -1.190109  0  -0.301239  -0.399884  0  3.227361  0
N  N319  1  0.35615378  0.14659627  0.43631185  1  -1.172585  0  -0.29652  -0.392425  0  3.225401  0
N  N320  1  0.25668638  0.04790331  0.47362403  1  -1.181147  0  -0.295384  -0.390217  0  3.208965  0
N  N321  1  0.91071375  0.84080777  0.44463405  1  -1.252832  0  -0.329377  -0.191149  0  3.571434  0
N  N322  1  0.29304510  0.27320091  0.31712793  1  -1.238089  0  -0.326227  -0.188364  0  3.582915  0
N  N323  1  0.59711210  0.13786093  0.54681707  1  -1.255623  0  -0.326176  -0.194462  0  3.565317  0
