# generated using pymatgen
data_NaZnPH2(CO3)2
_symmetry_space_group_name_H-M   'P 1'
_cell_length_a   9.68088321
_cell_length_b   10.19723038
_cell_length_c   10.81296808
_cell_angle_alpha   89.99995959
_cell_angle_beta   89.99995682
_cell_angle_gamma   89.99997799
_symmetry_Int_Tables_number   1
_chemical_formula_structural   NaZnPH2(CO3)2
_chemical_formula_sum   'Na8 Zn8 P8 H16 C16 O48'
_cell_volume   1067.43670559
_cell_formula_units_Z   8
loop_
 _symmetry_equiv_pos_site_id
 _symmetry_equiv_pos_as_xyz
  1  'x, y, z'
loop_
 _atom_site_type_symbol
 _atom_site_label
 _atom_site_symmetry_multiplicity
 _atom_site_fract_x
 _atom_site_fract_y
 _atom_site_fract_z
 _atom_site_occupancy
 _atom_site_pbe_bader_spin_density
 _atom_site_pbe_cm5_charge
 _atom_site_pbe_ddec_charge
 _atom_site_pbe_ddec_spin_density
 _atom_site_pbe_ddec_sum_bond_order
 _atom_site_pbe_magmom
Na  Na0  1  0.08447133  0.62360151  0.42250355  1  0  0.750254  0.870094  0  0.550557  0
Na  Na1  1  0.91552850  0.87639824  0.92250374  1  0  0.750256  0.870098  0  0.550566  0
Na  Na2  1  0.58447239  0.37639717  0.07749551  1  0  0.750277  0.870123  0  0.550522  0
Na  Na3  1  0.41552690  0.12360190  0.57749621  1  0  0.750268  0.870124  0  0.550514  0
Na  Na4  1  0.91552772  0.37639790  0.57749503  1  0  0.750266  0.870113  0  0.550533  0
Na  Na5  1  0.08447261  0.12360214  0.07749577  1  0  0.750275  0.870126  0  0.550526  0
Na  Na6  1  0.41552872  0.62360224  0.92250399  1  0  0.750254  0.870099  0  0.550563  0
Na  Na7  1  0.58447111  0.87639751  0.42250330  1  0  0.750251  0.870099  0  0.550556  0
Zn  Zn8  1  0.91605649  0.82214049  0.60578406  1  0  0.712626  1.069275  0  2.18306  0
Zn  Zn9  1  0.08394257  0.67785950  0.10578476  1  0  0.712625  1.069286  0  2.183062  0
Zn  Zn10  1  0.41605770  0.17785965  0.89421589  1  0  0.712623  1.069236  0  2.183017  0
Zn  Zn11  1  0.58394236  0.32214114  0.39421616  1  0  0.712619  1.069236  0  2.183041  0
Zn  Zn12  1  0.08394152  0.17785892  0.39421545  1  0  0.712645  1.069304  0  2.182995  0
Zn  Zn13  1  0.91605751  0.32214089  0.89421567  1  0  0.712635  1.069269  0  2.182956  0
Zn  Zn14  1  0.58394238  0.82214074  0.10578455  1  0  0.712615  1.069264  0  2.183061  0
Zn  Zn15  1  0.41605669  0.67785925  0.60578428  1  0  0.712615  1.069252  0  2.18308  0
P  P16  1  0.72092461  0.59608802  0.46175252  1  0  0.29837  1.277957  0  5.43775  0
P  P17  1  0.27907519  0.90391072  0.96175312  1  0  0.298385  1.278001  0  5.437706  0
P  P18  1  0.22092396  0.40390766  0.03825016  1  0  0.29836  1.277936  0  5.437706  0
P  P19  1  0.77907536  0.09609242  0.53824970  1  0  0.298375  1.278014  0  5.437646  0
P  P20  1  0.27907650  0.40390844  0.53824884  1  0  0.298412  1.278082  0  5.437669  0
P  P21  1  0.72092489  0.09609261  0.03825009  1  0  0.298343  1.277939  0  5.437718  0
P  P22  1  0.77907509  0.59608881  0.96175212  1  0  0.298397  1.277979  0  5.437706  0
P  P23  1  0.22092368  0.90390993  0.46175166  1  0  0.298401  1.278038  0  5.437844  0
H  H24  1  0.82363120  0.78452160  0.25026377  1  0  0.312709  0.372282  0  0.964787  0
H  H25  1  0.17636878  0.71547730  0.75026271  1  0  0.312711  0.372286  0  0.964775  0
H  H26  1  0.32363251  0.21547698  0.24973698  1  0  0.312717  0.372291  0  0.964747  0
H  H27  1  0.67636767  0.28452293  0.74973832  1  0  0.312712  0.372296  0  0.964747  0
H  H28  1  0.17636681  0.21547878  0.74973759  1  0  0.312701  0.372294  0  0.964737  0
H  H29  1  0.82363337  0.28452211  0.24973772  1  0  0.312703  0.372282  0  0.964757  0
H  H30  1  0.67636860  0.78452242  0.75026345  1  0  0.31271  0.372284  0  0.964778  0
H  H31  1  0.32363138  0.71547746  0.25026304  1  0  0.312718  0.372284  0  0.964775  0
H  H32  1  0.77775940  0.56525717  0.24249356  1  0  0.129473  0.13309  0  1.000791  0
H  H33  1  0.22224058  0.93474173  0.74249418  1  0  0.129479  0.133101  0  1.000787  0
H  H34  1  0.27775855  0.43474339  0.25750630  1  0  0.129493  0.133126  0  1.000765  0
H  H35  1  0.72224162  0.06525750  0.75750590  1  0  0.129496  0.133116  0  1.000793  0
H  H36  1  0.22224275  0.43474517  0.75750595  1  0  0.129506  0.13313  0  1.000765  0
H  H37  1  0.77775846  0.06525572  0.25750626  1  0  0.129497  0.133144  0  1.00075  0
H  H38  1  0.72223946  0.56525798  0.74249413  1  0  0.12947  0.13309  0  1.000792  0
H  H39  1  0.27775949  0.93474191  0.24249361  1  0  0.129473  0.133096  0  1.000799  0
C  C40  1  0.70335190  0.62724165  0.29265925  1  0  -0.021401  -0.228257  0  3.924617  0
C  C41  1  0.29664804  0.87275722  0.79265894  1  0  -0.021404  -0.22825  0  3.924596  0
C  C42  1  0.20335628  0.37275600  0.20733881  1  0  -0.021419  -0.228257  0  3.924653  0
C  C43  1  0.79664497  0.12724394  0.70733924  1  0  -0.021432  -0.228271  0  3.924676  0
C  C44  1  0.29664405  0.37275776  0.70733840  1  0  -0.021413  -0.228271  0  3.924572  0
C  C45  1  0.70335617  0.12724317  0.20733872  1  0  -0.021427  -0.228326  0  3.924633  0
C  C46  1  0.79664793  0.62724242  0.79265885  1  0  -0.021411  -0.228269  0  3.924621  0
C  C47  1  0.20335201  0.87275742  0.29265842  1  0  -0.021445  -0.228331  0  3.924723  0
C  C48  1  0.55534270  0.59207724  0.26015205  1  0  0.216788  0.603838  0  4.193628  0
C  C49  1  0.44465727  0.90792263  0.76015161  1  0  0.216795  0.603849  0  4.193607  0
C  C50  1  0.05534394  0.40791360  0.23985351  1  0  0.216731  0.603831  0  4.193478  0
C  C51  1  0.94465625  0.09208436  0.73985109  1  0  0.216715  0.603833  0  4.193547  0
C  C52  1  0.44465738  0.40791433  0.73985300  1  0  0.216689  0.603757  0  4.19365  0
C  C53  1  0.55534384  0.09208658  0.23985344  1  0  0.216722  0.603813  0  4.193548  0
C  C54  1  0.94465614  0.59207698  0.76015155  1  0  0.216785  0.603828  0  4.193643  0
C  C55  1  0.05534280  0.90792289  0.26015119  1  0  0.216781  0.603827  0  4.193682  0
O  O56  1  0.86285791  0.64698808  0.50475730  1  0  -0.44331  -0.830922  0  2.280518  0
O  O57  1  0.13714124  0.85301100  0.00475785  1  0  -0.443328  -0.83095  0  2.280501  0
O  O58  1  0.36285896  0.35301208  0.99524361  1  0  -0.443327  -0.830951  0  2.28054  0
O  O59  1  0.63714204  0.14699059  0.49524304  1  0  -0.443324  -0.830963  0  2.280562  0
O  O60  1  0.13714217  0.35300937  0.49524314  1  0  -0.443331  -0.830964  0  2.280503  0
O  O61  1  0.86285884  0.14698840  0.99524351  1  0  -0.443324  -0.830954  0  2.280569  0
O  O62  1  0.63714215  0.64698929  0.00475682  1  0  -0.44333  -0.830928  0  2.280511  0
O  O63  1  0.36285700  0.85301078  0.50475647  1  0  -0.443306  -0.830919  0  2.280533  0
O  O64  1  0.71403063  0.44623654  0.47936198  1  0  -0.438367  -0.806675  0  2.323378  0
O  O65  1  0.28596935  0.05376320  0.97936188  1  0  -0.438357  -0.806668  0  2.323346  0
O  O66  1  0.21403097  0.55376699  0.02064070  1  0  -0.438382  -0.80672  0  2.32337  0
O  O67  1  0.78596817  0.94623404  0.52063908  1  0  -0.438387  -0.806746  0  2.323316  0
O  O68  1  0.28596944  0.55376580  0.52063753  1  0  -0.438432  -0.806787  0  2.323351  0
O  O69  1  0.71403176  0.94623326  0.02064040  1  0  -0.438372  -0.806704  0  2.323285  0
O  O70  1  0.78596911  0.44623732  0.97936251  1  0  -0.438376  -0.806676  0  2.323367  0
O  O71  1  0.21402985  0.05376242  0.47935951  1  0  -0.438416  -0.806763  0  2.323486  0
O  O72  1  0.60061633  0.67311972  0.51727660  1  0  -0.445366  -0.802011  0  2.369273  0
O  O73  1  0.39938384  0.82688033  0.01727699  1  0  -0.445368  -0.802038  0  2.369308  0
O  O74  1  0.10061637  0.32688151  0.98272541  1  0  -0.445333  -0.802018  0  2.369422  0
O  O75  1  0.89938361  0.17311921  0.48272464  1  0  -0.44535  -0.802054  0  2.36937  0
O  O76  1  0.39938375  0.32687968  0.48272476  1  0  -0.445317  -0.802021  0  2.369424  0
O  O77  1  0.60061624  0.17311908  0.98272529  1  0  -0.445327  -0.801992  0  2.369377  0
O  O78  1  0.89938371  0.67311986  0.01727688  1  0  -0.445375  -0.802036  0  2.369274  0
O  O79  1  0.10061647  0.82688019  0.51727672  1  0  -0.445356  -0.802004  0  2.369281  0
O  O80  1  0.72246894  0.76352081  0.26468816  1  0  -0.419389  -0.521326  0  2.508269  0
O  O81  1  0.27753103  0.73647905  0.76468795  1  0  -0.419393  -0.521337  0  2.50832  0
O  O82  1  0.22246922  0.23647879  0.23531082  1  0  -0.419383  -0.521342  0  2.508422  0
O  O83  1  0.77753097  0.26352114  0.73531210  1  0  -0.419363  -0.521328  0  2.508402  0
O  O84  1  0.27753114  0.23647957  0.73531135  1  0  -0.419388  -0.521356  0  2.508275  0
O  O85  1  0.72247009  0.26352133  0.23531156  1  0  -0.41936  -0.521296  0  2.508322  0
O  O86  1  0.77753085  0.76352062  0.76468777  1  0  -0.419389  -0.521332  0  2.508292  0
O  O87  1  0.22246911  0.73647925  0.26468741  1  0  -0.419361  -0.521262  0  2.508364  0
O  O88  1  0.51435989  0.47439332  0.26827106  1  0  -0.356214  -0.603478  0  2.353969  0
O  O89  1  0.48563925  0.02560658  0.76827085  1  0  -0.356218  -0.603478  0  2.353949  0
O  O90  1  0.01436006  0.52561420  0.23172713  1  0  -0.356237  -0.603527  0  2.353634  0
O  O91  1  0.98564200  0.97438471  0.73172720  1  0  -0.35625  -0.603552  0  2.353678  0
O  O92  1  0.48564226  0.52561393  0.73172660  1  0  -0.356259  -0.603532  0  2.353643  0
O  O93  1  0.51435877  0.97438596  0.23172774  1  0  -0.356266  -0.603534  0  2.353588  0
O  O94  1  0.98563796  0.47439305  0.76827053  1  0  -0.356224  -0.603474  0  2.353964  0
O  O95  1  0.01436014  0.02560587  0.26827045  1  0  -0.356217  -0.603489  0  2.354084  0
O  O96  1  0.47810697  0.68715994  0.22713059  1  0  -0.296187  -0.533817  0  2.374719  0
O  O97  1  0.52189303  0.81283995  0.72713108  1  0  -0.29619  -0.533837  0  2.374743  0
O  O98  1  0.97811306  0.31284447  0.27286544  1  0  -0.2961  -0.533813  0  2.375087  0
O  O99  1  0.02188814  0.18715347  0.77286451  1  0  -0.296069  -0.533777  0  2.375045  0
O  O100  1  0.52188794  0.31284535  0.77286522  1  0  -0.296045  -0.533731  0  2.375187  0
O  O101  1  0.47811222  0.18715553  0.27286473  1  0  -0.296069  -0.533759  0  2.375137  0
O  O102  1  0.02189219  0.68715886  0.72713037  1  0  -0.296171  -0.533825  0  2.374787  0
O  O103  1  0.97810678  0.81284006  0.22713038  1  0  -0.296166  -0.533811  0  2.374683  0
