# generated using pymatgen
data_CaP2H6C4(N3O4)2
_symmetry_space_group_name_H-M   'P 1'
_cell_length_a   5.27580025
_cell_length_b   10.10716240
_cell_length_c   11.97337335
_cell_angle_alpha   103.17728839
_cell_angle_beta   89.99998229
_cell_angle_gamma   89.99995866
_symmetry_Int_Tables_number   1
_chemical_formula_structural   CaP2H6C4(N3O4)2
_chemical_formula_sum   'Ca2 P4 H12 C8 N12 O16'
_cell_volume   621.64952929
_cell_formula_units_Z   2
loop_
 _symmetry_equiv_pos_site_id
 _symmetry_equiv_pos_as_xyz
  1  'x, y, z'
loop_
 _atom_site_type_symbol
 _atom_site_label
 _atom_site_symmetry_multiplicity
 _atom_site_fract_x
 _atom_site_fract_y
 _atom_site_fract_z
 _atom_site_occupancy
 _atom_site_hle17_bader_spin_density
 _atom_site_hle17_ddec_charge
 _atom_site_hle17_ddec_spin_density
 _atom_site_hle17_ddec_sum_bond_order
 _atom_site_hle17_magmom
 _atom_site_hse06_10hf_bader_spin_density
 _atom_site_hse06_10hf_ddec_charge
 _atom_site_hse06_10hf_ddec_spin_density
 _atom_site_hse06_10hf_ddec_sum_bond_order
 _atom_site_hse06_10hf_magmom
 _atom_site_hse06_bader_spin_density
 _atom_site_hse06_ddec_charge
 _atom_site_hse06_ddec_spin_density
 _atom_site_hse06_ddec_sum_bond_order
 _atom_site_hse06_magmom
 _atom_site_pbe_bader_spin_density
 _atom_site_pbe_cm5_charge
 _atom_site_pbe_ddec_charge
 _atom_site_pbe_ddec_spin_density
 _atom_site_pbe_ddec_sum_bond_order
 _atom_site_pbe_magmom
Ca  Ca0  1  0.50000083  0.99999939  0.99999954  1  0  1.594583  0  1.117216  0  0  1.46525  0  1.475637  0  0  1.503716  0  1.432835  0  0  0.943926  1.436186  0  1.50649  0
Ca  Ca1  1  0.99999943  0.50000004  0.50000062  1  0  1.594597  0  1.117198  0  0  1.46527  0  1.475622  0  0  1.503734  0  1.432824  0  0  0.943941  1.436205  0  1.506475  0
P  P2  1  0.50947679  0.45837149  0.29386642  1  0  1.650037  0  4.764901  0  0  1.466428  0  5.284522  0  0  1.520981  0  5.243355  0  0  0.515737  1.428171  0  5.312555  0
P  P3  1  0.00947713  0.04162865  0.20613342  1  0  1.649894  0  4.765038  0  0  1.466265  0  5.284678  0  0  1.520824  0  5.24352  0  0  0.515658  1.42801  0  5.312708  0
P  P4  1  0.49052212  0.54162779  0.70613391  1  0  1.649961  0  4.764974  0  0  1.466356  0  5.284588  0  0  1.520906  0  5.243431  0  0  0.515725  1.4281  0  5.312621  0
P  P5  1  0.99052367  0.95837165  0.79386626  1  0  1.650007  0  4.764886  0  0  1.466389  0  5.284505  0  0  1.520935  0  5.243353  0  0  0.515705  1.428133  0  5.312542  0
H  H6  1  0.40078223  0.68192052  0.28312777  1  0  0.377337  0  0.84992  0  0  0.352459  0  0.916099  0  0  0.362188  0  0.907071  0  0  0.330073  0.345456  0  0.922746  0
H  H7  1  0.90078214  0.81808088  0.21687215  1  0  0.377356  0  0.849908  0  0  0.352488  0  0.916069  0  0  0.362217  0  0.907041  0  0  0.330095  0.345487  0  0.922715  0
H  H8  1  0.59921668  0.31807978  0.71687275  1  0  0.377332  0  0.849972  0  0  0.352438  0  0.916172  0  0  0.36218  0  0.907125  0  0  0.330078  0.345437  0  0.922818  0
H  H9  1  0.09921867  0.18191942  0.78312670  1  0  0.37733  0  0.849919  0  0  0.352427  0  0.916127  0  0  0.362171  0  0.90708  0  0  0.330087  0.345429  0  0.922769  0
H  H10  1  0.08394338  0.40632199  0.01062776  1  0  0.33502  0  0.91177  0  0  0.307987  0  0.984759  0  0  0.318233  0  0.975949  0  0  0.312211  0.300852  0  0.990875  0
H  H11  1  0.58394340  0.09367812  0.48937290  1  0  0.335036  0  0.911695  0  0  0.307991  0  0.984685  0  0  0.318231  0  0.975881  0  0  0.312196  0.300856  0  0.990802  0
H  H12  1  0.91605743  0.59367831  0.98937276  1  0  0.335023  0  0.911699  0  0  0.307989  0  0.984677  0  0  0.318222  0  0.975878  0  0  0.312198  0.300853  0  0.990794  0
H  H13  1  0.41605740  0.90632218  0.51062762  1  0  0.335011  0  0.911712  0  0  0.307987  0  0.984682  0  0  0.318218  0  0.975885  0  0  0.3122  0.300849  0  0.990801  0
H  H14  1  0.66863766  0.25985824  0.16396018  1  0  0.366137  0  0.886863  0  0  0.344612  0  0.949367  0  0  0.354019  0  0.941258  0  0  0.323153  0.337912  0  0.955193  0
H  H15  1  0.16863574  0.24014184  0.33603963  1  0  0.366098  0  0.886955  0  0  0.344614  0  0.9494  0  0  0.354026  0  0.941287  0  0  0.323137  0.337912  0  0.955232  0
H  H16  1  0.33136314  0.74014104  0.83604015  1  0  0.36611  0  0.886954  0  0  0.344606  0  0.949423  0  0  0.354012  0  0.941315  0  0  0.323146  0.337907  0  0.955251  0
H  H17  1  0.83136317  0.75985847  0.66396006  1  0  0.366133  0  0.886888  0  0  0.344604  0  0.949397  0  0  0.354013  0  0.941288  0  0  0.323148  0.337903  0  0.955226  0
C  C18  1  0.20885129  0.55895815  0.14940905  1  0  0.823537  0  3.812927  0  0  0.745554  0  4.124493  0  0  0.78279  0  4.116851  0  0  0.357914  0.720186  0  4.12897  0
C  C19  1  0.70885283  0.94104027  0.35059115  1  0  0.823579  0  3.812938  0  0  0.745566  0  4.124509  0  0  0.782804  0  4.116866  0  0  0.357919  0.720199  0  4.128986  0
C  C20  1  0.79114952  0.44104113  0.85059043  1  0  0.823603  0  3.812863  0  0  0.745537  0  4.124494  0  0  0.782813  0  4.116812  0  0  0.357848  0.720172  0  4.128965  0
C  C21  1  0.29114988  0.05895799  0.64940981  1  0  0.823549  0  3.812924  0  0  0.745464  0  4.12458  0  0  0.782732  0  4.11691  0  0  0.357829  0.720102  0  4.129048  0
C  C22  1  0.37423871  0.32353559  0.08121701  1  0  0.821382  0  3.848116  0  0  0.7482  0  4.150555  0  0  0.785409  0  4.142424  0  0  0.359425  0.722765  0  4.155656  0
C  C23  1  0.87423298  0.17646643  0.41878398  1  0  0.821418  0  3.848212  0  0  0.748236  0  4.150608  0  0  0.78545  0  4.142477  0  0  0.359409  0.722802  0  4.155708  0
C  C24  1  0.62576399  0.67646369  0.91878331  1  0  0.821512  0  3.848117  0  0  0.74827  0  4.150596  0  0  0.785485  0  4.142461  0  0  0.359429  0.722835  0  4.155701  0
C  C25  1  0.12576214  0.82353489  0.58121674  1  0  0.821408  0  3.848175  0  0  0.7482  0  4.150605  0  0  0.785418  0  4.142472  0  0  0.35941  0.722766  0  4.155706  0
N  N26  1  0.37235819  0.58261920  0.23976145  1  0  -0.755642  0  3.113499  0  0  -0.679178  0  3.376598  0  0  -0.705662  0  3.367525  0  0  -0.411939  -0.660761  0  3.382572  0
N  N27  1  0.87235982  0.91737916  0.26023789  1  0  -0.755644  0  3.11347  0  0  -0.679191  0  3.376582  0  0  -0.705674  0  3.367508  0  0  -0.41196  -0.660776  0  3.382558  0
N  N28  1  0.62764262  0.41737907  0.76023868  1  0  -0.755612  0  3.113444  0  0  -0.679177  0  3.376593  0  0  -0.705642  0  3.36747  0  0  -0.411916  -0.660759  0  3.382564  0
N  N29  1  0.12764288  0.08262013  0.73976160  1  0  -0.755543  0  3.113374  0  0  -0.679092  0  3.37655  0  0  -0.705559  0  3.367435  0  0  -0.411896  -0.660678  0  3.382519  0
N  N30  1  0.20401612  0.42730995  0.08170866  1  0  -0.592993  0  3.198469  0  0  -0.530227  0  3.448741  0  0  -0.556022  0  3.445659  0  0  -0.393309  -0.512531  0  3.450346  0
N  N31  1  0.70401812  0.07269011  0.41829114  1  0  -0.593127  0  3.198476  0  0  -0.530274  0  3.448657  0  0  -0.556072  0  3.44558  0  0  -0.393305  -0.512577  0  3.450261  0
N  N32  1  0.79598279  0.57269035  0.91829103  1  0  -0.593109  0  3.198455  0  0  -0.53022  0  3.44864  0  0  -0.556029  0  3.445575  0  0  -0.393273  -0.512523  0  3.450245  0
N  N33  1  0.29598269  0.92731019  0.58170854  1  0  -0.593076  0  3.198513  0  0  -0.530209  0  3.448702  0  0  -0.556018  0  3.445641  0  0  -0.393278  -0.512511  0  3.450307  0
N  N34  1  0.54276286  0.34005089  0.16904968  1  0  -0.77387  0  3.132181  0  0  -0.699298  0  3.390956  0  0  -0.725886  0  3.382627  0  0  -0.424947  -0.68089  0  3.396561  0
N  N35  1  0.04276106  0.15994924  0.33095099  1  0  -0.77383  0  3.132225  0  0  -0.699298  0  3.390944  0  0  -0.725912  0  3.382634  0  0  -0.424971  -0.680889  0  3.396549  0
N  N36  1  0.45723794  0.65994839  0.83095064  1  0  -0.773886  0  3.132311  0  0  -0.699328  0  3.391084  0  0  -0.725919  0  3.382758  0  0  -0.424966  -0.680918  0  3.396692  0
N  N37  1  0.95723785  0.84005106  0.66904953  1  0  -0.773866  0  3.13217  0  0  -0.699285  0  3.390932  0  0  -0.725886  0  3.382617  0  0  -0.424952  -0.680876  0  3.39654  0
O  O38  1  0.07130244  0.64772135  0.12327185  1  0  -0.592095  0  1.899345  0  0  -0.539631  0  2.113796  0  0  -0.561318  0  2.10315  0  0  -0.282474  -0.524825  0  2.121226  0
O  O39  1  0.57130597  0.85228019  0.37672814  1  0  -0.592067  0  1.899422  0  0  -0.539627  0  2.113918  0  0  -0.561305  0  2.103252  0  0  -0.282477  -0.524821  0  2.121348  0
O  O40  1  0.92869837  0.35227895  0.87672783  1  0  -0.592156  0  1.899377  0  0  -0.539567  0  2.113762  0  0  -0.561372  0  2.103191  0  0  -0.28246  -0.524769  0  2.121198  0
O  O41  1  0.42869862  0.14772113  0.62327174  1  0  -0.592161  0  1.899396  0  0  -0.539578  0  2.113811  0  0  -0.561352  0  2.103212  0  0  -0.282469  -0.524779  0  2.121244  0
O  O42  1  0.36780187  0.22032692  0.00084479  1  0  -0.657071  0  1.901644  0  0  -0.602748  0  2.137663  0  0  -0.625452  0  2.125747  0  0  -0.346457  -0.586887  0  2.145799  0
O  O43  1  0.86779973  0.27967307  0.49915497  1  0  -0.657059  0  1.901734  0  0  -0.60274  0  2.137743  0  0  -0.625442  0  2.125826  0  0  -0.346434  -0.586882  0  2.14588  0
O  O44  1  0.63220083  0.77967338  0.99915489  1  0  -0.657106  0  1.90163  0  0  -0.602775  0  2.137669  0  0  -0.625478  0  2.125754  0  0  -0.346456  -0.586913  0  2.145808  0
O  O45  1  0.13219918  0.72032723  0.50084472  1  0  -0.65706  0  1.901687  0  0  -0.602738  0  2.137704  0  0  -0.625445  0  2.125791  0  0  -0.34644  -0.586878  0  2.14584  0
O  O46  1  0.32457215  0.40482600  0.36950130  1  0  -0.913535  0  1.903069  0  0  -0.834047  0  2.165406  0  0  -0.862125  0  2.145837  0  0  -0.395121  -0.813635  0  2.178321  0
O  O47  1  0.82457432  0.09517401  0.13049930  1  0  -0.913457  0  1.903061  0  0  -0.833955  0  2.165409  0  0  -0.862032  0  2.145838  0  0  -0.395091  -0.813544  0  2.178322  0
O  O48  1  0.67542676  0.59517430  0.63049922  1  0  -0.913487  0  1.903048  0  0  -0.833996  0  2.165392  0  0  -0.862071  0  2.145825  0  0  -0.395112  -0.813584  0  2.178307  0
O  O49  1  0.17542649  0.90482629  0.86950121  1  0  -0.913508  0  1.903037  0  0  -0.834013  0  2.165382  0  0  -0.862079  0  2.145811  0  0  -0.3951  -0.813602  0  2.178297  0
O  O50  1  0.76516497  0.50331131  0.34049018  1  0  -0.885535  0  1.87896  0  0  -0.812784  0  2.147199  0  0  -0.839031  0  2.126397  0  0  -0.416226  -0.793952  0  2.161496  0
O  O51  1  0.26516661  0.99668912  0.15951040  1  0  -0.885472  0  1.879011  0  0  -0.812702  0  2.14724  0  0  -0.838949  0  2.126437  0  0  -0.416156  -0.793872  0  2.16154  0
O  O52  1  0.23483394  0.49668899  0.65951033  1  0  -0.885483  0  1.878971  0  0  -0.81273  0  2.147207  0  0  -0.838973  0  2.126401  0  0  -0.416206  -0.7939  0  2.161506  0
O  O53  1  0.73483420  0.00331118  0.84048928  1  0  -0.885542  0  1.878969  0  0  -0.812781  0  2.147204  0  0  -0.839023  0  2.126398  0  0  -0.416207  -0.79395  0  2.161505  0
