# generated using pymatgen
data_CdH16C17N3ClO3
_symmetry_space_group_name_H-M   'P 1'
_cell_length_a   9.92303280
_cell_length_b   10.66656916
_cell_length_c   11.24982060
_cell_angle_alpha   64.55540627
_cell_angle_beta   84.35243972
_cell_angle_gamma   73.48629628
_symmetry_Int_Tables_number   1
_chemical_formula_structural   CdH16C17N3ClO3
_chemical_formula_sum   'Cd2 H32 C34 N6 Cl2 O6'
_cell_volume   1030.49598339
_cell_formula_units_Z   2
loop_
 _symmetry_equiv_pos_site_id
 _symmetry_equiv_pos_as_xyz
  1  'x, y, z'
loop_
 _atom_site_type_symbol
 _atom_site_label
 _atom_site_symmetry_multiplicity
 _atom_site_fract_x
 _atom_site_fract_y
 _atom_site_fract_z
 _atom_site_occupancy
 _atom_site_hle17_bader_spin_density
 _atom_site_hle17_ddec_charge
 _atom_site_hle17_ddec_spin_density
 _atom_site_hle17_ddec_sum_bond_order
 _atom_site_hle17_magmom
 _atom_site_hse06_10hf_bader_spin_density
 _atom_site_hse06_10hf_ddec_charge
 _atom_site_hse06_10hf_ddec_spin_density
 _atom_site_hse06_10hf_ddec_sum_bond_order
 _atom_site_hse06_10hf_magmom
 _atom_site_hse06_bader_spin_density
 _atom_site_hse06_ddec_charge
 _atom_site_hse06_ddec_spin_density
 _atom_site_hse06_ddec_sum_bond_order
 _atom_site_hse06_magmom
 _atom_site_pbe_bader_spin_density
 _atom_site_pbe_cm5_charge
 _atom_site_pbe_ddec_charge
 _atom_site_pbe_ddec_spin_density
 _atom_site_pbe_ddec_sum_bond_order
 _atom_site_pbe_magmom
Cd  Cd0  1  0.98086932  0.32624714  0.11436300  1  0  1.055986  0  1.809315  0  0  0.891896  0  2.261681  0  0  0.943518  0  2.214639  0  0  0.677546  0.856294  0  2.292573  0
Cd  Cd1  1  0.01913597  0.67374113  0.88564592  1  0  1.055994  0  1.809333  0  0  0.891917  0  2.261642  0  0  0.94352  0  2.214643  0  0  0.677539  0.856313  0  2.292534  0
H  H2  1  0.71425054  0.63682135  0.03912109  1  0  0.113319  0  0.963625  0  0  0.117704  0  1.035233  0  0  0.121054  0  1.030884  0  0  0.134137  0.114768  0  1.039482  0
H  H3  1  0.28575615  0.36317250  0.96087837  1  0  0.113278  0  0.963708  0  0  0.117689  0  1.035297  0  0  0.121034  0  1.030955  0  0  0.134157  0.114753  0  1.039546  0
H  H4  1  0.76411353  0.10984200  0.20785579  1  0  0.125979  0  0.928193  0  0  0.139269  0  0.980629  0  0  0.142457  0  0.979041  0  0  0.114306  0.136822  0  0.982038  0
H  H5  1  0.23587374  0.89015208  0.79214216  1  0  0.125925  0  0.928209  0  0  0.139197  0  0.980673  0  0  0.142385  0  0.979086  0  0  0.114275  0.13675  0  0.98208  0
H  H6  1  0.55885880  0.01066015  0.31107727  1  0  0.085825  0  0.94629  0  0  0.100715  0  0.9984  0  0  0.103325  0  0.997706  0  0  0.100708  0.09879  0  0.999176  0
H  H7  1  0.44112742  0.98934331  0.68892778  1  0  0.085813  0  0.946243  0  0  0.100725  0  0.998334  0  0  0.103333  0  0.997637  0  0  0.100728  0.098801  0  0.99911  0
H  H8  1  0.33158693  0.17231978  0.33139425  1  0  0.096421  0  0.951476  0  0  0.111732  0  1.004751  0  0  0.114138  0  1.004174  0  0  0.104235  0.109682  0  1.005739  0
H  H9  1  0.66840190  0.82768909  0.66860660  1  0  0.096457  0  0.951639  0  0  0.111782  0  1.004898  0  0  0.114189  0  1.004317  0  0  0.104259  0.109731  0  1.005885  0
H  H10  1  0.29887635  0.43237678  0.25576331  1  0  0.110602  0  0.979114  0  0  0.119283  0  1.042221  0  0  0.12261  0  1.040166  0  0  0.097627  0.117548  0  1.042736  0
H  H11  1  0.70111893  0.56763341  0.74422652  1  0  0.11067  0  0.979064  0  0  0.119254  0  1.042269  0  0  0.122582  0  1.040213  0  0  0.097612  0.11752  0  1.042783  0
H  H12  1  0.25370871  0.63447656  0.10150400  1  0  0.10841  0  0.993135  0  0  0.114074  0  1.06348  0  0  0.11698  0  1.062408  0  0  0.096658  0.112073  0  1.064013  0
H  H13  1  0.74629420  0.36552634  0.89847808  1  0  0.108423  0  0.993204  0  0  0.114054  0  1.063582  0  0  0.11696  0  1.062508  0  0  0.096633  0.112054  0  1.064112  0
H  H14  1  0.09211501  0.86177504  0.09290572  1  0  0.117931  0  0.941917  0  0  0.124315  0  1.00434  0  0  0.128109  0  1.001361  0  0  0.10803  0.121583  0  1.006609  0
H  H15  1  0.90789393  0.13822622  0.90709413  1  0  0.117941  0  0.941842  0  0  0.124336  0  1.004247  0  0  0.128126  0  1.001276  0  0  0.108051  0.12161  0  1.006526  0
H  H16  1  0.44199363  0.00547237  0.13022026  1  0  0.099561  0  0.963925  0  0  0.106707  0  1.030816  0  0  0.109397  0  1.03004  0  0  0.102782  0.105003  0  1.031234  0
H  H17  1  0.55801421  0.99451463  0.86979510  1  0  0.099568  0  0.964099  0  0  0.106731  0  1.030967  0  0  0.109425  0  1.030189  0  0  0.102805  0.105025  0  1.03139  0
H  H18  1  0.60712276  0.77413670  0.14563293  1  0  0.109666  0  0.942095  0  0  0.122594  0  0.995857  0  0  0.125664  0  0.994655  0  0  0.109101  0.120148  0  0.997599  0
H  H19  1  0.39288454  0.22585495  0.85436910  1  0  0.109634  0  0.94207  0  0  0.122545  0  0.995861  0  0  0.125614  0  0.99466  0  0  0.109097  0.1201  0  0.997601  0
H  H20  1  0.84916179  0.39888170  0.36112370  1  0  0.029305  0  0.936515  0  0  0.035264  0  1.011288  0  0  0.037845  0  1.005007  0  0  0.107718  0.033021  0  1.016293  0
H  H21  1  0.15084261  0.60112169  0.63887759  1  0  0.02927  0  0.936637  0  0  0.035265  0  1.011365  0  0  0.03783  0  1.005105  0  0  0.10769  0.033021  0  1.016373  0
H  H22  1  0.66842388  0.29908756  0.63412091  1  0  0.094206  0  0.979675  0  0  0.110073  0  1.049407  0  0  0.109376  0  1.052775  0  0  0.097494  0.110645  0  1.046877  0
H  H23  1  0.33156701  0.70092041  0.36587385  1  0  0.094213  0  0.979686  0  0  0.110066  0  1.049425  0  0  0.10937  0  1.052793  0  0  0.097482  0.110639  0  1.046895  0
H  H24  1  0.55614009  0.32612140  0.50538244  1  0  0.092594  0  0.93156  0  0  0.112336  0  0.994394  0  0  0.112818  0  0.994879  0  0  0.100132  0.111861  0  0.994285  0
H  H25  1  0.44385598  0.67388559  0.49460768  1  0  0.092628  0  0.931577  0  0  0.112364  0  0.994415  0  0  0.112847  0  0.994905  0  0  0.100139  0.111888  0  0.994308  0
H  H26  1  0.66947580  0.44018615  0.47352673  1  0  0.096747  0  0.931263  0  0  0.118675  0  0.990722  0  0  0.119436  0  0.989962  0  0  0.107404  0.117943  0  0.991568  0
H  H27  1  0.33051761  0.55982393  0.52646781  1  0  0.09679  0  0.931292  0  0  0.118722  0  0.990726  0  0  0.119484  0  0.989966  0  0  0.10741  0.11799  0  0.991573  0
H  H28  1  0.75760143  0.04273987  0.65229356  1  0  0.098956  0  0.966424  0  0  0.118282  0  1.030726  0  0  0.11797  0  1.032143  0  0  0.102653  0.118385  0  1.029787  0
H  H29  1  0.24239646  0.95726899  0.34770451  1  0  0.098929  0  0.966443  0  0  0.118202  0  1.030771  0  0  0.11789  0  1.032189  0  0  0.102636  0.118309  0  1.029827  0
H  H30  1  0.86755057  0.01721652  0.52479136  1  0  0.129252  0  0.94484  0  0  0.145525  0  1.007636  0  0  0.14812  0  1.004982  0  0  0.112356  0.143483  0  1.009704  0
H  H31  1  0.13244630  0.98279236  0.47520683  1  0  0.129231  0  0.944768  0  0  0.145451  0  1.007618  0  0  0.148045  0  1.004963  0  0  0.112331  0.143401  0  1.009696  0
H  H32  1  0.67991484  0.07047894  0.50310398  1  0  0.084414  0  0.957566  0  0  0.103057  0  1.026756  0  0  0.102433  0  1.028558  0  0  0.096754  0.103289  0  1.025816  0
H  H33  1  0.32008261  0.92952775  0.49689589  1  0  0.084399  0  0.95757  0  0  0.103001  0  1.026761  0  0  0.102375  0  1.028566  0  0  0.096755  0.103234  0  1.02582  0
C  C34  1  0.67126596  0.54429661  0.08971380  1  0  0.209788  0  3.624672  0  0  0.146161  0  3.899993  0  0  0.163871  0  3.909981  0  0  0.160894  0.13371  0  3.894251  0
C  C35  1  0.32873545  0.45569743  0.91028083  1  0  0.209801  0  3.624696  0  0  0.146162  0  3.899977  0  0  0.163871  0  3.909966  0  0  0.160906  0.133712  0  3.894236  0
C  C36  1  0.64419679  0.32722553  0.17339769  1  0  0.141195  0  3.82853  0  0  0.13671  0  4.080076  0  0  0.13981  0  4.104068  0  0  0.081318  0.134169  0  4.064097  0
C  C37  1  0.35580270  0.67276845  0.82659985  1  0  0.141383  0  3.828285  0  0  0.136782  0  4.079942  0  0  0.139884  0  4.103934  0  0  0.081391  0.13424  0  4.063964  0
C  C38  1  0.66318755  0.17896315  0.21804794  1  0  -0.126468  0  3.720417  0  0  -0.146246  0  3.970859  0  0  -0.14813  0  3.990655  0  0  -0.085256  -0.144551  0  3.957221  0
C  C39  1  0.33680711  0.82103404  0.78195064  1  0  -0.12635  0  3.72031  0  0  -0.146071  0  3.970766  0  0  -0.147955  0  3.990564  0  0  -0.085168  -0.144377  0  3.95713  0
C  C40  1  0.54867527  0.12559961  0.27545762  1  0  -0.083698  0  3.798551  0  0  -0.099114  0  4.056075  0  0  -0.101494  0  4.077579  0  0  -0.097408  -0.09791  0  4.041232  0
C  C41  1  0.45131480  0.87440398  0.72454161  1  0  -0.083731  0  3.798606  0  0  -0.099174  0  4.056128  0  0  -0.10155  0  4.077626  0  0  -0.097497  -0.097972  0  4.041286  0
C  C42  1  0.41997577  0.21693236  0.28885855  1  0  -0.059414  0  3.776008  0  0  -0.0788  0  4.033092  0  0  -0.079577  0  4.054434  0  0  -0.094346  -0.077038  0  4.018428  0
C  C43  1  0.58001637  0.78307119  0.71114137  1  0  -0.0596  0  3.776342  0  0  -0.079  0  4.033413  0  0  -0.079777  0  4.054753  0  0  -0.094376  -0.077237  0  4.018748  0
C  C44  1  0.40035146  0.36463824  0.24589625  1  0  -0.155502  0  3.767285  0  0  -0.175026  0  4.021899  0  0  -0.178934  0  4.042257  0  0  -0.099362  -0.172512  0  4.007421  0
C  C45  1  0.59964463  0.63536536  0.75410054  1  0  -0.155432  0  3.767198  0  0  -0.174879  0  4.021788  0  0  -0.178793  0  4.04215  0  0  -0.099342  -0.172367  0  4.007308  0
C  C46  1  0.51442830  0.41891420  0.18651503  1  0  0.102887  0  3.74038  0  0  0.093274  0  3.98631  0  0  0.097575  0  4.008249  0  0  0.088502  0.090471  0  3.971318  0
C  C47  1  0.48556986  0.58108088  0.81348132  1  0  0.102762  0  3.740523  0  0  0.093243  0  3.986357  0  0  0.097543  0  4.008297  0  0  0.088529  0.090441  0  3.971365  0
C  C48  1  0.44096489  0.68824504  0.12632613  1  0  0.191806  0  3.780012  0  0  0.182931  0  4.029749  0  0  0.190755  0  4.051249  0  0  0.097049  0.177581  0  4.014947  0
C  C49  1  0.55903570  0.31175646  0.87366832  1  0  0.191852  0  3.780088  0  0  0.182953  0  4.029837  0  0  0.190803  0  4.0513  0  0  0.097082  0.177604  0  4.015034  0
C  C50  1  0.29602716  0.71290999  0.11171143  1  0  -0.154882  0  3.72746  0  0  -0.175935  0  3.984737  0  0  -0.181478  0  4.004955  0  0  -0.092909  -0.171294  0  3.970014  0
C  C51  1  0.70397438  0.28709156  0.88828112  1  0  -0.154953  0  3.727637  0  0  -0.17595  0  3.984849  0  0  -0.181502  0  4.005062  0  0  -0.092955  -0.171309  0  3.97013  0
C  C52  1  0.20469712  0.84149563  0.10589243  1  0  -0.034247  0  3.699967  0  0  -0.057312  0  3.945007  0  0  -0.054726  0  3.962785  0  0  -0.074089  -0.059099  0  3.933112  0
C  C53  1  0.79531061  0.15850580  0.89410215  1  0  -0.03431  0  3.700045  0  0  -0.057377  0  3.945115  0  0  -0.054788  0  3.962891  0  0  -0.074107  -0.059189  0  3.933229  0
C  C54  1  0.25680921  0.94752509  0.11227582  1  0  -0.077687  0  3.768874  0  0  -0.051924  0  3.995785  0  0  -0.061302  0  4.018828  0  0  -0.020729  -0.045753  0  3.98038  0
C  C55  1  0.74320005  0.05246746  0.88773098  1  0  -0.077632  0  3.768837  0  0  -0.051928  0  3.995796  0  0  -0.061309  0  4.018839  0  0  -0.020686  -0.04573  0  3.980354  0
C  C56  1  0.40230714  0.92242835  0.12541972  1  0  -0.061666  0  3.762218  0  0  -0.084379  0  4.009492  0  0  -0.082584  0  4.029607  0  0  -0.083844  -0.085307  0  3.996067  0
C  C57  1  0.59770107  0.07756423  0.87458629  1  0  -0.061616  0  3.762485  0  0  -0.084346  0  4.009769  0  0  -0.082553  0  4.029888  0  0  -0.08384  -0.085281  0  3.996332  0
C  C58  1  0.49439620  0.79320117  0.13373334  1  0  -0.166549  0  3.755046  0  0  -0.184297  0  4.00604  0  0  -0.190075  0  4.026375  0  0  -0.094166  -0.181057  0  3.99322  0
C  C59  1  0.50561289  0.20679151  0.86626898  1  0  -0.166542  0  3.755253  0  0  -0.184271  0  4.006281  0  0  -0.190057  0  4.026607  0  0  -0.094194  -0.181033  0  3.993457  0
C  C60  1  0.15862166  0.08444344  0.10904033  1  0  0.618696  0  3.945744  0  0  0.571415  0  4.233259  0  0  0.606094  0  4.227831  0  0  0.187065  0.548037  0  4.235545  0
C  C61  1  0.84138706  0.91554788  0.89097235  1  0  0.61868  0  3.945853  0  0  0.571457  0  4.23331  0  0  0.606141  0  4.227878  0  0  0.187202  0.548072  0  4.235586  0
C  C62  1  0.86162334  0.28178879  0.39739067  1  0  0.38848  0  3.843974  0  0  0.313277  0  4.132246  0  0  0.34099  0  4.134241  0  0  0.165819  0.294852  0  4.130006  0
C  C63  1  0.13837621  0.71821783  0.60261077  1  0  0.388456  0  3.844129  0  0  0.313241  0  4.132408  0  0  0.340962  0  4.134411  0  0  0.165795  0.294814  0  4.130168  0
C  C64  1  0.66005328  0.32971296  0.52811090  1  0  -0.168641  0  3.683625  0  0  -0.268858  0  3.931068  0  0  -0.265381  0  3.942896  0  0  -0.131288  -0.27103  0  3.922979  0
C  C65  1  0.33994289  0.67029395  0.47188191  1  0  -0.168795  0  3.683791  0  0  -0.269004  0  3.931236  0  0  -0.265519  0  3.943048  0  0  -0.131341  -0.271178  0  3.923148  0
C  C66  1  0.76883392  0.08160459  0.54551596  1  0  -0.168445  0  3.629884  0  0  -0.266347  0  3.871507  0  0  -0.262264  0  3.880793  0  0  -0.137417  -0.268704  0  3.865075  0
C  C67  1  0.23116470  0.91840535  0.45448161  1  0  -0.168354  0  3.629809  0  0  -0.266093  0  3.871416  0  0  -0.262009  0  3.880703  0  0  -0.137376  -0.268443  0  3.864984  0
N  N68  1  0.73862159  0.40934483  0.11302973  1  0  -0.438197  0  3.237098  0  0  -0.369027  0  3.518299  0  0  -0.392406  0  3.536218  0  0  -0.354551  -0.353563  0  3.505923  0
N  N69  1  0.26138196  0.59064573  0.88697403  1  0  -0.438226  0  3.236964  0  0  -0.369056  0  3.518245  0  0  -0.392433  0  3.536165  0  0  -0.354598  -0.353591  0  3.505869  0
N  N70  1  0.53551125  0.55741320  0.13240876  1  0  -0.144403  0  3.512814  0  0  -0.06205  0  3.731762  0  0  -0.079004  0  3.754155  0  0  -0.220437  -0.050876  0  3.716455  0
N  N71  1  0.46448747  0.44258396  0.86758939  1  0  -0.14438  0  3.513094  0  0  -0.062035  0  3.732009  0  0  -0.078993  0  3.754397  0  0  -0.220466  -0.050861  0  3.716702  0
N  N72  1  0.76997076  0.23231997  0.48929861  1  0  -0.085867  0  3.498114  0  0  0.020851  0  3.728077  0  0  0.000515  0  3.7537  0  0  -0.280289  0.034597  0  3.710107  0
N  N73  1  0.23002761  0.76768680  0.51069846  1  0  -0.085781  0  3.498197  0  0  0.020897  0  3.728136  0  0  0.000563  0  3.753757  0  0  -0.280222  0.034645  0  3.710163  0
Cl  Cl74  1  0.02212793  0.53458116  0.15014094  1  0  -0.587629  0  0.923354  0  0  -0.525404  0  1.180125  0  0  -0.543856  0  1.157129  0  0  -0.310695  -0.512456  0  1.195571  0
Cl  Cl75  1  0.97787067  0.46541358  0.84986706  1  0  -0.587622  0  0.923365  0  0  -0.525389  0  1.180132  0  0  -0.543844  0  1.157139  0  0  -0.310679  -0.512436  0  1.195568  0
O  O76  1  0.02661970  0.09747077  0.11372567  1  0  -0.61255  0  1.936677  0  0  -0.553076  0  2.168514  0  0  -0.581086  0  2.159143  0  0  -0.328003  -0.533533  0  2.174137  0
O  O77  1  0.97338710  0.90252722  0.88627748  1  0  -0.612535  0  1.936742  0  0  -0.553071  0  2.168543  0  0  -0.581077  0  2.159174  0  0  -0.328068  -0.533526  0  2.174162  0
O  O78  1  0.21090968  0.18303435  0.10523785  1  0  -0.643039  0  1.970982  0  0  -0.583298  0  2.214579  0  0  -0.61277  0  2.207106  0  0  -0.334416  -0.562452  0  2.219588  0
O  O79  1  0.78909917  0.81695350  0.89478419  1  0  -0.643097  0  1.971029  0  0  -0.58335  0  2.214578  0  0  -0.612828  0  2.207108  0  0  -0.334509  -0.562506  0  2.219586  0
O  O80  1  0.95353671  0.20622957  0.35306695  1  0  -0.533145  0  2.052126  0  0  -0.475034  0  2.299155  0  0  -0.49979  0  2.29254  0  0  -0.311104  -0.457625  0  2.302911  0
O  O81  1  0.04646039  0.79377489  0.64693651  1  0  -0.533142  0  2.052177  0  0  -0.47504  0  2.299223  0  0  -0.49979  0  2.292606  0  0  -0.311061  -0.457628  0  2.302979  0
