# generated using pymatgen
data_KLuH8(CO3)4
_symmetry_space_group_name_H-M   'P 1'
_cell_length_a   8.76276023
_cell_length_b   9.14083596
_cell_length_c   9.14082739
_cell_angle_alpha   76.71754377
_cell_angle_beta   61.35949366
_cell_angle_gamma   61.35899793
_symmetry_Int_Tables_number   1
_chemical_formula_structural   KLuH8(CO3)4
_chemical_formula_sum   'K2 Lu2 H16 C8 O24'
_cell_volume   563.95883940
_cell_formula_units_Z   2
loop_
 _symmetry_equiv_pos_site_id
 _symmetry_equiv_pos_as_xyz
  1  'x, y, z'
loop_
 _atom_site_type_symbol
 _atom_site_label
 _atom_site_symmetry_multiplicity
 _atom_site_fract_x
 _atom_site_fract_y
 _atom_site_fract_z
 _atom_site_occupancy
 _atom_site_hle17_bader_spin_density
 _atom_site_hle17_ddec_charge
 _atom_site_hle17_ddec_spin_density
 _atom_site_hle17_ddec_sum_bond_order
 _atom_site_hle17_magmom
 _atom_site_hse06_10hf_bader_spin_density
 _atom_site_hse06_10hf_ddec_charge
 _atom_site_hse06_10hf_ddec_spin_density
 _atom_site_hse06_10hf_ddec_sum_bond_order
 _atom_site_hse06_10hf_magmom
 _atom_site_hse06_bader_spin_density
 _atom_site_hse06_ddec_charge
 _atom_site_hse06_ddec_spin_density
 _atom_site_hse06_ddec_sum_bond_order
 _atom_site_hse06_magmom
 _atom_site_pbe_bader_spin_density
 _atom_site_pbe_cm5_charge
 _atom_site_pbe_ddec_charge
 _atom_site_pbe_ddec_spin_density
 _atom_site_pbe_ddec_sum_bond_order
 _atom_site_pbe_magmom
K  K0  1  0.12497194  0.75002319  0.75001074  1  0  0.920441  0  0.46476  0  0  0.86666  0  0.649881  0  0  0.882859  0  0.624736  0  0  0.777555  0.854116  0  0.668456  0
K  K1  1  0.87502852  0.24997713  0.24998910  1  0  0.920427  0  0.464752  0  0  0.866646  0  0.649863  0  0  0.882859  0  0.624714  0  0  0.777527  0.854109  0  0.668438  0
Lu  Lu2  1  0.62503939  0.75001476  0.75001426  1  0  1.748047  0  2.327224  0  0  1.574076  0  2.805465  0  0  1.634338  0  2.757611  0  0  1.325004  1.531792  0  2.837926  0
Lu  Lu3  1  0.37500548  0.25001005  0.25000925  1  0  1.748016  0  2.327092  0  0  1.574032  0  2.805377  0  0  1.634365  0  2.757445  0  0  1.32493  1.531826  0  2.837768  0
H  H4  1  0.35965471  0.40092558  0.58950792  1  0  0.409255  0  0.895064  0  0  0.378295  0  0.96004  0  0  0.389053  0  0.944054  0  0  0.29517  0.370746  0  0.971245  0
H  H5  1  0.85005974  0.09910411  0.91049934  1  0  0.409193  0  0.89517  0  0  0.378273  0  0.960066  0  0  0.389029  0  0.944088  0  0  0.295177  0.370731  0  0.97126  0
H  H6  1  0.94919158  0.41047329  0.90088089  1  0  0.409108  0  0.895277  0  0  0.378152  0  0.960234  0  0  0.388916  0  0.944238  0  0  0.29521  0.370612  0  0.971427  0
H  H7  1  0.76053876  0.08953075  0.59911370  1  0  0.409195  0  0.895134  0  0  0.37825  0  0.960074  0  0  0.389012  0  0.944081  0  0  0.295233  0.370705  0  0.971274  0
H  H8  1  0.64036250  0.59907075  0.41050563  1  0  0.409159  0  0.895206  0  0  0.378209  0  0.960163  0  0  0.388967  0  0.944178  0  0  0.295123  0.370661  0  0.971365  0
H  H9  1  0.14992709  0.90089075  0.08949177  1  0  0.409251  0  0.895084  0  0  0.37828  0  0.960078  0  0  0.389044  0  0.944081  0  0  0.295242  0.370734  0  0.971279  0
H  H10  1  0.05081671  0.58951480  0.09909402  1  0  0.409209  0  0.895168  0  0  0.378283  0  0.960068  0  0  0.389049  0  0.944069  0  0  0.295266  0.370739  0  0.971266  0
H  H11  1  0.23945379  0.91047550  0.40088739  1  0  0.409174  0  0.895149  0  0  0.37824  0  0.960072  0  0  0.389002  0  0.944078  0  0  0.295254  0.370696  0  0.971271  0
H  H12  1  0.50415494  0.32900014  0.67294912  1  0  0.427523  0  0.868886  0  0  0.398133  0  0.929955  0  0  0.408289  0  0.915021  0  0  0.288029  0.390952  0  0.940496  0
H  H13  1  0.00610803  0.17099882  0.82704872  1  0  0.427566  0  0.868784  0  0  0.398172  0  0.929863  0  0  0.408329  0  0.914925  0  0  0.288034  0.390992  0  0.940404  0
H  H14  1  0.17713529  0.32702931  0.82896249  1  0  0.427423  0  0.869003  0  0  0.39794  0  0.930211  0  0  0.408104  0  0.915263  0  0  0.287963  0.390775  0  0.940727  0
H  H15  1  0.83312764  0.17296531  0.67103763  1  0  0.427389  0  0.869036  0  0  0.39792  0  0.93023  0  0  0.40808  0  0.915285  0  0  0.287906  0.390747  0  0.940757  0
H  H16  1  0.49585691  0.67098796  0.32706567  1  0  0.427484  0  0.868916  0  0  0.398099  0  0.929963  0  0  0.408258  0  0.915022  0  0  0.288053  0.390927  0  0.940489  0
H  H17  1  0.99390054  0.82897692  0.17293492  1  0  0.427479  0  0.868892  0  0  0.398133  0  0.929909  0  0  0.408291  0  0.914971  0  0  0.288037  0.390959  0  0.940441  0
H  H18  1  0.82286630  0.67294098  0.17104607  1  0  0.427232  0  0.86924  0  0  0.397862  0  0.930276  0  0  0.408026  0  0.915327  0  0  0.287966  0.390696  0  0.940792  0
H  H19  1  0.16687188  0.82702763  0.32896595  1  0  0.427418  0  0.868985  0  0  0.397935  0  0.930197  0  0  0.408098  0  0.915249  0  0  0.287937  0.390766  0  0.940717  0
C  C20  1  0.60522058  0.98125486  0.97170348  1  0  0.562348  0  3.899005  0  0  0.510838  0  4.198123  0  0  0.54165  0  4.189053  0  0  0.232102  0.490062  0  4.20366  0
C  C21  1  0.05817349  0.51875873  0.52829994  1  0  0.562364  0  3.899015  0  0  0.510904  0  4.198075  0  0  0.541708  0  4.189017  0  0  0.232176  0.490112  0  4.203626  0
C  C22  1  0.57694070  0.02829262  0.48125019  1  0  0.562441  0  3.898946  0  0  0.510952  0  4.198005  0  0  0.541749  0  4.188948  0  0  0.232237  0.49016  0  4.20354  0
C  C23  1  0.58648221  0.47170968  0.01873904  1  0  0.56236  0  3.898743  0  0  0.510826  0  4.197848  0  0  0.541636  0  4.188766  0  0  0.232231  0.490047  0  4.203371  0
C  C24  1  0.39475872  0.01875405  0.02829262  1  0  0.562187  0  3.899141  0  0  0.510663  0  4.198289  0  0  0.541487  0  4.189212  0  0  0.232035  0.489891  0  4.203826  0
C  C25  1  0.94180008  0.48125430  0.47171236  1  0  0.562131  0  3.899158  0  0  0.510608  0  4.198274  0  0  0.541426  0  4.189212  0  0  0.232165  0.489843  0  4.203802  0
C  C26  1  0.42306144  0.97170177  0.51876086  1  0  0.561986  0  3.899381  0  0  0.510562  0  4.198362  0  0  0.541368  0  4.189288  0  0  0.232117  0.489785  0  4.203881  0
C  C27  1  0.41351277  0.52830528  0.98123961  1  0  0.562236  0  3.899047  0  0  0.510838  0  4.198011  0  0  0.541633  0  4.188947  0  0  0.232158  0.490045  0  4.203554  0
O  O28  1  0.36556073  0.39171571  0.69632544  1  0  -0.863072  0  1.803972  0  0  -0.812494  0  1.960843  0  0  -0.831023  0  1.929751  0  0  -0.621405  -0.799347  0  1.982494  0
O  O29  1  0.95359158  0.10828706  0.80368108  1  0  -0.86307  0  1.80397  0  0  -0.812503  0  1.960839  0  0  -0.831032  0  1.929745  0  0  -0.621486  -0.799357  0  1.982483  0
O  O30  1  0.06191881  0.30364558  0.89163297  1  0  -0.862829  0  1.804299  0  0  -0.812179  0  1.961245  0  0  -0.83074  0  1.930195  0  0  -0.621337  -0.798996  0  1.982802  0
O  O31  1  0.75721209  0.19635256  0.60835131  1  0  -0.862909  0  1.804107  0  0  -0.81229  0  1.961067  0  0  -0.830856  0  1.930026  0  0  -0.621347  -0.799105  0  1.982642  0
O  O32  1  0.63445295  0.60826730  0.30368811  1  0  -0.862892  0  1.804185  0  0  -0.812336  0  1.961063  0  0  -0.830873  0  1.929968  0  0  -0.621389  -0.799196  0  1.982702  0
O  O33  1  0.04641170  0.89168638  0.19631253  1  0  -0.863056  0  1.803913  0  0  -0.812506  0  1.960699  0  0  -0.831047  0  1.929601  0  0  -0.621537  -0.799372  0  1.982338  0
O  O34  1  0.93807769  0.69633778  0.10835938  1  0  -0.8628  0  1.804438  0  0  -0.812276  0  1.961281  0  0  -0.830817  0  1.930196  0  0  -0.621435  -0.799092  0  1.98284  0
O  O35  1  0.24279654  0.80364861  0.39164354  1  0  -0.862906  0  1.804115  0  0  -0.812296  0  1.961069  0  0  -0.830849  0  1.930016  0  0  -0.62139  -0.799106  0  1.982633  0
O  O36  1  0.73036817  0.87498923  0.85749877  1  0  -0.596351  0  2.113494  0  0  -0.543216  0  2.360937  0  0  -0.568118  0  2.353065  0  0  -0.380565  -0.526012  0  2.365896  0
O  O37  1  0.96286940  0.62502731  0.64249688  1  0  -0.596387  0  2.113621  0  0  -0.543195  0  2.360856  0  0  -0.568088  0  2.352992  0  0  -0.380532  -0.525981  0  2.365816  0
O  O38  1  0.58788595  0.14249579  0.37497596  1  0  -0.596298  0  2.113347  0  0  -0.543167  0  2.360663  0  0  -0.56806  0  2.352777  0  0  -0.380453  -0.525954  0  2.365595  0
O  O39  1  0.60535230  0.35751548  0.12501839  1  0  -0.596291  0  2.113311  0  0  -0.54316  0  2.360727  0  0  -0.568072  0  2.352839  0  0  -0.380401  -0.525964  0  2.365656  0
O  O40  1  0.26961079  0.12503155  0.14249234  1  0  -0.596276  0  2.113266  0  0  -0.543158  0  2.360729  0  0  -0.568066  0  2.352843  0  0  -0.38046  -0.525954  0  2.365654  0
O  O41  1  0.03713244  0.37498403  0.35750670  1  0  -0.596233  0  2.113342  0  0  -0.543154  0  2.360817  0  0  -0.56806  0  2.352939  0  0  -0.380461  -0.525958  0  2.365759  0
O  O42  1  0.41211908  0.85750659  0.62502886  1  0  -0.596136  0  2.11365  0  0  -0.543093  0  2.361082  0  0  -0.567979  0  2.353205  0  0  -0.380309  -0.525876  0  2.366001  0
O  O43  1  0.39463193  0.64250796  0.87497770  1  0  -0.596208  0  2.113459  0  0  -0.543123  0  2.360791  0  0  -0.56801  0  2.352915  0  0  -0.380335  -0.525895  0  2.365693  0
O  O44  1  0.63352368  0.06207062  0.04510158  1  0  -0.606743  0  2.10548  0  0  -0.541664  0  2.338244  0  0  -0.569083  0  2.330699  0  0  -0.339064  -0.522861  0  2.342966  0
O  O45  1  0.24069106  0.43794211  0.45489630  1  0  -0.606804  0  2.105435  0  0  -0.541738  0  2.338192  0  0  -0.569137  0  2.330641  0  0  -0.339273  -0.52292  0  2.342924  0
O  O46  1  0.67863102  0.95490958  0.56207591  1  0  -0.606909  0  2.105616  0  0  -0.541811  0  2.338367  0  0  -0.569226  0  2.330838  0  0  -0.339079  -0.522987  0  2.343094  0
O  O47  1  0.69561587  0.54509366  0.93790831  1  0  -0.606843  0  2.105406  0  0  -0.541744  0  2.338187  0  0  -0.569164  0  2.330639  0  0  -0.339094  -0.522909  0  2.342843  0
O  O48  1  0.36646950  0.93793539  0.95488828  1  0  -0.606763  0  2.105571  0  0  -0.54164  0  2.338359  0  0  -0.569053  0  2.330818  0  0  -0.339102  -0.522822  0  2.343087  0
O  O49  1  0.75928653  0.56207346  0.54511849  1  0  -0.60672  0  2.105554  0  0  -0.541619  0  2.338311  0  0  -0.569021  0  2.330776  0  0  -0.339246  -0.522787  0  2.343007  0
O  O50  1  0.32137128  0.04511036  0.43792766  1  0  -0.606643  0  2.105339  0  0  -0.5416  0  2.33809  0  0  -0.569006  0  2.330523  0  0  -0.339059  -0.52278  0  2.342795  0
O  O51  1  0.30439295  0.45490388  0.06207782  1  0  -0.6069  0  2.105396  0  0  -0.541822  0  2.338108  0  0  -0.569243  0  2.330567  0  0  -0.339085  -0.522995  0  2.342806  0
