# generated using pymatgen
data_CoPH28C39N5O7
_symmetry_space_group_name_H-M   'P 1'
_cell_length_a   8.62206803
_cell_length_b   18.71710332
_cell_length_c   23.76079885
_cell_angle_alpha   90.00013778
_cell_angle_beta   90.00021675
_cell_angle_gamma   89.99998391
_symmetry_Int_Tables_number   1
_chemical_formula_structural   CoPH28C39N5O7
_chemical_formula_sum   'Co4 P4 H112 C156 N20 O28'
_cell_volume   3834.52099880
_cell_formula_units_Z   4
loop_
 _symmetry_equiv_pos_site_id
 _symmetry_equiv_pos_as_xyz
  1  'x, y, z'
loop_
 _atom_site_type_symbol
 _atom_site_label
 _atom_site_symmetry_multiplicity
 _atom_site_fract_x
 _atom_site_fract_y
 _atom_site_fract_z
 _atom_site_occupancy
 _atom_site_pbe_bader_charge
 _atom_site_pbe_bader_spin_density
 _atom_site_pbe_cm5_charge
 _atom_site_pbe_ddec_charge
 _atom_site_pbe_ddec_spin_density
 _atom_site_pbe_ddec_sum_bond_order
 _atom_site_pbe_magmom
Co  Co0  1  0.70165348  0.47954797  0.34129081  1  1.279143  2.588466  0.654833  0.805019  2.835682  2.434492  2.569
Co  Co1  1  0.29834803  0.97954893  0.65871004  1  1.279232  2.588462  0.65485  0.805063  2.83568  2.434445  2.569
Co  Co2  1  0.79834635  0.47954820  0.84129132  1  1.279238  2.588471  0.654864  0.805126  2.835688  2.434354  2.569
Co  Co3  1  0.20165168  0.97954817  0.15870911  1  1.279274  2.588463  0.65485  0.80509  2.83568  2.434376  2.569
P  P4  1  0.47391954  0.13399491  0.59842604  1  2.717932  0.007015  0.261736  0.834518  0.006638  4.812532  0.009
P  P5  1  0.52608334  0.63399398  0.40157248  1  2.718048  0.007014  0.261792  0.834595  0.006637  4.812472  0.009
P  P6  1  0.02607774  0.13399364  0.09842613  1  2.71787  0.007015  0.261751  0.834546  0.006637  4.812655  0.009
P  P7  1  0.97392514  0.63399312  0.90157323  1  2.717698  0.007015  0.261827  0.834595  0.006637  4.812618  0.009
H  H8  1  0.05200194  0.45068939  0.34396743  1  0.08103  0.001261  0.113397  0.08006  0.000167  1.011063  0.001
H  H9  1  0.94800075  0.95068811  0.65603379  1  0.080983  0.001261  0.113418  0.080063  0.000167  1.011067  0.001
H  H10  1  0.44799887  0.45068692  0.84396604  1  0.080962  0.00126  0.113421  0.080028  0.000167  1.011064  0.001
H  H11  1  0.55200150  0.95068737  0.15603433  1  0.080957  0.001261  0.113407  0.080021  0.000167  1.011097  0.001
H  H12  1  0.26007537  0.44329037  0.41584689  1  0.116033  0.000745  0.107333  0.121336  0.00036  1.021678  0.0
H  H13  1  0.73992732  0.94328997  0.58415474  1  0.116064  0.000746  0.107299  0.121298  0.00036  1.021722  0.0
H  H14  1  0.23992387  0.44328846  0.91584437  1  0.116002  0.000746  0.107321  0.121358  0.00036  1.021689  0.0
H  H15  1  0.76007534  0.94328867  0.08415473  1  0.116009  0.000745  0.107342  0.121413  0.00036  1.021649  0.0
H  H16  1  0.91674676  0.49900213  0.54058646  1  0.132142  0.000589  0.107795  0.113003  0.000299  1.031429  0.0
H  H17  1  0.08325705  0.99900517  0.45941611  1  0.13246  0.000589  0.107815  0.11306  0.000299  1.031416  0.0
H  H18  1  0.58325340  0.49900032  0.04058495  1  0.132222  0.000589  0.107826  0.11306  0.000299  1.031413  0.0
H  H19  1  0.41674230  0.99900057  0.95941510  1  0.13239  0.000589  0.107823  0.113055  0.000299  1.031425  0.0
H  H20  1  0.72240667  0.50670781  0.46230361  1  0.119468  0.001478  0.114629  0.086847  0.000385  1.023878  0.001
H  H21  1  0.27759514  0.00671018  0.53769971  1  0.119449  0.001479  0.114643  0.086889  0.000385  1.023867  0.001
H  H22  1  0.77759209  0.50670750  0.96230157  1  0.11951  0.001479  0.114641  0.08685  0.000385  1.023829  0.001
H  H23  1  0.22240739  0.00670674  0.03769881  1  0.119511  0.001479  0.114654  0.086877  0.000385  1.023823  0.001
H  H24  1  0.41739877  0.43012763  0.48389772  1  0.111157  0.000201  0.106656  0.12323  9.9e-05  1.035132  0.0
H  H25  1  0.58260277  0.93012598  0.51610346  1  0.14571  0.000208  0.106658  0.123232  9.9e-05  1.035093  0.0
H  H26  1  0.08260235  0.43012308  0.98389626  1  0.145709  0.000208  0.106684  0.123289  9.9e-05  1.035154  0.0
H  H27  1  0.91739687  0.93012145  0.01610366  1  0.145756  0.000208  0.106674  0.123303  9.9e-05  1.035107  0.0
H  H28  1  0.45067364  0.41841135  0.66489418  1  0.082502  0.000145  0.105676  0.111881  9.3e-05  1.046452  0.0
H  H29  1  0.54932559  0.91841182  0.33510740  1  0.082195  0.000145  0.105678  0.111919  9.3e-05  1.046317  0.0
H  H30  1  0.04932416  0.41840794  0.16489177  1  0.081996  0.000145  0.105696  0.11194  9.3e-05  1.046291  0.0
H  H31  1  0.95067274  0.91841149  0.83510686  1  0.082106  0.000145  0.105689  0.111912  9.3e-05  1.046349  0.0
H  H32  1  0.27163458  0.38425180  0.73077691  1  0.095084  0.000702  0.112237  0.122475  0.000344  0.99057  0.0
H  H33  1  0.72836815  0.88425044  0.26922503  1  0.095131  0.000702  0.112225  0.122454  0.000344  0.990501  0.0
H  H34  1  0.22835929  0.38425371  0.23077769  1  0.09513  0.000702  0.112244  0.122457  0.000344  0.990656  0.0
H  H35  1  0.77163300  0.88425280  0.76922466  1  0.095109  0.000702  0.11221  0.122402  0.000344  0.990603  0.0
H  H36  1  0.10140903  0.39904536  0.81425716  1  0.13996  0.001154  0.117624  0.087073  0.000168  1.014718  0.001
H  H37  1  0.89859369  0.89904319  0.18574480  1  0.14013  0.001153  0.117609  0.087052  0.000168  1.014749  0.001
H  H38  1  0.39858570  0.39904618  0.31425945  1  0.139944  0.001154  0.117624  0.087067  0.000169  1.014646  0.001
H  H39  1  0.60140890  0.89904504  0.68574378  1  0.139989  0.001154  0.117611  0.087088  0.000169  1.014638  0.001
H  H40  1  0.86883121  0.56884604  0.74114835  1  0.118744  0.001147  0.120021  0.089519  0.000179  1.009661  0.001
H  H41  1  0.13116244  0.06884972  0.25885088  1  0.118667  0.001147  0.120026  0.089593  0.00018  1.009605  0.001
H  H42  1  0.63116520  0.56884690  0.24114732  1  0.118781  0.001146  0.120046  0.089551  0.000179  1.009622  0.001
H  H43  1  0.36883192  0.06884619  0.75885107  1  0.118756  0.001147  0.120035  0.089525  0.00018  1.009654  0.001
H  H44  1  0.01915524  0.55626496  0.65199251  1  0.099874  0.000675  0.112893  0.118553  0.000325  1.004994  0.0
H  H45  1  0.98084537  0.05626719  0.34800797  1  0.099819  0.000675  0.112897  0.118559  0.000325  1.005013  0.0
H  H46  1  0.48084466  0.55626363  0.15199027  1  0.099884  0.000675  0.1129  0.118541  0.000325  1.004949  0.0
H  H47  1  0.51914668  0.05626531  0.84800894  1  0.099836  0.000675  0.112894  0.118574  0.000325  1.004993  0.0
H  H48  1  0.59470082  0.34901091  0.48739008  1  0.097714  7.9e-05  0.098769  0.098406  3.8e-05  1.060125  0.0
H  H49  1  0.40530076  0.84901034  0.51261179  1  0.097619  7.9e-05  0.098819  0.098461  3.8e-05  1.060128  0.0
H  H50  1  0.90529597  0.34900631  0.98738610  1  0.097698  7.9e-05  0.09882  0.098396  3.8e-05  1.060105  0.0
H  H51  1  0.09470678  0.84900532  0.01260987  1  0.097802  7.9e-05  0.098761  0.09835  3.8e-05  1.060113  0.0
H  H52  1  0.85249282  0.29371601  0.48689232  1  0.050697  -5e-06  0.100707  0.101742  -2.2e-05  1.017479  0.0
H  H53  1  0.14750764  0.79371708  0.51310986  1  0.050785  -5e-06  0.100732  0.101835  -2.2e-05  1.017528  0.0
H  H54  1  0.64750516  0.29371465  0.98688842  1  0.050659  -5e-06  0.100718  0.101765  -2.2e-05  1.017649  0.0
H  H55  1  0.35249762  0.79371363  0.01310830  1  0.051162  -5e-06  0.100683  0.101651  -2.2e-05  1.017572  0.0
H  H56  1  0.93326664  0.37112728  0.65513006  1  0.083518  -4e-05  0.099041  0.097885  -6.7e-05  1.025619  0.0
H  H57  1  0.06672798  0.87112731  0.34487311  1  0.083347  -4e-05  0.09907  0.097963  -6.7e-05  1.025521  0.0
H  H58  1  0.56673016  0.37112494  0.15512557  1  0.083401  -4e-05  0.099074  0.098003  -6.7e-05  1.025493  0.0
H  H59  1  0.43326910  0.87112377  0.84487128  1  0.083473  -4e-05  0.099045  0.097917  -6.7e-05  1.025571  0.0
H  H60  1  0.68307605  0.43330198  0.65359338  1  0.110067  5.3e-05  0.097843  0.098205  7e-06  1.044161  0.0
H  H61  1  0.31691968  0.93330037  0.34640780  1  0.110169  5.3e-05  0.097852  0.098241  7e-06  1.044193  0.0
H  H62  1  0.81692417  0.43329693  0.15359135  1  0.110251  5.3e-05  0.097798  0.098209  8e-06  1.044147  0.0
H  H63  1  0.18307853  0.93329741  0.84640689  1  0.1102  5.3e-05  0.097803  0.098236  7e-06  1.044142  0.0
H  H64  1  0.14779649  0.31171031  0.49488359  1  0.090728  -2.2e-05  0.101542  0.104035  -3.8e-05  1.009502  0.0
H  H65  1  0.85219584  0.81170965  0.50511821  1  0.090678  -2.2e-05  0.101565  0.104095  -3.8e-05  1.009481  0.0
H  H66  1  0.35218510  0.31171319  0.99488165  1  0.090701  -2.2e-05  0.101557  0.104138  -3.8e-05  1.009325  0.0
H  H67  1  0.64781072  0.81171157  0.00511678  1  0.090773  -2.2e-05  0.10152  0.10407  -3.8e-05  1.009428  0.0
H  H68  1  0.38186454  0.23677350  0.50529494  1  0.06454  1.2e-05  0.102948  0.105198  9e-06  1.02263  0.0
H  H69  1  0.61812900  0.73677177  0.49470461  1  0.064493  1.2e-05  0.102928  0.105128  9e-06  1.022629  0.0
H  H70  1  0.11811895  0.23677382  0.00529390  1  0.06445  1.2e-05  0.102936  0.105152  9e-06  1.022695  0.0
H  H71  1  0.88187691  0.73677252  0.99470692  1  0.064393  1.2e-05  0.102922  0.105131  9e-06  1.022665  0.0
H  H72  1  0.21733064  0.16615439  0.66809653  1  0.132036  1e-05  0.106799  0.116349  -8.5e-05  1.023936  0.0
H  H73  1  0.78267802  0.66615375  0.33190331  1  0.132075  1e-05  0.106797  0.116361  -8.5e-05  1.023921  0.0
H  H74  1  0.28266967  0.16615522  0.16809529  1  0.132131  1e-05  0.106798  0.116344  -8.5e-05  1.023847  0.0
H  H75  1  0.71733551  0.66615185  0.83190539  1  0.132033  1e-05  0.106827  0.11642  -8.5e-05  1.023886  0.0
H  H76  1  0.98975314  0.24455000  0.65871950  1  0.084285  4e-06  0.101123  0.103733  8e-06  1.028714  0.0
H  H77  1  0.01024967  0.74455216  0.34128427  1  0.084316  4e-06  0.10114  0.103743  8e-06  1.028752  0.0
H  H78  1  0.51024377  0.24455354  0.15871494  1  0.084419  4e-06  0.101158  0.10375  8e-06  1.028666  0.0
H  H79  1  0.48975905  0.74454969  0.84128210  1  0.084403  4e-06  0.101157  0.103759  8e-06  1.02865  0.0
H  H80  1  0.39176813  0.10235950  0.48290627  1  0.072479  6.3e-05  0.10421  0.097989  1.3e-05  1.002696  0.0
H  H81  1  0.60823014  0.60235892  0.51709303  1  0.072429  6.3e-05  0.104232  0.097999  1.3e-05  1.002723  0.0
H  H82  1  0.10823435  0.10236135  0.98290652  1  0.072483  6.3e-05  0.10421  0.09799  1.3e-05  1.002683  0.0
H  H83  1  0.89176740  0.60235867  0.01709488  1  0.072475  6.3e-05  0.104231  0.098014  1.3e-05  1.002714  0.0
H  H84  1  0.53970780  0.10704972  0.39349482  1  0.08942  3e-06  0.106967  0.110673  -2.4e-05  0.984089  0.0
H  H85  1  0.46028234  0.60704889  0.60650365  1  0.089617  3e-06  0.106968  0.110699  -2.4e-05  0.983986  0.0
H  H86  1  0.96028932  0.10704778  0.89349555  1  0.089419  3e-06  0.106938  0.110629  -2.4e-05  0.984131  0.0
H  H87  1  0.03971126  0.60704495  0.10650628  1  0.089348  3e-06  0.106987  0.110718  -2.4e-05  0.984148  0.0
H  H88  1  0.81891344  0.13947459  0.39439274  1  0.04455  5.8e-05  0.10492  0.097632  1.7e-05  0.996156  0.0
H  H89  1  0.18107669  0.63947380  0.60560200  1  0.044633  5.8e-05  0.104908  0.097671  1.7e-05  0.996196  0.0
H  H90  1  0.68108252  0.13947109  0.89439267  1  0.044494  5.8e-05  0.104894  0.09766  1.7e-05  0.996218  0.0
H  H91  1  0.31891804  0.63946982  0.10560923  1  0.044453  5.8e-05  0.104899  0.097665  1.7e-05  0.996177  0.0
H  H92  1  0.95330973  0.16314185  0.48555645  1  0.073572  8e-05  0.100481  0.09645  2.7e-05  1.003002  0.0
H  H93  1  0.04668849  0.66314186  0.51443707  1  0.073437  8e-05  0.10043  0.096417  2.7e-05  1.003179  0.0
H  H94  1  0.54668600  0.16313836  0.98555704  1  0.07355  8e-05  0.100507  0.096487  2.7e-05  1.002981  0.0
H  H95  1  0.45331339  0.66313733  0.01444532  1  0.073563  8e-05  0.10049  0.096497  2.7e-05  1.002982  0.0
H  H96  1  0.80486437  0.16226579  0.57461733  1  0.095197  3.3e-05  0.100119  0.096052  0.0  1.034526  0.0
H  H97  1  0.19514197  0.66226337  0.42537829  1  0.094848  3.3e-05  0.100099  0.096037  0.0  1.034516  0.0
H  H98  1  0.69513403  0.16226182  0.07461765  1  0.095077  3.3e-05  0.100118  0.096078  -0.0  1.034468  0.0
H  H99  1  0.30486767  0.66226199  0.92538513  1  0.09528  3.3e-05  0.100083  0.096055  0.0  1.034463  0.0
H  H100  1  0.71462552  0.07247800  0.66763342  1  0.035354  -6.1e-05  0.101116  0.098457  -0.000117  1.010629  0.0
H  H101  1  0.28537277  0.57247796  0.33236667  1  0.035354  -6.1e-05  0.101104  0.098441  -0.000117  1.010616  0.0
H  H102  1  0.78537160  0.07247616  0.16763134  1  0.035298  -6.1e-05  0.101151  0.098499  -0.000117  1.010583  0.0
H  H103  1  0.21463480  0.57247766  0.83236412  1  0.035331  -6.1e-05  0.101153  0.098506  -0.000117  1.010643  0.0
H  H104  1  0.86510954  0.11870375  0.74909000  1  0.122101  6.4e-05  0.095611  0.101177  1.9e-05  1.053989  0.0
H  H105  1  0.13488523  0.61870348  0.25091143  1  0.122103  6.4e-05  0.095614  0.101191  1.9e-05  1.053936  0.0
H  H106  1  0.63488607  0.11869980  0.24908645  1  0.122008  6.4e-05  0.095589  0.101138  1.9e-05  1.054126  0.0
H  H107  1  0.36510986  0.61870423  0.75090783  1  0.122076  6.3e-05  0.095631  0.10119  1.9e-05  1.054038  0.0
H  H108  1  0.81944547  0.24296396  0.78375306  1  0.132251  0.000178  0.099325  0.099531  0.000118  1.019208  0.0
H  H109  1  0.18054691  0.74296411  0.21624734  1  0.132256  0.000178  0.09931  0.099498  0.000118  1.019144  0.0
H  H110  1  0.68054811  0.24295839  0.28375336  1  0.132198  0.000178  0.099339  0.099558  0.000118  1.019147  0.0
H  H111  1  0.31944543  0.74296433  0.71624536  1  0.132204  0.000178  0.099317  0.099476  0.000118  1.01916  0.0
H  H112  1  0.63355591  0.32193284  0.73442680  1  0.09333  0.000115  0.100375  0.110685  4e-05  1.015745  0.0
H  H113  1  0.36644802  0.82193099  0.26557164  1  0.093363  0.000115  0.100329  0.110671  4e-05  1.01575  0.0
H  H114  1  0.86645102  0.32192565  0.23443241  1  0.093455  0.000115  0.100396  0.110739  4e-05  1.015796  0.0
H  H115  1  0.13355290  0.82193123  0.76557235  1  0.093353  0.000115  0.100314  0.110626  4e-05  1.015809  0.0
H  H116  1  0.48510851  0.27645453  0.65189450  1  0.070376  -1.8e-05  0.096091  0.091669  -2.4e-05  1.040438  0.0
H  H117  1  0.51489893  0.77645238  0.34810176  1  0.07039  -1.8e-05  0.096076  0.091623  -2.4e-05  1.040406  0.0
H  H118  1  0.01490316  0.27644953  0.15190131  1  0.070225  -1.8e-05  0.096088  0.091639  -2.4e-05  1.040427  0.0
H  H119  1  0.98510891  0.77645151  0.84810379  1  0.070436  -1.8e-05  0.096109  0.091653  -2.4e-05  1.040397  0.0
C  C120  1  0.02702556  0.46232640  0.38802192  1  0.436498  -0.008138  0.040975  0.093938  -0.008708  3.958272  -0.005
C  C121  1  0.97297480  0.96232767  0.61197974  1  0.436569  -0.008139  0.04094  0.09392  -0.008708  3.95838  -0.005
C  C122  1  0.47296990  0.46232500  0.88802015  1  0.436432  -0.008139  0.040943  0.094044  -0.008708  3.958334  -0.005
C  C123  1  0.52702814  0.96232586  0.11197941  1  0.436472  -0.008138  0.040942  0.093963  -0.008707  3.958353  -0.005
C  C124  1  0.14279382  0.45784019  0.42866036  1  -0.032944  0.005772  -0.084861  -0.172965  0.002794  3.932261  0.004
C  C125  1  0.85721002  0.95784081  0.57134045  1  -0.033034  0.005772  -0.084871  -0.172994  0.002794  3.932477  0.004
C  C126  1  0.35720786  0.45783773  0.92865885  1  -0.032926  0.005772  -0.08497  -0.173205  0.002793  3.932509  0.004
C  C127  1  0.64279366  0.95783738  0.07134112  1  -0.03296  0.005772  -0.08493  -0.173139  0.002794  3.932369  0.004
C  C128  1  0.10524048  0.47080382  0.48524851  1  -0.004546  -0.0111  0.012589  0.08203  -0.011559  3.95658  -0.007
C  C129  1  0.89476104  0.97080373  0.51475401  1  -0.004516  -0.011099  0.012675  0.082202  -0.011558  3.956518  -0.007
C  C130  1  0.39475831  0.47080029  0.98524663  1  -0.004516  -0.011102  0.012678  0.082203  -0.01156  3.956387  -0.007
C  C131  1  0.60523972  0.97079978  0.01475294  1  -0.004465  -0.011101  0.012669  0.082194  -0.011559  3.956453  -0.007
C  C132  1  0.95129394  0.48985054  0.49715191  1  -0.02468  0.005115  -0.080515  -0.156997  0.002438  3.957783  0.004
C  C133  1  0.04870989  0.98985372  0.50284938  1  -0.025023  0.005115  -0.080566  -0.157134  0.002438  3.95775  0.004
C  C134  1  0.54870751  0.48984866  0.99715039  1  -0.024293  0.005114  -0.080596  -0.157182  0.002438  3.957877  0.004
C  C135  1  0.45129167  0.98984919  0.00284921  1  -0.024487  0.005114  -0.080592  -0.157175  0.002438  3.95778  0.004
C  C136  1  0.84328598  0.49348459  0.45419327  1  0.438895  -0.007771  0.04169  0.095498  -0.008134  3.95179  -0.005
C  C137  1  0.15671436  0.99348682  0.54580972  1  0.438824  -0.00777  0.041647  0.095421  -0.008132  3.951813  -0.005
C  C138  1  0.65671038  0.49348376  0.95419190  1  0.438291  -0.00777  0.041736  0.095599  -0.008133  3.951826  -0.005
C  C139  1  0.34328996  0.99348391  0.04580856  1  0.438296  -0.00777  0.041743  0.095574  -0.008133  3.951777  -0.005
C  C140  1  0.21494758  0.46089691  0.53263167  1  0.531383  0.001136  0.119624  0.19689  0.000319  4.028095  0.001
C  C141  1  0.78505625  0.96089615  0.46736957  1  0.531373  0.001136  0.11959  0.196912  0.000319  4.027978  0.001
C  C142  1  0.28505461  0.46089346  0.03263085  1  0.531463  0.001136  0.119676  0.196987  0.000319  4.028194  0.001
C  C143  1  0.71494575  0.96089211  0.96736955  1  0.531399  0.001136  0.119674  0.19692  0.000319  4.028196  0.001
C  C144  1  0.36811267  0.43721106  0.52578981  1  -0.016849  -0.004651  -0.076154  -0.199729  -0.004832  3.866177  -0.003
C  C145  1  0.63189119  0.93720981  0.47421223  1  -0.051541  -0.004658  -0.076118  -0.199781  -0.004832  3.865985  -0.003
C  C146  1  0.13188947  0.43720764  0.02578709  1  -0.051591  -0.004658  -0.07619  -0.199882  -0.004832  3.866153  -0.003
C  C147  1  0.86811090  0.93720575  0.97421115  1  -0.051586  -0.004659  -0.076183  -0.19988  -0.004833  3.866196  -0.003
C  C148  1  0.45780718  0.42191122  0.57368387  1  -0.043561  0.000823  0.009119  0.116214  0.000341  3.997036  0.001
C  C149  1  0.54219552  0.92191037  0.42631688  1  -0.043555  0.000823  0.00914  0.116349  0.000341  3.997118  0.001
C  C150  1  0.04219199  0.42190888  0.07368229  1  -0.043498  0.000823  0.00923  0.116413  0.000341  3.997213  0.001
C  C151  1  0.95780724  0.92190843  0.92631719  1  -0.043564  0.000823  0.009208  0.116343  0.000341  3.997193  0.001
C  C152  1  0.38779641  0.43076738  0.62644005  1  -0.041934  -0.004657  -0.079452  -0.204973  -0.004842  3.910484  -0.003
C  C153  1  0.61220513  0.93076635  0.37356197  1  -0.041478  -0.004656  -0.079435  -0.205066  -0.004841  3.910521  -0.003
C  C154  1  0.11220099  0.43076556  0.12643689  1  -0.041326  -0.004656  -0.07951  -0.205113  -0.004841  3.910663  -0.003
C  C155  1  0.88779707  0.93076710  0.87356177  1  -0.04141  -0.004658  -0.079488  -0.205027  -0.004842  3.910588  -0.003
C  C156  1  0.23722697  0.45751352  0.62944450  1  0.597153  0.000952  0.118845  0.198673  0.000224  4.05264  0.001
C  C157  1  0.76277571  0.95751246  0.37055631  1  0.596913  0.000952  0.118798  0.198687  0.000224  4.052315  0.001
C  C158  1  0.26277044  0.45750794  0.12944365  1  0.596876  0.000951  0.118801  0.19861  0.000224  4.052411  0.001
C  C159  1  0.73722760  0.95751163  0.87055632  1  0.596859  0.000952  0.118788  0.19856  0.000224  4.052447  0.001
C  C160  1  0.15692749  0.46871245  0.68351208  1  -0.032882  -0.010168  0.017822  0.09062  -0.010588  3.975463  -0.007
C  C161  1  0.84307287  0.96871283  0.31648875  1  -0.03287  -0.010167  0.017795  0.090625  -0.010587  3.975339  -0.007
C  C162  1  0.34307396  0.46871167  0.18351008  1  -0.032645  -0.010165  0.017845  0.090659  -0.010586  3.975299  -0.007
C  C163  1  0.65692408  0.96871360  0.81649075  1  -0.03282  -0.01017  0.017781  0.090643  -0.01059  3.975272  -0.007
C  C164  1  0.18309896  0.42582127  0.73091324  1  -0.081923  0.004707  -0.081063  -0.168368  0.002218  3.943244  0.004
C  C165  1  0.81690258  0.92582150  0.26908877  1  -0.081895  0.004706  -0.081004  -0.168281  0.002218  3.943019  0.004
C  C166  1  0.31689720  0.42581996  0.23091415  1  -0.081906  0.004707  -0.081064  -0.168256  0.002219  3.94314  0.004
C  C167  1  0.68309738  0.92582121  0.76908744  1  -0.081871  0.004707  -0.081  -0.168189  0.002219  3.942987  0.004
C  C168  1  0.08764646  0.43349454  0.77766119  1  0.441652  -0.007104  0.04257  0.08949  -0.007607  3.959201  -0.005
C  C169  1  0.91235275  0.93349302  0.22233957  1  0.441452  -0.007106  0.042547  0.089472  -0.007608  3.95899  -0.005
C  C170  1  0.41235134  0.43349696  0.27766097  1  0.441697  -0.007101  0.04251  0.089358  -0.007602  3.959282  -0.005
C  C171  1  0.58764556  0.93349487  0.72234021  1  0.441657  -0.007104  0.04258  0.089418  -0.007606  3.959283  -0.005
C  C172  1  0.95626266  0.52730328  0.73655299  1  0.409616  -0.006915  0.0416  0.092089  -0.007351  3.955852  -0.005
C  C173  1  0.04373217  0.02730430  0.26344659  1  0.409691  -0.006913  0.041597  0.091988  -0.00735  3.955962  -0.005
C  C174  1  0.54373257  0.52730307  0.23655184  1  0.409532  -0.006915  0.041617  0.092128  -0.007351  3.955741  -0.005
C  C175  1  0.45626458  0.02730291  0.76344816  1  0.409512  -0.006916  0.041632  0.092148  -0.007352  3.955932  -0.005
C  C176  1  0.04221603  0.52135042  0.68763691  1  0.054247  0.004611  -0.075244  -0.151202  0.002214  3.942823  0.004
C  C177  1  0.95778460  0.02135201  0.31236349  1  0.054213  0.004612  -0.07524  -0.151197  0.002214  3.942892  0.004
C  C178  1  0.45778078  0.52134802  0.18763675  1  0.054241  0.00461  -0.075312  -0.151273  0.002213  3.942913  0.004
C  C179  1  0.54221173  0.02134960  0.81236323  1  0.05419  0.004611  -0.075272  -0.151309  0.002214  3.943069  0.004
C  C180  1  0.61753567  0.39429689  0.57075223  1  -0.056585  -0.000155  -0.013037  0.05149  -0.000145  3.997023  0.0
C  C181  1  0.38246473  0.89429820  0.42925056  1  -0.056827  -0.000155  -0.012985  0.051528  -0.000145  3.99691  0.0
C  C182  1  0.88246255  0.39429450  0.07074734  1  -0.057133  -0.000155  -0.013041  0.051302  -0.000145  3.997414  0.0
C  C183  1  0.11753669  0.89429364  0.92924830  1  -0.057108  -0.000155  -0.013055  0.051406  -0.000145  3.997214  0.0
C  C184  1  0.67025945  0.35621667  0.52362208  1  -0.009737  0.000168  -0.091147  -0.1205  2.6e-05  3.969973  0.0
C  C185  1  0.32974097  0.85621867  0.47638064  1  -0.009591  0.000168  -0.091202  -0.120511  2.6e-05  3.970113  0.0
C  C186  1  0.82973830  0.35621536  0.02361796  1  -0.009686  0.000168  -0.09123  -0.120345  2.6e-05  3.970234  0.0
C  C187  1  0.17026444  0.85621303  0.97637887  1  -0.00964  0.000168  -0.091145  -0.120394  2.6e-05  3.97012  0.0
C  C188  1  0.81593681  0.32431055  0.52354850  1  -0.054473  -4.5e-05  -0.088146  -0.11709  -8.5e-05  3.974177  0.0
C  C189  1  0.18406132  0.82431203  0.47645458  1  -0.054668  -4.6e-05  -0.08818  -0.117307  -8.5e-05  3.974316  0.0
C  C190  1  0.68405865  0.32430926  0.02354333  1  -0.054693  -4.5e-05  -0.088122  -0.117167  -8.5e-05  3.974222  0.0
C  C191  1  0.31594180  0.82430851  0.97645217  1  -0.055028  -4.5e-05  -0.088218  -0.117117  -8.5e-05  3.974303  0.0
C  C192  1  0.91007573  0.32671590  0.57165932  1  -0.021013  0.000123  -0.006128  0.061688  6.6e-05  3.997122  0.0
C  C193  1  0.08992240  0.82671725  0.42834334  1  -0.021021  0.000123  -0.006142  0.061781  6.6e-05  3.997069  0.0
C  C194  1  0.58991907  0.32671676  0.07165529  1  -0.021037  0.000123  -0.006073  0.061794  6.6e-05  3.996817  0.0
C  C195  1  0.41008485  0.82671532  0.92834233  1  -0.020994  0.000123  -0.006059  0.061843  6.6e-05  3.996846  0.0
C  C196  1  0.85968317  0.36699144  0.61801888  1  -0.007552  -6.8e-05  -0.087396  -0.115084  -8.9e-05  3.988581  0.0
C  C197  1  0.14031493  0.86699157  0.38198428  1  -0.007246  -6.8e-05  -0.087401  -0.115158  -8.9e-05  3.988602  0.0
C  C198  1  0.64031672  0.36698908  0.11801492  1  -0.007306  -6.8e-05  -0.087439  -0.11531  -8.9e-05  3.988592  0.0
C  C199  1  0.35968602  0.86698965  0.88198151  1  -0.007566  -6.8e-05  -0.087442  -0.115277  -8.9e-05  3.988516  0.0
C  C200  1  0.71754324  0.40156410  0.61722465  1  -0.108899  0.000193  -0.089146  -0.120921  9.7e-05  3.970902  0.0
C  C201  1  0.28245251  0.90156475  0.38277732  1  -0.108857  0.000193  -0.089181  -0.12099  9.7e-05  3.970798  0.0
C  C202  1  0.78245546  0.40156227  0.11722130  1  -0.108508  0.000193  -0.089142  -0.120868  9.7e-05  3.970836  0.0
C  C203  1  0.21754378  0.90156071  0.88277646  1  -0.108566  0.000193  -0.089046  -0.120809  9.7e-05  3.970854  0.0
C  C204  1  0.05271649  0.28373656  0.57611183  1  -0.048135  0.000317  0.00081  0.083023  0.00017  3.983135  0.0
C  C205  1  0.94728166  0.78373671  0.42389160  1  -0.047994  0.000317  0.000763  0.082942  0.00017  3.983211  0.0
C  C206  1  0.44727699  0.28373844  0.07610786  1  -0.047668  0.000317  0.000715  0.08299  0.00017  3.983032  0.0
C  C207  1  0.55272348  0.78373697  0.92388883  1  -0.048099  0.000317  0.000702  0.082955  0.00017  3.983058  0.0
C  C208  1  0.16329994  0.27983364  0.53289239  1  -0.059594  -0.000112  -0.088869  -0.128261  -0.000134  3.961832  0.0
C  C209  1  0.83669589  0.77983233  0.46711019  1  -0.059806  -0.000112  -0.088865  -0.12836  -0.000134  3.96203  0.0
C  C210  1  0.33668729  0.27983446  0.03288912  1  -0.059876  -0.000112  -0.088839  -0.128415  -0.000134  3.961782  0.0
C  C211  1  0.66331202  0.77983311  0.96710967  1  -0.059774  -0.000112  -0.088749  -0.128323  -0.000134  3.961703  0.0
C  C212  1  0.29508043  0.23716304  0.53864520  1  -0.026936  0.000422  -0.081894  -0.075114  0.000234  3.997171  0.0
C  C213  1  0.70491543  0.73716174  0.46135520  1  -0.027032  0.000422  -0.081861  -0.074957  0.000234  3.997101  0.0
C  C214  1  0.20490804  0.23716388  0.03864300  1  -0.027005  0.000422  -0.081875  -0.074995  0.000234  3.997199  0.0
C  C215  1  0.79509245  0.73716250  0.96135613  1  -0.026977  0.000422  -0.081907  -0.07495  0.000234  3.997197  0.0
C  C216  1  0.31544588  0.19542001  0.58715406  1  -0.610518  -0.000173  -0.030905  -0.159227  -0.000551  4.005431  0.0
C  C217  1  0.68455580  0.69541909  0.41284541  1  -0.610227  -0.000173  -0.030947  -0.159279  -0.00055  4.005406  0.0
C  C218  1  0.18454661  0.19542085  0.08715311  1  -0.609757  -0.000173  -0.030898  -0.159263  -0.00055  4.005573  0.0
C  C219  1  0.81545624  0.69541985  0.91284721  1  -0.609722  -0.000173  -0.030933  -0.159363  -0.00055  4.005629  0.0
C  C220  1  0.20479168  0.19901626  0.63053384  1  -0.077934  0.000251  -0.079086  -0.063386  3.2e-05  3.972189  0.0
C  C221  1  0.79521116  0.69901520  0.36946648  1  -0.078101  0.000251  -0.079053  -0.063481  3.2e-05  3.972321  0.0
C  C222  1  0.29520474  0.19901816  0.13053136  1  -0.077977  0.000251  -0.079129  -0.063463  3.2e-05  3.972353  0.0
C  C223  1  0.70479926  0.69901597  0.86946644  1  -0.078102  0.000251  -0.079086  -0.063422  3.2e-05  3.972191  0.0
C  C224  1  0.07643264  0.24322716  0.62528397  1  0.002138  -8e-05  -0.087466  -0.126462  -8.1e-05  3.946805  0.0
C  C225  1  0.92357133  0.74322716  0.37471811  1  0.002235  -8e-05  -0.087494  -0.126377  -8.1e-05  3.94686  0.0
C  C226  1  0.42356137  0.24322744  0.12528040  1  0.001354  -8e-05  -0.087453  -0.126387  -8.1e-05  3.946884  0.0
C  C227  1  0.57644144  0.74322581  0.87471832  1  0.001821  -8e-05  -0.087455  -0.126424  -8.1e-05  3.946759  0.0
C  C228  1  0.58806468  0.13301442  0.53482388  1  -0.592823  0.003747  -0.027637  -0.151501  0.001575  3.992232  0.002
C  C229  1  0.41193820  0.63301637  0.46517379  1  -0.592541  0.003747  -0.027665  -0.151526  0.001575  3.992122  0.002
C  C230  1  0.91193565  0.13301363  0.03482408  1  -0.592693  0.003747  -0.027616  -0.151536  0.001575  3.992404  0.002
C  C231  1  0.08806491  0.63301449  0.96517780  1  -0.592569  0.003748  -0.027612  -0.151481  0.001576  3.992274  0.002
C  C232  1  0.51467599  0.11625267  0.48349347  1  -0.091882  0.001614  -0.0783  -0.073712  0.000779  3.981478  0.001
C  C233  1  0.48532342  0.61625424  0.51650586  1  -0.092255  0.001614  -0.078287  -0.073722  0.000779  3.981649  0.001
C  C234  1  0.98532207  0.11625287  0.98349423  1  -0.091874  0.001614  -0.078304  -0.073721  0.000779  3.981566  0.001
C  C235  1  0.01467735  0.61625083  0.01650677  1  -0.091868  0.001614  -0.078369  -0.073777  0.000779  3.981538  0.001
C  C236  1  0.59753404  0.11880106  0.43324858  1  -0.004536  -0.000532  -0.083207  -0.067073  -0.000602  3.971683  0.0
C  C237  1  0.40246073  0.61880226  0.56674822  1  -0.00456  -0.000532  -0.083246  -0.067085  -0.000601  3.971979  0.0
C  C238  1  0.90246581  0.11880020  0.93324882  1  -0.004385  -0.000532  -0.083162  -0.06696  -0.000602  3.971621  0.0
C  C239  1  0.09753476  0.61879884  0.06675346  1  -0.004418  -0.000532  -0.0832  -0.067094  -0.000601  3.97166  0.0
C  C240  1  0.75504149  0.13650358  0.43390525  1  -0.019609  0.002114  -0.076451  -0.049911  0.001098  3.96862  0.001
C  C241  1  0.24495443  0.63650372  0.56609159  1  -0.019569  0.002114  -0.076409  -0.049942  0.001098  3.968798  0.001
C  C242  1  0.74495255  0.13650060  0.93390485  1  -0.01968  0.002114  -0.076449  -0.050002  0.001098  3.968589  0.001
C  C243  1  0.25504453  0.63649922  0.06609620  1  -0.019683  0.002113  -0.076423  -0.049947  0.001098  3.968822  0.001
C  C244  1  0.82990779  0.15035889  0.48478744  1  -0.101932  -0.000346  -0.088029  -0.080022  -0.000465  3.99291  0.0
C  C245  1  0.17009045  0.65035889  0.51520689  1  -0.10207  -0.000346  -0.087994  -0.080056  -0.000465  3.992884  0.0
C  C246  1  0.67009026  0.15035486  0.98478778  1  -0.101925  -0.000346  -0.088047  -0.080069  -0.000465  3.992898  0.0
C  C247  1  0.32991029  0.65035438  0.01521498  1  -0.101855  -0.000345  -0.088071  -0.080116  -0.000465  3.993018  0.0
C  C248  1  0.74661249  0.14938820  0.53518847  1  0.016373  0.002265  -0.079546  -0.0713  0.00115  3.982377  0.001
C  C249  1  0.25339039  0.64938911  0.46480797  1  0.016828  0.002265  -0.0795  -0.071217  0.00115  3.982185  0.001
C  C250  1  0.75338436  0.14938530  0.03518845  1  0.0163  0.002265  -0.07955  -0.071281  0.00115  3.98229  0.001
C  C251  1  0.24661388  0.64938560  0.96481304  1  0.016053  0.002265  -0.07952  -0.071285  0.00115  3.982205  0.001
C  C252  1  0.58916712  0.17135280  0.65471593  1  -0.589134  0.000602  -0.030692  -0.156754  5.3e-05  4.002249  0.0
C  C253  1  0.41083226  0.67135385  0.34528308  1  -0.589156  0.000602  -0.030702  -0.156729  5.3e-05  4.002258  0.0
C  C254  1  0.91083096  0.17135095  0.15471739  1  -0.58915  0.000602  -0.030601  -0.156572  5.3e-05  4.002355  0.0
C  C255  1  0.08917190  0.67135143  0.84528204  1  -0.588897  0.000601  -0.030682  -0.156624  5.3e-05  4.002276  0.0
C  C256  1  0.69769460  0.12727924  0.68201050  1  0.006709  0.000232  -0.081799  -0.069744  2.6e-05  3.979215  0.0
C  C257  1  0.30230481  0.62727915  0.31798927  1  0.006729  0.000232  -0.081834  -0.069813  2.6e-05  3.979105  0.0
C  C258  1  0.80230727  0.12727580  0.18200844  1  0.006903  0.000232  -0.081925  -0.069961  2.6e-05  3.97914  0.0
C  C259  1  0.19769794  0.62727832  0.81798796  1  0.006679  0.000232  -0.081867  -0.069936  2.6e-05  3.979128  0.0
C  C260  1  0.78141257  0.15312519  0.72793622  1  -0.064382  -6.2e-05  -0.093683  -0.086906  -0.0001  3.985581  0.0
C  C261  1  0.21858683  0.65312550  0.27206317  1  -0.064428  -6.2e-05  -0.093665  -0.086949  -0.0001  3.985608  0.0
C  C262  1  0.71858628  0.15312175  0.22793742  1  -0.064701  -6.2e-05  -0.093657  -0.086869  -0.0001  3.985637  0.0
C  C263  1  0.28141311  0.65312573  0.77206071  1  -0.06442  -6.2e-05  -0.09368  -0.086951  -0.0001  3.985657  0.0
C  C264  1  0.75686169  0.22291272  0.74709767  1  -0.100135  0.000499  -0.084182  -0.063228  0.000267  3.96904  0.0
C  C265  1  0.24313766  0.72291084  0.25290228  1  -0.100188  0.000499  -0.084095  -0.063037  0.000267  3.968968  0.0
C  C266  1  0.74314080  0.22290662  0.24709763  1  -0.100378  0.000499  -0.084141  -0.06312  0.000267  3.969052  0.0
C  C267  1  0.25686319  0.72291214  0.75290147  1  -0.100193  0.000499  -0.084137  -0.063012  0.000267  3.968943  0.0
C  C268  1  0.65086144  0.26734798  0.71964233  1  -0.022032  2.8e-05  -0.091239  -0.083739  -1.4e-05  3.985209  0.0
C  C269  1  0.34914020  0.76734671  0.28035602  1  -0.022027  2.8e-05  -0.091249  -0.083804  -1.4e-05  3.985127  0.0
C  C270  1  0.84914073  0.26734293  0.21964707  1  -0.021641  2.8e-05  -0.091345  -0.083979  -1.4e-05  3.984995  0.0
C  C271  1  0.15086091  0.76734749  0.78035591  1  -0.022023  2.8e-05  -0.091263  -0.083803  -1.4e-05  3.984984  0.0
C  C272  1  0.56762828  0.24180444  0.67341274  1  -0.048217  0.000398  -0.084484  -0.078295  0.000232  3.993502  0.0
C  C273  1  0.43237338  0.74180276  0.32658514  1  -0.048203  0.000398  -0.084466  -0.078264  0.000232  3.99352  0.0
C  C274  1  0.93237923  0.24179937  0.17341549  1  -0.048015  0.000397  -0.084503  -0.078244  0.000232  3.993351  0.0
C  C275  1  0.06762707  0.74180087  0.82658575  1  -0.048239  0.000397  -0.084502  -0.078318  0.000232  3.993399  0.0
N  N276  1  0.87858814  0.47931511  0.40005789  1  -1.202745  0.048304  -0.335375  -0.249048  0.025775  3.614811  0.045
N  N277  1  0.12141337  0.97931698  0.59994380  1  -1.202696  0.048303  -0.335335  -0.249005  0.025775  3.614837  0.045
N  N278  1  0.62141114  0.47931536  0.90005690  1  -1.202577  0.048303  -0.33537  -0.249093  0.025775  3.614761  0.045
N  N279  1  0.37858920  0.97931620  0.09994311  1  -1.202608  0.048303  -0.335404  -0.249088  0.025775  3.614835  0.045
N  N280  1  0.15310769  0.47288869  0.58366527  1  -1.194358  -0.003926  -0.305396  -0.336853  -0.004088  3.357212  -0.003
N  N281  1  0.84689382  0.97288830  0.41633683  1  -1.194149  -0.003926  -0.305448  -0.336989  -0.004087  3.357116  -0.003
N  N282  1  0.34689386  0.47288418  0.08366328  1  -1.194431  -0.003926  -0.305439  -0.336851  -0.004088  3.357142  -0.003
N  N283  1  0.65310649  0.97288641  0.91633672  1  -1.194103  -0.003927  -0.305449  -0.336852  -0.004088  3.35708  -0.003
N  N284  1  0.97267196  0.48221250  0.78053675  1  -1.199345  0.0433  -0.333133  -0.253938  0.023209  3.610954  0.04
N  N285  1  0.02732723  0.98221375  0.21946411  1  -1.199304  0.043301  -0.333102  -0.253911  0.02321  3.610798  0.04
N  N286  1  0.52732260  0.48221176  0.28053726  1  -1.199238  0.043302  -0.333055  -0.253851  0.02321  3.610854  0.04
N  N287  1  0.47267311  0.98221235  0.71946275  1  -1.19927  0.043302  -0.333139  -0.253947  0.023211  3.611008  0.04
N  N288  1  0.89429243  0.51647823  0.25747856  1  0.799233  -0.009408  0.090693  0.683057  -0.010418  4.441546  -0.01
N  N289  1  0.10570820  0.01648124  0.74252058  1  0.799326  -0.009408  0.090531  0.682894  -0.010416  4.441912  -0.01
N  N290  1  0.60570418  0.51648382  0.75748133  1  0.803704  -0.009407  0.090543  0.682808  -0.010417  4.441691  -0.01
N  N291  1  0.39429413  0.01648313  0.24251991  1  0.803716  -0.009408  0.090493  0.682811  -0.010418  4.441704  -0.01
N  N292  1  0.61447509  0.35195885  0.37850486  1  0.809379  -0.009408  0.090908  0.686908  -0.010419  4.424944  -0.01
N  N293  1  0.38552649  0.85195968  0.62149533  1  0.809417  -0.009408  0.090949  0.687035  -0.01042  4.425233  -0.01
N  N294  1  0.88552520  0.35196013  0.87850423  1  0.809436  -0.009409  0.090936  0.686998  -0.01042  4.425105  -0.01
N  N295  1  0.11447059  0.85196053  0.12149469  1  0.80945  -0.009409  0.090986  0.687004  -0.01042  4.424843  -0.01
O  O296  1  0.41577814  0.05991830  0.61332652  1  -1.426803  0.051339  -0.354781  -0.652102  0.027117  2.377408  0.038
O  O297  1  0.58422363  0.55991893  0.38667143  1  -1.426847  0.051336  -0.354821  -0.652108  0.027116  2.377431  0.038
O  O298  1  0.08422399  0.05991809  0.11332585  1  -1.426836  0.051338  -0.354786  -0.652125  0.027117  2.377396  0.038
O  O299  1  0.91578126  0.55991753  0.88667421  1  -1.426844  0.051337  -0.354787  -0.652117  0.027116  2.377508  0.038
O  O300  1  0.54657382  0.41010463  0.39451612  1  -0.568948  0.070226  -0.182449  -0.449376  0.036569  2.056029  0.062
O  O301  1  0.45342889  0.91010540  0.60548544  1  -0.568975  0.070229  -0.182422  -0.449375  0.036571  2.05609  0.062
O  O302  1  0.95342893  0.41010536  0.89451516  1  -0.568967  0.070231  -0.182467  -0.44943  0.036572  2.056036  0.062
O  O303  1  0.04657030  0.91010573  0.10548388  1  -0.56903  0.070224  -0.182419  -0.449331  0.036568  2.056121  0.062
O  O304  1  0.72617201  0.36082074  0.34363659  1  -0.529715  0.079214  -0.174218  -0.423025  0.041088  2.024362  0.071
O  O305  1  0.27383073  0.86082115  0.65636319  1  -0.529715  0.079212  -0.174242  -0.423095  0.041087  2.02446  0.071
O  O306  1  0.77383024  0.36082096  0.84363581  1  -0.529753  0.07921  -0.174185  -0.423021  0.041086  2.024401  0.071
O  O307  1  0.22616787  0.86082039  0.15636314  1  -0.529662  0.079214  -0.174315  -0.423158  0.041088  2.024217  0.071
O  O308  1  0.57338065  0.29235029  0.39550168  1  -0.477531  0.009668  -0.16563  -0.392451  0.003324  1.914221  0.009
O  O309  1  0.42661981  0.79235160  0.60449671  1  -0.477516  0.009669  -0.16565  -0.392498  0.003324  1.91438  0.009
O  O310  1  0.92661986  0.29235104  0.89550321  1  -0.47751  0.009669  -0.165657  -0.3925  0.003324  1.914362  0.009
O  O311  1  0.07337713  0.79235086  0.10449602  1  -0.477557  0.009669  -0.165635  -0.392454  0.003324  1.914205  0.009
O  O312  1  0.84568595  0.56049471  0.29512587  1  -0.560126  0.068971  -0.177181  -0.443513  0.036341  2.072446  0.061
O  O313  1  0.15431930  0.06049761  0.70487461  1  -0.560293  0.068975  -0.177159  -0.443485  0.036342  2.072467  0.061
O  O314  1  0.65432263  0.56050083  0.79512660  1  -0.559926  0.068972  -0.177171  -0.443495  0.036341  2.072308  0.061
O  O315  1  0.34567798  0.06049897  0.20487304  1  -0.559904  0.068974  -0.177182  -0.443516  0.036343  2.072398  0.061
O  O316  1  0.97247183  0.53621839  0.21644718  1  -0.487016  0.007122  -0.157745  -0.392465  0.001859  1.961035  0.007
O  O317  1  0.02752995  0.03622261  0.78355241  1  -0.487035  0.007124  -0.157672  -0.392413  0.00186  1.961091  0.007
O  O318  1  0.52753014  0.53622399  0.71644900  1  -0.491878  0.007122  -0.157671  -0.392347  0.001859  1.961056  0.007
O  O319  1  0.47247048  0.03622289  0.28355101  1  -0.491883  0.007121  -0.157661  -0.392365  0.001858  1.961057  0.007
O  O320  1  0.85465699  0.45112785  0.26480145  1  -0.536636  0.066401  -0.174393  -0.435794  0.03451  2.028545  0.06
O  O321  1  0.14533642  0.95113066  0.73519682  1  -0.536543  0.0664  -0.17433  -0.435675  0.034511  2.0287  0.06
O  O322  1  0.64532466  0.45113183  0.76480807  1  -0.536439  0.066404  -0.174349  -0.435686  0.034516  2.02872  0.06
O  O323  1  0.35466526  0.95113149  0.23519483  1  -0.536503  0.066408  -0.174291  -0.435633  0.034516  2.028598  0.06
