# generated using pymatgen
data_RbH13C17SO9
_symmetry_space_group_name_H-M   'P 1'
_cell_length_a   6.03133722
_cell_length_b   11.51718495
_cell_length_c   12.66315526
_cell_angle_alpha   91.03965917
_cell_angle_beta   98.36473835
_cell_angle_gamma   91.57903801
_symmetry_Int_Tables_number   1
_chemical_formula_structural   RbH13C17SO9
_chemical_formula_sum   'Rb2 H26 C34 S2 O18'
_cell_volume   869.72749709
_cell_formula_units_Z   2
loop_
 _symmetry_equiv_pos_site_id
 _symmetry_equiv_pos_as_xyz
  1  'x, y, z'
loop_
 _atom_site_type_symbol
 _atom_site_label
 _atom_site_symmetry_multiplicity
 _atom_site_fract_x
 _atom_site_fract_y
 _atom_site_fract_z
 _atom_site_occupancy
 _atom_site_hle17_bader_spin_density
 _atom_site_hle17_ddec_charge
 _atom_site_hle17_ddec_spin_density
 _atom_site_hle17_ddec_sum_bond_order
 _atom_site_hle17_magmom
 _atom_site_hse06_10hf_bader_spin_density
 _atom_site_hse06_10hf_ddec_charge
 _atom_site_hse06_10hf_ddec_spin_density
 _atom_site_hse06_10hf_ddec_sum_bond_order
 _atom_site_hse06_10hf_magmom
 _atom_site_hse06_bader_spin_density
 _atom_site_hse06_ddec_charge
 _atom_site_hse06_ddec_spin_density
 _atom_site_hse06_ddec_sum_bond_order
 _atom_site_hse06_magmom
 _atom_site_pbe_bader_spin_density
 _atom_site_pbe_cm5_charge
 _atom_site_pbe_ddec_charge
 _atom_site_pbe_ddec_spin_density
 _atom_site_pbe_ddec_sum_bond_order
 _atom_site_pbe_magmom
Rb  Rb0  1  0.27788519  0.13731985  0.03932179  1  0  0.952366  0  0.489117  0  0  0.90529  0  0.694272  0  0  0.919532  0  0.672217  0  0  0.837556  0.894693  0  0.709945  0
Rb  Rb1  1  0.72210364  0.86268721  0.96067996  1  0  0.952361  0  0.48912  0  0  0.905289  0  0.694281  0  0  0.919538  0  0.672229  0  0  0.837576  0.894698  0  0.709937  0
H  H2  1  0.92252837  0.78652428  0.70031460  1  0  0.376093  0  0.91056  0  0  0.349523  0  0.982555  0  0  0.361991  0  0.969941  0  0  0.301389  0.340806  0  0.99125  0
H  H3  1  0.07746784  0.21347311  0.29968901  1  0  0.376117  0  0.910549  0  0  0.349591  0  0.982478  0  0  0.362054  0  0.969868  0  0  0.301443  0.340873  0  0.991173  0
H  H4  1  0.94786304  0.71438936  0.21692885  1  0  0.112358  0  0.953725  0  0  0.122484  0  1.014164  0  0  0.126105  0  1.011064  0  0  0.112172  0.119778  0  1.016518  0
H  H5  1  0.05210636  0.28562245  0.78305820  1  0  0.112467  0  0.953715  0  0  0.122496  0  1.014245  0  0  0.126111  0  1.01116  0  0  0.112218  0.1198  0  1.016603  0
H  H6  1  0.15389590  0.93651986  0.49404170  1  0  0.099469  0  0.980717  0  0  0.108072  0  1.046304  0  0  0.111653  0  1.043097  0  0  0.101788  0.105491  0  1.048591  0
H  H7  1  0.84607171  0.06349267  0.50595866  1  0  0.099626  0  0.980847  0  0  0.108152  0  1.046506  0  0  0.111758  0  1.043253  0  0  0.101801  0.10557  0  1.048796  0
H  H8  1  0.44572735  0.02719280  0.40349255  1  0  0.107813  0  0.964752  0  0  0.120317  0  1.025127  0  0  0.122727  0  1.025303  0  0  0.104023  0.118623  0  1.025125  0
H  H9  1  0.55425136  0.97281352  0.59650766  1  0  0.107761  0  0.9648  0  0  0.120313  0  1.025139  0  0  0.122727  0  1.025313  0  0  0.103995  0.118619  0  1.025138  0
H  H10  1  0.78610528  0.00811496  0.32118871  1  0  0.085595  0  0.977366  0  0  0.100972  0  1.048177  0  0  0.100372  0  1.049784  0  0  0.097037  0.10144  0  1.047011  0
H  H11  1  0.21391506  0.99188830  0.67881207  1  0  0.085643  0  0.977398  0  0  0.100981  0  1.048258  0  0  0.100385  0  1.049853  0  0  0.097059  0.101448  0  1.047095  0
H  H12  1  0.60588637  0.12710486  0.28842292  1  0  0.082221  0  0.973423  0  0  0.094375  0  1.048796  0  0  0.094795  0  1.048619  0  0  0.097717  0.093993  0  1.04902  0
H  H13  1  0.39411599  0.87290375  0.71158302  1  0  0.082252  0  0.973472  0  0  0.094421  0  1.04882  0  0  0.09484  0  1.048643  0  0  0.097755  0.094042  0  1.049046  0
H  H14  1  0.78368476  0.07898895  0.19597815  1  0  0.111122  0  0.926183  0  0  0.130038  0  0.984014  0  0  0.131524  0  0.982628  0  0  0.118765  0.128852  0  0.985137  0
H  H15  1  0.21632109  0.92101974  0.80401856  1  0  0.111147  0  0.926169  0  0  0.130074  0  0.983987  0  0  0.131561  0  0.9826  0  0  0.118793  0.128889  0  0.98511  0
H  H16  1  0.62922625  0.71566591  0.26510176  1  0  0.104838  0  0.956819  0  0  0.108856  0  1.024143  0  0  0.112569  0  1.019227  0  0  0.126618  0.10605  0  1.027897  0
H  H17  1  0.37077168  0.28433151  0.73489882  1  0  0.104862  0  0.956802  0  0  0.108812  0  1.024199  0  0  0.112523  0  1.019284  0  0  0.126592  0.106007  0  1.027952  0
H  H18  1  0.16413083  0.55832149  0.47165558  1  0  0.154057  0  0.931015  0  0  0.162705  0  0.993155  0  0  0.167086  0  0.99093  0  0  0.114472  0.159518  0  0.995035  0
H  H19  1  0.83587577  0.44166274  0.52834842  1  0  0.154042  0  0.930876  0  0  0.162634  0  0.993069  0  0  0.167016  0  0.990842  0  0  0.114401  0.159448  0  0.99495  0
H  H20  1  0.59555442  0.57439074  0.96635860  1  0  0.110873  0  0.942625  0  0  0.128638  0  1.002606  0  0  0.129576  0  1.002393  0  0  0.11104  0.127834  0  1.002888  0
H  H21  1  0.40444380  0.42561009  0.03364604  1  0  0.110879  0  0.942631  0  0  0.128673  0  1.002589  0  0  0.129613  0  1.002373  0  0  0.111035  0.127868  0  1.002871  0
H  H22  1  0.79164834  0.59807305  0.87527423  1  0  0.096626  0  0.952978  0  0  0.110184  0  1.020761  0  0  0.112139  0  1.018798  0  0  0.100581  0.108663  0  1.022299  0
H  H23  1  0.20835489  0.40192692  0.12472601  1  0  0.0966  0  0.952981  0  0  0.110157  0  1.020774  0  0  0.112108  0  1.018811  0  0  0.100571  0.108636  0  1.022315  0
H  H24  1  0.60670600  0.47132338  0.85917885  1  0  0.099054  0  0.951548  0  0  0.113099  0  1.018038  0  0  0.11421  0  1.01725  0  0  0.096116  0.112237  0  1.018637  0
H  H25  1  0.39329250  0.52868008  0.14082509  1  0  0.098996  0  0.951574  0  0  0.113056  0  1.018054  0  0  0.114169  0  1.017261  0  0  0.096091  0.112195  0  1.018651  0
H  H26  1  0.15382225  0.54440712  0.75533494  1  0  0.39577  0  0.813212  0  0  0.377889  0  0.86777  0  0  0.388232  0  0.856428  0  0  0.337709  0.370448  0  0.87594  0
H  H27  1  0.84617092  0.45559296  0.24466536  1  0  0.395793  0  0.813212  0  0  0.377934  0  0.86776  0  0  0.388279  0  0.856417  0  0  0.337681  0.370493  0  0.875932  0
C  C28  1  0.21336286  0.83600539  0.20646120  1  0  -0.231935  0  3.737988  0  0  -0.211923  0  3.993155  0  0  -0.221433  0  4.012143  0  0  -0.032056  -0.206064  0  3.980904  0
C  C29  1  0.78664798  0.16400401  0.79354379  1  0  -0.231955  0  3.738293  0  0  -0.211755  0  3.993204  0  0  -0.22126  0  4.012178  0  0  -0.031983  -0.205897  0  3.980959  0
C  C30  1  0.05009567  0.78501427  0.25900005  1  0  -0.086554  0  3.719276  0  0  -0.122876  0  3.973557  0  0  -0.119783  0  3.989997  0  0  -0.081152  -0.124611  0  3.962518  0
C  C31  1  0.94988593  0.21498607  0.74098995  1  0  -0.086806  0  3.719946  0  0  -0.123101  0  3.974249  0  0  -0.120013  0  3.990692  0  0  -0.08127  -0.124852  0  3.963224  0
C  C32  1  0.02133721  0.82050214  0.36301681  1  0  0.066818  0  3.775142  0  0  0.080222  0  4.016167  0  0  0.080085  0  4.039244  0  0  -0.015774  0.080123  0  4.000798  0
C  C33  1  0.97865247  0.17951199  0.63697651  1  0  0.066997  0  3.775465  0  0  0.080424  0  4.016471  0  0  0.080288  0  4.039554  0  0  -0.015736  0.080327  0  4.0011  0
C  C34  1  0.16936022  0.90793666  0.41332764  1  0  -0.07029  0  3.709805  0  0  -0.098141  0  3.970088  0  0  -0.095428  0  3.985354  0  0  -0.089593  -0.099887  0  3.959883  0
C  C35  1  0.83064554  0.09207037  0.58666349  1  0  -0.070451  0  3.709803  0  0  -0.098221  0  3.970078  0  0  -0.095515  0  3.985333  0  0  -0.089602  -0.099967  0  3.959872  0
C  C36  1  0.33552506  0.95922235  0.36197762  1  0  -0.196691  0  3.755519  0  0  -0.21726  0  4.014768  0  0  -0.224169  0  4.03536  0  0  -0.110596  -0.212805  0  4.001312  0
C  C37  1  0.66447374  0.04078294  0.63801849  1  0  -0.196615  0  3.755071  0  0  -0.217224  0  4.014338  0  0  -0.224139  0  4.034939  0  0  -0.11057  -0.212766  0  4.000877  0
C  C38  1  0.35868199  0.92484841  0.25775432  1  0  0.261701  0  3.814503  0  0  0.244778  0  4.073622  0  0  0.257851  0  4.089254  0  0  0.083475  0.235949  0  4.063305  0
C  C39  1  0.64131873  0.07516024  0.74224913  1  0  0.261681  0  3.814078  0  0  0.244662  0  4.073257  0  0  0.257734  0  4.088891  0  0  0.08347  0.235829  0  4.062938  0
C  C40  1  0.68175257  0.05115203  0.25629683  1  0  -0.082018  0  3.610065  0  0  -0.180068  0  3.879135  0  0  -0.172326  0  3.881097  0  0  -0.146847  -0.185137  0  3.877592  0
C  C41  1  0.31825288  0.94885314  0.74370292  1  0  -0.082144  0  3.610456  0  0  -0.180222  0  3.879538  0  0  -0.172477  0  3.881494  0  0  -0.146983  -0.185303  0  3.877997  0
C  C42  1  0.65642567  0.71621632  0.35217164  1  0  0.159445  0  3.59591  0  0  0.105472  0  3.874615  0  0  0.123506  0  3.881545  0  0  0.041324  0.093132  0  3.870535  0
C  C43  1  0.34357457  0.28377064  0.64782803  1  0  0.159509  0  3.595645  0  0  0.105606  0  3.874406  0  0  0.123648  0  3.881334  0  0  0.041444  0.093266  0  3.870324  0
C  C44  1  0.83987244  0.76717593  0.41430120  1  0  -0.155837  0  3.769749  0  0  -0.149991  0  4.027548  0  0  -0.163324  0  4.050328  0  0  -0.033454  -0.141808  0  4.013056  0
C  C45  1  0.16011562  0.23282254  0.58569316  1  0  -0.15598  0  3.770059  0  0  -0.150264  0  4.028027  0  0  -0.163624  0  4.050796  0  0  -0.033549  -0.142067  0  4.013532  0
C  C46  1  0.84345375  0.76562531  0.52938040  1  0  0.401415  0  3.798049  0  0  0.370694  0  4.067412  0  0  0.398217  0  4.069848  0  0  0.127453  0.352701  0  4.065134  0
C  C47  1  0.15654628  0.23435990  0.47062079  1  0  0.401296  0  3.798281  0  0  0.370686  0  4.06761  0  0  0.398243  0  4.069965  0  0  0.127419  0.352665  0  4.065369  0
C  C48  1  0.65706947  0.70721819  0.56747646  1  0  -0.279608  0  3.835147  0  0  -0.274636  0  4.088753  0  0  -0.291771  0  4.111951  0  0  -0.049548  -0.263765  0  4.073212  0
C  C49  1  0.34294036  0.29276430  0.43252458  1  0  -0.27931  0  3.834541  0  0  -0.274389  0  4.088059  0  0  -0.291542  0  4.111251  0  0  -0.049301  -0.263509  0  4.072523  0
C  C50  1  0.47988671  0.65503382  0.49636930  1  0  0.298404  0  3.786937  0  0  0.276144  0  4.057621  0  0  0.292647  0  4.073056  0  0  0.094429  0.265332  0  4.046901  0
C  C51  1  0.52013892  0.34495548  0.50363070  1  0  0.298013  0  3.787181  0  0  0.276009  0  4.057477  0  0  0.292511  0  4.072916  0  0  0.094314  0.2652  0  4.046752  0
C  C52  1  0.29843244  0.59674477  0.52950006  1  0  -0.302082  0  3.700762  0  0  -0.341888  0  3.981496  0  0  -0.352721  0  3.99667  0  0  -0.124559  -0.334842  0  3.971418  0
C  C53  1  0.70158859  0.40323239  0.47050007  1  0  -0.301913  0  3.70093  0  0  -0.341699  0  3.981529  0  0  -0.352529  0  3.996697  0  0  -0.124479  -0.334654  0  3.971453  0
C  C54  1  0.29764406  0.58972639  0.63935539  1  0  0.307934  0  3.825409  0  0  0.283271  0  4.111493  0  0  0.299768  0  4.12296  0  0  0.086299  0.272469  0  4.103139  0
C  C55  1  0.70235495  0.41026574  0.36064907  1  0  0.30788  0  3.825463  0  0  0.283115  0  4.111503  0  0  0.29961  0  4.122969  0  0  0.08628  0.27231  0  4.103153  0
C  C56  1  0.47315090  0.63890016  0.71439958  1  0  -0.013662  0  3.815827  0  0  -0.025382  0  4.085905  0  0  -0.028305  0  4.102937  0  0  0.045269  -0.024035  0  4.074503  0
C  C57  1  0.52685284  0.36108849  0.28560118  1  0  -0.01397  0  3.816237  0  0  -0.025314  0  4.085968  0  0  -0.028237  0  4.102996  0  0  0.045279  -0.023968  0  4.074565  0
C  C58  1  0.65040564  0.69982083  0.67928350  1  0  0.268455  0  3.840873  0  0  0.245159  0  4.113647  0  0  0.261362  0  4.126373  0  0  0.083287  0.234545  0  4.104796  0
C  C59  1  0.34960151  0.30016783  0.32071356  1  0  0.268625  0  3.840928  0  0  0.245164  0  4.11378  0  0  0.261365  0  4.126509  0  0  0.083247  0.23455  0  4.104927  0
C  C60  1  0.62417314  0.56331158  0.88357077  1  0  -0.090714  0  3.563036  0  0  -0.184571  0  3.825943  0  0  -0.179063  0  3.828251  0  0  -0.150354  -0.188091  0  3.824407  0
C  C61  1  0.37583837  0.43668822  0.11643638  1  0  -0.090642  0  3.563016  0  0  -0.184499  0  3.825992  0  0  -0.178995  0  3.828297  0  0  -0.15028  -0.188019  0  3.824449  0
S  S62  1  0.24799701  0.78040466  0.07700518  1  0  1.30373  0  5.737337  0  0  1.21154  0  6.265676  0  0  1.261072  0  6.238512  0  0  0.447283  1.177448  0  6.283313  0
S  S63  1  0.75199247  0.21960771  0.92298966  1  0  1.304031  0  5.736826  0  0  1.211797  0  6.265151  0  0  1.261332  0  6.237982  0  0  0.447489  1.177706  0  6.282792  0
O  O64  1  0.23165422  0.88190550  0.00594060  1  0  -0.791484  0  1.969554  0  0  -0.751127  0  2.232285  0  0  -0.771337  0  2.216202  0  0  -0.480152  -0.736736  0  2.242862  0
O  O65  1  0.76832308  0.11810264  0.99405482  1  0  -0.791564  0  1.969229  0  0  -0.75122  0  2.231996  0  0  -0.771438  0  2.215911  0  0  -0.480197  -0.73682  0  2.242561  0
O  O66  1  0.47267816  0.73113041  0.09082388  1  0  -0.694363  0  1.948376  0  0  -0.650186  0  2.202658  0  0  -0.67187  0  2.188373  0  0  -0.416959  -0.634797  0  2.212046  0
O  O67  1  0.52730995  0.26888541  0.90917411  1  0  -0.694556  0  1.948255  0  0  -0.650353  0  2.202534  0  0  -0.672009  0  2.188186  0  0  -0.417083  -0.634959  0  2.21192  0
O  O68  1  0.06442246  0.69511704  0.04771264  1  0  -0.671413  0  1.915113  0  0  -0.623855  0  2.148246  0  0  -0.644624  0  2.13442  0  0  -0.389983  -0.60926  0  2.157355  0
O  O69  1  0.93556641  0.30489005  0.95228675  1  0  -0.671451  0  1.915132  0  0  -0.623891  0  2.148284  0  0  -0.644664  0  2.134454  0  0  -0.390008  -0.609298  0  2.157397  0
O  O70  1  0.51466406  0.97117938  0.20126374  1  0  -0.290559  0  2.40469  0  0  -0.216353  0  2.651472  0  0  -0.235235  0  2.655445  0  0  -0.225036  -0.203028  0  2.648264  0
O  O71  1  0.48533726  0.02881803  0.79873471  1  0  -0.290517  0  2.404841  0  0  -0.216258  0  2.651626  0  0  -0.235141  0  2.655601  0  0  -0.225011  -0.202916  0  2.648406  0
O  O72  1  0.00169163  0.81193789  0.59588039  1  0  -0.524736  0  2.028206  0  0  -0.464158  0  2.246132  0  0  -0.487042  0  2.24281  0  0  -0.283608  -0.448503  0  2.248009  0
O  O73  1  0.99831789  0.18805768  0.40411861  1  0  -0.524615  0  2.028439  0  0  -0.464161  0  2.246414  0  0  -0.487027  0  2.243055  0  0  -0.283605  -0.448486  0  2.248298  0
O  O74  1  0.48355221  0.66141810  0.38848731  1  0  -0.195114  0  2.456622  0  0  -0.116797  0  2.683095  0  0  -0.13745  0  2.689379  0  0  -0.108964  -0.102795  0  2.67865  0
O  O75  1  0.51645613  0.33856696  0.61151843  1  0  -0.195048  0  2.456658  0  0  -0.116808  0  2.683034  0  0  -0.137466  0  2.689319  0  0  -0.108986  -0.10282  0  2.678609  0
O  O76  1  0.81338416  0.75282116  0.74956770  1  0  -0.53089  0  2.114141  0  0  -0.487419  0  2.338872  0  0  -0.506507  0  2.328772  0  0  -0.378263  -0.473791  0  2.345276  0
O  O77  1  0.18661735  0.24717880  0.25043558  1  0  -0.530979  0  2.114278  0  0  -0.487497  0  2.339  0  0  -0.506574  0  2.328879  0  0  -0.37833  -0.473869  0  2.345406  0
O  O78  1  0.45078977  0.63008398  0.82083650  1  0  -0.270378  0  2.314547  0  0  -0.205425  0  2.557831  0  0  -0.219001  0  2.558454  0  0  -0.215059  -0.195701  0  2.557196  0
O  O79  1  0.54920965  0.36991167  0.17916493  1  0  -0.270231  0  2.314782  0  0  -0.205459  0  2.558055  0  0  -0.219034  0  2.558678  0  0  -0.215077  -0.195729  0  2.557416  0
O  O80  1  0.12426676  0.53449096  0.67704664  1  0  -0.477842  0  2.074625  0  0  -0.427659  0  2.279949  0  0  -0.445646  0  2.26976  0  0  -0.333886  -0.414475  0  2.286312  0
O  O81  1  0.87574083  0.46550283  0.32295691  1  0  -0.477817  0  2.074468  0  0  -0.427719  0  2.279869  0  0  -0.445714  0  2.26969  0  0  -0.333868  -0.414537  0  2.286243  0
