# generated using pymatgen
data_ZnH17C24N3O4
_symmetry_space_group_name_H-M   'P 1'
_cell_length_a   5.81439708
_cell_length_b   11.35541763
_cell_length_c   18.86944314
_cell_angle_alpha   79.84028092
_cell_angle_beta   81.13562540
_cell_angle_gamma   75.17043838
_symmetry_Int_Tables_number   1
_chemical_formula_structural   ZnH17C24N3O4
_chemical_formula_sum   'Zn2 H34 C48 N6 O8'
_cell_volume   1177.67485711
_cell_formula_units_Z   2
loop_
 _symmetry_equiv_pos_site_id
 _symmetry_equiv_pos_as_xyz
  1  'x, y, z'
loop_
 _atom_site_type_symbol
 _atom_site_label
 _atom_site_symmetry_multiplicity
 _atom_site_fract_x
 _atom_site_fract_y
 _atom_site_fract_z
 _atom_site_occupancy
 _atom_site_hle17_bader_spin_density
 _atom_site_hle17_ddec_charge
 _atom_site_hle17_ddec_spin_density
 _atom_site_hle17_ddec_sum_bond_order
 _atom_site_hle17_magmom
 _atom_site_hse06_10hf_bader_spin_density
 _atom_site_hse06_10hf_ddec_charge
 _atom_site_hse06_10hf_ddec_spin_density
 _atom_site_hse06_10hf_ddec_sum_bond_order
 _atom_site_hse06_10hf_magmom
 _atom_site_hse06_bader_spin_density
 _atom_site_hse06_ddec_charge
 _atom_site_hse06_ddec_spin_density
 _atom_site_hse06_ddec_sum_bond_order
 _atom_site_hse06_magmom
 _atom_site_pbe_bader_spin_density
 _atom_site_pbe_cm5_charge
 _atom_site_pbe_ddec_charge
 _atom_site_pbe_ddec_spin_density
 _atom_site_pbe_ddec_sum_bond_order
 _atom_site_pbe_magmom
Zn  Zn0  1  0.52751646  0.77945589  0.88530386  1  0  0.989346  0  1.867584  0  0  0.791233  0  2.354338  0  0  0.839049  0  2.299261  0  0  0.692717  0.757979  0  2.392194  0
Zn  Zn1  1  0.80753876  0.27920907  0.38536565  1  0  0.988261  0  1.868541  0  0  0.789794  0  2.35547  0  0  0.837625  0  2.300392  0  0  0.692294  0.756521  0  2.393343  0
H  H2  1  0.70568430  0.30986641  0.53977711  1  0  0.078831  0  0.95132  0  0  0.088146  0  1.014029  0  0  0.090037  0  1.013336  0  0  0.116801  0.086713  0  1.014583  0
H  H3  1  0.44488884  0.81013855  0.03953635  1  0  0.079933  0  0.950558  0  0  0.088706  0  1.013737  0  0  0.090633  0  1.013047  0  0  0.117348  0.087236  0  1.014315  0
H  H4  1  0.64987328  0.75504936  0.72877755  1  0  0.077707  0  0.955298  0  0  0.086493  0  1.018884  0  0  0.087918  0  1.018793  0  0  0.117402  0.085425  0  1.018995  0
H  H5  1  0.86603382  0.25502645  0.22895437  1  0  0.07892  0  0.95641  0  0  0.087822  0  1.01969  0  0  0.089159  0  1.01976  0  0  0.11875  0.086766  0  1.01973  0
H  H6  1  0.94584027  0.65830488  0.02801511  1  0  0.096051  0  0.982186  0  0  0.102894  0  1.051017  0  0  0.105553  0  1.050275  0  0  0.097281  0.100953  0  1.051719  0
H  H7  1  0.36941242  0.15774638  0.52788393  1  0  0.095416  0  0.982569  0  0  0.102163  0  1.05146  0  0  0.104704  0  1.050881  0  0  0.096975  0.100295  0  1.052072  0
H  H8  1  0.38661576  0.72197376  0.60143271  1  0  0.103609  0  0.951326  0  0  0.11549  0  1.009284  0  0  0.118147  0  1.009307  0  0  0.102786  0.113623  0  1.009334  0
H  H9  1  0.28911622  0.22257952  0.10161370  1  0  0.10461  0  0.9508  0  0  0.116449  0  1.008768  0  0  0.119029  0  1.008887  0  0  0.102992  0.114594  0  1.008797  0
H  H10  1  0.34612249  0.38984874  0.23228367  1  0  0.098022  0  0.98064  0  0  0.105386  0  1.047278  0  0  0.10834  0  1.046315  0  0  0.097856  0.103236  0  1.04815  0
H  H11  1  0.03041443  0.89042386  0.73219394  1  0  0.097166  0  0.981452  0  0  0.104551  0  1.048079  0  0  0.10746  0  1.047138  0  0  0.097085  0.10241  0  1.048946  0
H  H12  1  0.35611798  0.38113674  0.62761508  1  0  0.109137  0  0.968471  0  0  0.118674  0  1.02846  0  0  0.121586  0  1.028634  0  0  0.107211  0.116577  0  1.028494  0
H  H13  1  0.63529530  0.88139187  0.12736859  1  0  0.108893  0  0.969676  0  0  0.11815  0  1.029943  0  0  0.121126  0  1.030102  0  0  0.107354  0.116022  0  1.029985  0
H  H14  1  0.01371855  0.68210935  0.64604392  1  0  0.106519  0  0.957379  0  0  0.117881  0  1.016046  0  0  0.120631  0  1.016158  0  0  0.108496  0.115904  0  1.016133  0
H  H15  1  0.65783113  0.18241527  0.14607081  1  0  0.105678  0  0.957095  0  0  0.116596  0  1.016428  0  0  0.119383  0  1.016485  0  0  0.108418  0.114618  0  1.016513  0
H  H16  1  0.93446297  0.50412660  0.44684094  1  0  0.110819  0  0.940964  0  0  0.122236  0  0.9974  0  0  0.125445  0  0.996562  0  0  0.112368  0.11991  0  0.998231  0
H  H17  1  0.11364064  0.00522888  0.94653275  1  0  0.110378  0  0.941993  0  0  0.121908  0  0.998134  0  0  0.125098  0  0.99733  0  0  0.112346  0.119581  0  0.998956  0
H  H18  1  0.58659251  0.43878570  0.11323677  1  0  0.097448  0  0.957486  0  0  0.106939  0  1.019742  0  0  0.110166  0  1.018106  0  0  0.101129  0.104601  0  1.021034  0
H  H19  1  0.86111296  0.93918730  0.61299804  1  0  0.09856  0  0.957462  0  0  0.107707  0  1.019976  0  0  0.11102  0  1.018242  0  0  0.101329  0.105308  0  1.021327  0
H  H20  1  0.70441030  0.60510863  0.14610139  1  0  0.097254  0  0.956303  0  0  0.105385  0  1.020401  0  0  0.108853  0  1.018327  0  0  0.099916  0.102867  0  1.022007  0
H  H21  1  0.54506244  0.10467780  0.64611572  1  0  0.096879  0  0.956045  0  0  0.10509  0  1.020043  0  0  0.108569  0  1.017929  0  0  0.099645  0.102564  0  1.021681  0
H  H22  1  0.30400438  0.43241018  0.36631898  1  0  0.099081  0  0.941121  0  0  0.105811  0  1.005115  0  0  0.108881  0  1.001905  0  0  0.12072  0.103524  0  1.007482  0
H  H23  1  0.89657624  0.93322812  0.86603889  1  0  0.099193  0  0.941652  0  0  0.105471  0  1.00592  0  0  0.108525  0  1.002748  0  0  0.120942  0.103186  0  1.008264  0
H  H24  1  0.00464951  0.61046199  0.91051981  1  0  0.095336  0  0.946489  0  0  0.101999  0  1.011243  0  0  0.104697  0  1.0084  0  0  0.121313  0.099982  0  1.013351  0
H  H25  1  0.47502056  0.10937964  0.41056192  1  0  0.096114  0  0.946371  0  0  0.103028  0  1.010685  0  0  0.105746  0  1.007809  0  0  0.121522  0.100997  0  1.012793  0
H  H26  1  0.58433974  0.39875906  0.75846771  1  0  0.11023  0  0.93762  0  0  0.124146  0  0.991068  0  0  0.127662  0  0.989377  0  0  0.108779  0.121638  0  0.992408  0
H  H27  1  0.25942040  0.89841031  0.25801883  1  0  0.109884  0  0.938006  0  0  0.124226  0  0.990989  0  0  0.127769  0  0.989262  0  0  0.108468  0.121692  0  0.992365  0
H  H28  1  0.76084004  0.65032263  0.52355151  1  0  0.098702  0  0.932485  0  0  0.113911  0  0.982918  0  0  0.116693  0  0.981239  0  0  0.108442  0.11194  0  0.984104  0
H  H29  1  0.06448156  0.15118155  0.02358569  1  0  0.098739  0  0.933565  0  0  0.113998  0  0.983976  0  0  0.116789  0  0.982276  0  0  0.108299  0.112015  0  0.985184  0
H  H30  1  0.38846756  0.53708585  0.83548944  1  0  0.113253  0  0.93758  0  0  0.124762  0  0.993146  0  0  0.128029  0  0.992313  0  0  0.112968  0.122402  0  0.99394  0
H  H31  1  0.23968218  0.03620250  0.33536606  1  0  0.112657  0  0.938016  0  0  0.124351  0  0.993296  0  0  0.127521  0  0.992572  0  0  0.113124  0.12207  0  0.994004  0
H  H32  1  0.91566605  0.24697214  0.72849606  1  0  0.320024  0  0.874767  0  0  0.318019  0  0.915439  0  0  0.322734  0  0.912944  0  0  0.314351  0.314672  0  0.917192  0
H  H33  1  0.10975936  0.74693565  0.22789380  1  0  0.318683  0  0.876613  0  0  0.317308  0  0.916417  0  0  0.322005  0  0.913981  0  0  0.314653  0.313976  0  0.918123  0
H  H34  1  0.10751212  0.25521872  0.65152348  1  0  0.295421  0  0.961631  0  0  0.281485  0  1.029321  0  0  0.285693  0  1.028516  0  0  0.287559  0.27852  0  1.029866  0
H  H35  1  0.98641773  0.75539422  0.15093761  1  0  0.293794  0  0.96312  0  0  0.280215  0  1.03039  0  0  0.284401  0  1.029618  0  0  0.286947  0.277265  0  1.030917  0
C  C36  1  0.01112983  0.49442649  0.19639893  1  0  -0.06583  0  3.749435  0  0  -0.042312  0  3.977596  0  0  -0.048943  0  3.999569  0  0  -0.021684  -0.037932  0  3.962738  0
C  C37  1  0.29762820  0.99451250  0.69637285  1  0  -0.065315  0  3.751107  0  0  -0.042453  0  3.979968  0  0  -0.049003  0  4.001823  0  0  -0.022517  -0.038141  0  3.965187  0
C  C38  1  0.28160021  0.55314683  0.06384879  1  0  -0.061466  0  3.754975  0  0  -0.037465  0  3.981872  0  0  -0.043925  0  4.004203  0  0  -0.020617  -0.033162  0  3.966713  0
C  C39  1  0.10199950  0.05316239  0.56369174  1  0  -0.061091  0  3.752182  0  0  -0.037749  0  3.980286  0  0  -0.044188  0  4.00258  0  0  -0.021966  -0.033493  0  3.965187  0
C  C40  1  0.86522493  0.46021993  0.26667672  1  0  0.616686  0  3.958385  0  0  0.571792  0  4.249733  0  0  0.605211  0  4.242215  0  0  0.189962  0.549104  0  4.25404  0
C  C41  1  0.40703764  0.96026985  0.76670157  1  0  0.618471  0  3.956259  0  0  0.574174  0  4.246816  0  0  0.60759  0  4.239227  0  0  0.190901  0.551495  0  4.251159  0
C  C42  1  0.43236476  0.59451110  0.99635344  1  0  0.617888  0  3.949815  0  0  0.572947  0  4.240158  0  0  0.606327  0  4.232905  0  0  0.190752  0.550309  0  4.244209  0
C  C43  1  0.97760842  0.09449390  0.49615800  1  0  0.618377  0  3.947851  0  0  0.573393  0  4.238463  0  0  0.606755  0  4.231232  0  0  0.19107  0.550772  0  4.242502  0
C  C44  1  0.53085454  0.35419765  0.52169262  1  0  0.130396  0  3.716337  0  0  0.098876  0  3.966902  0  0  0.106209  0  3.985813  0  0  0.04419  0.094138  0  3.954116  0
C  C45  1  0.59326809  0.85462344  0.02145938  1  0  0.129521  0  3.715924  0  0  0.09851  0  3.966398  0  0  0.105747  0  3.98533  0  0  0.043675  0.093837  0  3.953612  0
C  C46  1  0.81741578  0.70571641  0.75007744  1  0  0.135393  0  3.706691  0  0  0.104233  0  3.955967  0  0  0.111623  0  3.975333  0  0  0.04849  0.099446  0  3.942847  0
C  C47  1  0.72665583  0.20559789  0.25018598  1  0  0.132908  0  3.709636  0  0  0.101576  0  3.95918  0  0  0.108963  0  3.978548  0  0  0.046525  0.096817  0  3.946062  0
C  C48  1  0.23628306  0.60381906  0.73332069  1  0  0.111167  0  3.739798  0  0  0.120793  0  3.973131  0  0  0.126545  0  3.99311  0  0  0.018644  0.117093  0  3.959504  0
C  C49  1  0.42668661  0.10366022  0.23328260  1  0  0.110205  0  3.741206  0  0  0.118535  0  3.97611  0  0  0.124227  0  3.996184  0  0  0.017467  0.114863  0  3.962449  0
C  C50  1  0.03237967  0.59919999  0.07287724  1  0  -0.08315  0  3.75143  0  0  -0.106062  0  3.998938  0  0  -0.106315  0  4.018222  0  0  -0.092124  -0.105843  0  3.985932  0
C  C51  1  0.29645614  0.09893297  0.57276906  1  0  -0.083457  0  3.750356  0  0  -0.105986  0  3.997888  0  0  -0.106172  0  4.0172  0  0  -0.092073  -0.105805  0  3.984862  0
C  C52  1  0.50918762  0.63481793  0.61843008  1  0  -0.145453  0  3.762649  0  0  -0.170245  0  4.022571  0  0  -0.17586  0  4.044291  0  0  -0.105658  -0.166493  0  4.007677  0
C  C53  1  0.23708351  0.13529118  0.11844631  1  0  -0.14765  0  3.762881  0  0  -0.172431  0  4.022453  0  0  -0.177994  0  4.044175  0  0  -0.105568  -0.168671  0  4.007563  0
C  C54  1  0.25953112  0.44708602  0.18694118  1  0  -0.068464  0  3.736637  0  0  -0.093291  0  3.988198  0  0  -0.093495  0  4.00817  0  0  -0.090593  -0.093078  0  3.974695  0
C  C55  1  0.10572677  0.94744732  0.68686362  1  0  -0.068648  0  3.74057  0  0  -0.093291  0  3.99215  0  0  -0.093478  0  4.012213  0  0  -0.08957  -0.093056  0  3.978607  0
C  C56  1  0.10828641  0.44702059  0.54573934  1  0  0.125692  0  3.745359  0  0  0.133354  0  3.979752  0  0  0.140762  0  4.000168  0  0  0.017018  0.128543  0  3.96594  0
C  C57  1  0.89864574  0.94770565  0.04546006  1  0  0.124931  0  3.74408  0  0  0.132628  0  3.978351  0  0  0.140043  0  3.998781  0  0  0.016201  0.127747  0  3.964613  0
C  C58  1  0.33327944  0.39301811  0.57046460  1  0  -0.167524  0  3.710859  0  0  -0.183146  0  3.957842  0  0  -0.191556  0  3.979222  0  0  -0.084908  -0.17784  0  3.943694  0
C  C59  1  0.70322386  0.89349200  0.07021567  1  0  -0.166771  0  3.711454  0  0  -0.182016  0  3.957813  0  0  -0.190488  0  3.979165  0  0  -0.084663  -0.176656  0  3.943706  0
C  C60  1  0.88924368  0.48459243  0.59538312  1  0  -0.091122  0  3.737951  0  0  -0.075693  0  3.975169  0  0  -0.082938  0  3.999271  0  0  -0.021224  -0.070846  0  3.958721  0
C  C61  1  0.03054163  0.98513747  0.09515496  1  0  -0.09048  0  3.738009  0  0  -0.074677  0  3.974999  0  0  -0.081959  0  3.999211  0  0  -0.020769  -0.06978  0  3.95848  0
C  C62  1  0.45973538  0.56447730  0.68588518  1  0  0.065798  0  3.825541  0  0  0.077637  0  4.06813  0  0  0.080089  0  4.089855  0  0  -0.005406  0.076207  0  4.053098  0
C  C63  1  0.28994775  0.06458857  0.18575955  1  0  0.063684  0  3.830707  0  0  0.07621  0  4.073059  0  0  0.078677  0  4.094812  0  0  -0.007508  0.074766  0  4.058002  0
C  C64  1  0.83804713  0.41241479  0.66334432  1  0  0.298528  0  3.822183  0  0  0.288074  0  4.07816  0  0  0.299368  0  4.097333  0  0  0.108823  0.280443  0  4.064843  0
C  C65  1  0.08647790  0.91260605  0.16298218  1  0  0.298542  0  3.8232  0  0  0.28729  0  4.080657  0  0  0.298558  0  4.099898  0  0  0.108033  0.27968  0  4.067287  0
C  C66  1  0.02212417  0.66532251  0.70422618  1  0  -0.153285  0  3.707486  0  0  -0.172296  0  3.956235  0  0  -0.180829  0  3.978304  0  0  -0.077344  -0.166839  0  3.941546  0
C  C67  1  0.60822249  0.16535655  0.20426151  1  0  -0.149694  0  3.70579  0  0  -0.167726  0  3.954727  0  0  -0.176234  0  3.976771  0  0  -0.075461  -0.162294  0  3.940021  0
C  C68  1  0.10193642  0.46379478  0.47032142  1  0  -0.156403  0  3.681462  0  0  -0.174068  0  3.930314  0  0  -0.182308  0  3.949909  0  0  -0.079961  -0.168915  0  3.917404  0
C  C69  1  0.96328520  0.96467703  0.97002553  1  0  -0.156068  0  3.682034  0  0  -0.173868  0  3.930712  0  0  -0.1821  0  3.950314  0  0  -0.079905  -0.168696  0  3.917795  0
C  C70  1  0.39322777  0.47470975  0.12105387  1  0  -0.081629  0  3.748751  0  0  -0.102988  0  3.997346  0  0  -0.104302  0  4.017532  0  0  -0.088641  -0.10203  0  3.983649  0
C  C71  1  0.01080767  0.97500568  0.62090134  1  0  -0.081057  0  3.747889  0  0  -0.101856  0  3.996308  0  0  -0.103257  0  4.016492  0  0  -0.086891  -0.100827  0  3.982617  0
C  C72  1  0.89799660  0.56981124  0.13837173  1  0  -0.089083  0  3.758131  0  0  -0.107469  0  4.003171  0  0  -0.108001  0  4.021707  0  0  -0.090606  -0.107042  0  3.990656  0
C  C73  1  0.39425969  0.06959036  0.63833601  1  0  -0.090077  0  3.758223  0  0  -0.108199  0  4.003162  0  0  -0.108755  0  4.021669  0  0  -0.090961  -0.107753  0  3.990678  0
C  C74  1  0.30753121  0.42291806  0.42460570  1  0  0.157444  0  3.66385  0  0  0.124025  0  3.914466  0  0  0.1331  0  3.929926  0  0  0.056748  0.118079  0  3.904123  0
C  C75  1  0.84435812  0.92368126  0.92432484  1  0  0.158153  0  3.663466  0  0  0.125403  0  3.913926  0  0  0.134455  0  3.929389  0  0  0.057233  0.119486  0  3.903546  0
C  C76  1  0.01595984  0.62497073  0.85171103  1  0  0.157073  0  3.669092  0  0  0.1241  0  3.918168  0  0  0.13308  0  3.934124  0  0  0.05447  0.118238  0  3.907411  0
C  C77  1  0.50778575  0.12420593  0.35174247  1  0  0.1558  0  3.666793  0  0  0.122858  0  3.91561  0  0  0.131838  0  3.931499  0  0  0.054849  0.116991  0  3.904913  0
C  C78  1  0.62433599  0.45558321  0.70725557  1  0  -0.233956  0  3.699207  0  0  -0.258625  0  3.950499  0  0  -0.265259  0  3.968572  0  0  -0.102088  -0.254175  0  3.938206  0
C  C79  1  0.21336313  0.95552882  0.20693103  1  0  -0.233534  0  3.701901  0  0  -0.258661  0  3.953333  0  0  -0.265313  0  3.97145  0  0  -0.101113  -0.254198  0  3.941017  0
C  C80  1  0.72047464  0.59415498  0.57494837  1  0  -0.080224  0  3.785462  0  0  -0.102566  0  4.040083  0  0  -0.100603  0  4.059446  0  0  -0.085967  -0.103579  0  4.026631  0
C  C81  1  0.10988786  0.09479532  0.07489436  1  0  -0.078838  0  3.786772  0  0  -0.10136  0  4.041054  0  0  -0.099354  0  4.060387  0  0  -0.085491  -0.102394  0  4.027602  0
C  C82  1  0.22819306  0.58255578  0.80914806  1  0  -0.151224  0  3.675402  0  0  -0.168731  0  3.920979  0  0  -0.17658  0  3.940416  0  0  -0.076782  -0.163791  0  3.908098  0
C  C83  1  0.38059377  0.08188557  0.30909915  1  0  -0.150977  0  3.676304  0  0  -0.168428  0  3.922757  0  0  -0.176174  0  3.942192  0  0  -0.077339  -0.163567  0  3.909903  0
N  N84  1  0.81384931  0.68777037  0.82276041  1  0  -0.342172  0  3.302388  0  0  -0.254953  0  3.582273  0  0  -0.274746  0  3.595207  0  0  -0.331654  -0.241654  0  3.573442  0
N  N85  1  0.67568837  0.18730020  0.32286941  1  0  -0.340529  0  3.300748  0  0  -0.253269  0  3.580684  0  0  -0.273017  0  3.593542  0  0  -0.331021  -0.239996  0  3.571892  0
N  N86  1  0.51923702  0.36635935  0.44984735  1  0  -0.34522  0  3.299014  0  0  -0.258858  0  3.581379  0  0  -0.278532  0  3.594041  0  0  -0.333571  -0.245683  0  3.572766  0
N  N87  1  0.66433337  0.86687391  0.94959955  1  0  -0.346762  0  3.298092  0  0  -0.260759  0  3.580427  0  0  -0.28036  0  3.593028  0  0  -0.334472  -0.247628  0  3.571842  0
N  N88  1  0.98714648  0.30253609  0.68765525  1  0  -0.649145  0  3.130627  0  0  -0.618409  0  3.347168  0  0  -0.637886  0  3.351217  0  0  -0.591451  -0.604468  0  3.343778  0
N  N89  1  0.02323945  0.80260896  0.18714572  1  0  -0.64652  0  3.132422  0  0  -0.616333  0  3.348968  0  0  -0.635748  0  3.353105  0  0  -0.591148  -0.602439  0  3.345522  0
O  O90  1  0.32142123  0.69245820  0.95620947  1  0  -0.66609  0  2.070444  0  0  -0.590899  0  2.352918  0  0  -0.6207  0  2.339395  0  0  -0.341737  -0.569903  0  2.361438  0
O  O91  1  0.03066421  0.19248161  0.45604326  1  0  -0.665713  0  2.06905  0  0  -0.590605  0  2.351528  0  0  -0.620473  0  2.338216  0  0  -0.341421  -0.569545  0  2.359841  0
O  O92  1  0.98782412  0.37716865  0.31281145  1  0  -0.66423  0  2.063098  0  0  -0.588117  0  2.343346  0  0  -0.617378  0  2.32838  0  0  -0.343711  -0.56745  0  2.352748  0
O  O93  1  0.32151564  0.87702615  0.81272362  1  0  -0.665419  0  2.062751  0  0  -0.589762  0  2.342835  0  0  -0.619054  0  2.327893  0  0  -0.34426  -0.569125  0  2.352326  0
O  O94  1  0.64706729  0.54122632  0.98376258  1  0  -0.607051  0  1.894397  0  0  -0.567986  0  2.106169  0  0  -0.58905  0  2.097624  0  0  -0.333972  -0.55322  0  2.111544  0
O  O95  1  0.82891389  0.04114021  0.48352374  1  0  -0.607699  0  1.894815  0  0  -0.568532  0  2.106871  0  0  -0.589594  0  2.098335  0  0  -0.334215  -0.553759  0  2.112222  0
O  O96  1  0.64551423  0.50554685  0.27647177  1  0  -0.608887  0  1.890037  0  0  -0.571129  0  2.103218  0  0  -0.591729  0  2.094288  0  0  -0.336848  -0.556735  0  2.108908  0
O  O97  1  0.57127434  0.00575005  0.77662632  1  0  -0.609294  0  1.890254  0  0  -0.571562  0  2.10317  0  0  -0.592193  0  2.094219  0  0  -0.336761  -0.557136  0  2.108854  0
