# generated using pymatgen
data_CdH18C22(N2O)6
_symmetry_space_group_name_H-M   'P 1'
_cell_length_a   9.39615319
_cell_length_b   11.19645340
_cell_length_c   11.73210281
_cell_angle_alpha   89.99992123
_cell_angle_beta   95.14139240
_cell_angle_gamma   89.99992536
_symmetry_Int_Tables_number   1
_chemical_formula_structural   CdH18C22(N2O)6
_chemical_formula_sum   'Cd2 H36 C44 N24 O12'
_cell_volume   1229.29341207
_cell_formula_units_Z   2
loop_
 _symmetry_equiv_pos_site_id
 _symmetry_equiv_pos_as_xyz
  1  'x, y, z'
loop_
 _atom_site_type_symbol
 _atom_site_label
 _atom_site_symmetry_multiplicity
 _atom_site_fract_x
 _atom_site_fract_y
 _atom_site_fract_z
 _atom_site_occupancy
 _atom_site_hle17_bader_spin_density
 _atom_site_hle17_ddec_charge
 _atom_site_hle17_ddec_spin_density
 _atom_site_hle17_ddec_sum_bond_order
 _atom_site_hle17_magmom
 _atom_site_hse06_10hf_bader_spin_density
 _atom_site_hse06_10hf_ddec_charge
 _atom_site_hse06_10hf_ddec_spin_density
 _atom_site_hse06_10hf_ddec_sum_bond_order
 _atom_site_hse06_10hf_magmom
 _atom_site_hse06_bader_spin_density
 _atom_site_hse06_ddec_charge
 _atom_site_hse06_ddec_spin_density
 _atom_site_hse06_ddec_sum_bond_order
 _atom_site_hse06_magmom
 _atom_site_pbe_bader_spin_density
 _atom_site_pbe_cm5_charge
 _atom_site_pbe_ddec_charge
 _atom_site_pbe_ddec_spin_density
 _atom_site_pbe_ddec_sum_bond_order
 _atom_site_pbe_magmom
Cd  Cd0  1  0.00000019  0.49999957  0.99999956  1  0  1.04988  0  1.80286  0  0  0.847864  0  2.258548  0  0  0.896744  0  2.215602  0  0  0.792032  0.812796  0  2.288463  0
Cd  Cd1  1  0.50000087  0.99999996  0.50000043  1  0  1.049875  0  1.802896  0  0  0.847849  0  2.258592  0  0  0.896729  0  2.215644  0  0  0.792025  0.81278  0  2.288507  0
H  H2  1  0.17938596  0.54249559  0.28490838  1  0  0.099595  0  0.958794  0  0  0.10501  0  1.029616  0  0  0.108058  0  1.025131  0  0  0.136387  0.102607  0  1.033034  0
H  H3  1  0.32061527  0.04249527  0.21509234  1  0  0.099605  0  0.958789  0  0  0.105023  0  1.029611  0  0  0.108071  0  1.025126  0  0  0.136399  0.102629  0  1.033015  0
H  H4  1  0.82061558  0.45750373  0.71509312  1  0  0.099591  0  0.958801  0  0  0.105006  0  1.029624  0  0  0.108053  0  1.025139  0  0  0.13639  0.102611  0  1.033031  0
H  H5  1  0.67938627  0.95750495  0.78490831  1  0  0.099594  0  0.958788  0  0  0.105006  0  1.029611  0  0  0.108053  0  1.025128  0  0  0.136395  0.102603  0  1.033028  0
H  H6  1  0.90205893  0.26835491  0.15777698  1  0  0.099661  0  0.98107  0  0  0.107103  0  1.044086  0  0  0.10887  0  1.045046  0  0  0.111853  0.105779  0  1.043498  0
H  H7  1  0.59794368  0.76835613  0.34222317  1  0  0.099676  0  0.981028  0  0  0.107113  0  1.04405  0  0  0.108884  0  1.045006  0  0  0.111863  0.10579  0  1.043462  0
H  H8  1  0.09794260  0.73164442  0.84222282  1  0  0.099688  0  0.981014  0  0  0.107133  0  1.044028  0  0  0.1089  0  1.044989  0  0  0.111871  0.105809  0  1.043438  0
H  H9  1  0.40205893  0.23164498  0.65777670  1  0  0.09966  0  0.981074  0  0  0.107101  0  1.04409  0  0  0.108869  0  1.045049  0  0  0.111845  0.105776  0  1.0435  0
H  H10  1  0.96477112  0.23323823  0.39110258  1  0  0.131549  0  0.968798  0  0  0.13547  0  1.038013  0  0  0.139323  0  1.034587  0  0  0.123671  0.13264  0  1.040717  0
H  H11  1  0.53523155  0.73323807  0.10889762  1  0  0.13154  0  0.968786  0  0  0.135494  0  1.037971  0  0  0.139349  0  1.034542  0  0  0.123679  0.132665  0  1.040675  0
H  H12  1  0.03522721  0.76676288  0.60889699  1  0  0.131551  0  0.96878  0  0  0.135489  0  1.037981  0  0  0.139343  0  1.034553  0  0  0.123682  0.13266  0  1.040688  0
H  H13  1  0.46476998  0.26676215  0.89110217  1  0  0.131511  0  0.968847  0  0  0.135458  0  1.038034  0  0  0.139313  0  1.034606  0  0  0.123678  0.132631  0  1.040737  0
H  H14  1  0.04594983  0.27127565  0.56652908  1  0  0.141818  0  0.97426  0  0  0.150447  0  1.036404  0  0  0.15422  0  1.034198  0  0  0.114246  0.147635  0  1.038325  0
H  H15  1  0.45404842  0.77127724  0.93347101  1  0  0.141831  0  0.974279  0  0  0.150454  0  1.036422  0  0  0.154226  0  1.034218  0  0  0.114247  0.147644  0  1.038346  0
H  H16  1  0.95404850  0.72872278  0.43347049  1  0  0.141805  0  0.974317  0  0  0.150472  0  1.036411  0  0  0.154245  0  1.034204  0  0  0.114246  0.147661  0  1.038336  0
H  H17  1  0.54595098  0.22872387  0.06652864  1  0  0.141813  0  0.974271  0  0  0.150445  0  1.036404  0  0  0.154218  0  1.0342  0  0  0.114245  0.147636  0  1.03833  0
H  H18  1  0.16366340  0.32378761  0.75898049  1  0  0.095565  0  0.956664  0  0  0.105621  0  1.016767  0  0  0.107077  0  1.017084  0  0  0.109137  0.104487  0  1.016633  0
H  H19  1  0.33633369  0.82378961  0.74102115  1  0  0.09561  0  0.956615  0  0  0.105642  0  1.016736  0  0  0.107098  0  1.017052  0  0  0.109157  0.104512  0  1.016598  0
H  H20  1  0.83633386  0.67621082  0.24102071  1  0  0.095599  0  0.956621  0  0  0.10565  0  1.016722  0  0  0.107105  0  1.017039  0  0  0.109157  0.10452  0  1.016584  0
H  H21  1  0.66366357  0.17621239  0.25898005  1  0  0.095573  0  0.956638  0  0  0.105622  0  1.016751  0  0  0.107076  0  1.017071  0  0  0.10915  0.104475  0  1.016632  0
H  H22  1  0.33566664  0.49327063  0.77992584  1  0  0.143465  0  0.946458  0  0  0.149794  0  1.009386  0  0  0.154193  0  1.006691  0  0  0.115567  0.146654  0  1.011418  0
H  H23  1  0.16433230  0.99327285  0.72007315  1  0  0.143454  0  0.946443  0  0  0.149788  0  1.009379  0  0  0.154188  0  1.006684  0  0  0.115559  0.146647  0  1.011409  0
H  H24  1  0.66433276  0.50672780  0.22007380  1  0  0.143436  0  0.946495  0  0  0.149793  0  1.009405  0  0  0.154192  0  1.006711  0  0  0.115564  0.146654  0  1.011437  0
H  H25  1  0.83566710  0.00672915  0.27992649  1  0  0.143456  0  0.946466  0  0  0.149783  0  1.009397  0  0  0.154181  0  1.006704  0  0  0.115565  0.146644  0  1.011429  0
H  H26  1  0.56470925  0.56942501  0.73671290  1  0  0.124531  0  1.00086  0  0  0.125769  0  1.074758  0  0  0.130228  0  1.070533  0  0  0.119217  0.122525  0  1.078002  0
H  H27  1  0.93529005  0.06942539  0.76328715  1  0  0.124533  0  1.000845  0  0  0.125774  0  1.074738  0  0  0.130232  0  1.070513  0  0  0.119212  0.122529  0  1.077982  0
H  H28  1  0.43529228  0.43057431  0.26328775  1  0  0.124505  0  1.000927  0  0  0.125747  0  1.074815  0  0  0.130205  0  1.070591  0  0  0.1192  0.122504  0  1.078064  0
H  H29  1  0.06470935  0.93057483  0.23671250  1  0  0.124528  0  1.000859  0  0  0.125769  0  1.074752  0  0  0.130227  0  1.070527  0  0  0.119222  0.122524  0  1.077999  0
H  H30  1  0.69143691  0.78518974  0.68111746  1  0  0.110664  0  0.960304  0  0  0.120543  0  1.019787  0  0  0.123213  0  1.018523  0  0  0.116418  0.118635  0  1.020694  0
H  H31  1  0.80856096  0.28518928  0.81888050  1  0  0.110611  0  0.960346  0  0  0.120489  0  1.01983  0  0  0.123157  0  1.018572  0  0  0.116394  0.11858  0  1.020738  0
H  H32  1  0.30856356  0.21481048  0.31888226  1  0  0.11064  0  0.960329  0  0  0.120555  0  1.019771  0  0  0.123225  0  1.018507  0  0  0.116422  0.118646  0  1.02068  0
H  H33  1  0.19143844  0.71481005  0.18111830  1  0  0.110613  0  0.960311  0  0  0.120494  0  1.019795  0  0  0.123163  0  1.018534  0  0  0.116404  0.118586  0  1.020704  0
H  H34  1  0.30452076  0.74465405  0.47275491  1  0  0.103251  0  0.939646  0  0  0.107532  0  1.010974  0  0  0.110743  0  1.006588  0  0  0.135869  0.105125  0  1.014247  0
H  H35  1  0.19547692  0.24465592  0.02724359  1  0  0.103246  0  0.939582  0  0  0.107533  0  1.010903  0  0  0.110743  0  1.006518  0  0  0.13588  0.105125  0  1.014176  0
H  H36  1  0.69547971  0.25534438  0.52724481  1  0  0.103242  0  0.939665  0  0  0.107542  0  1.010966  0  0  0.110748  0  1.006579  0  0  0.135895  0.105133  0  1.014235  0
H  H37  1  0.80452141  0.75534519  0.97275598  1  0  0.103212  0  0.939603  0  0  0.107505  0  1.010924  0  0  0.110712  0  1.006537  0  0  0.135864  0.105097  0  1.014197  0
C  C38  1  0.11058179  0.46512828  0.27924857  1  0  0.188105  0  3.648932  0  0  0.12361  0  3.920836  0  0  0.138309  0  3.933407  0  0  0.145202  0.114431  0  3.911931  0
C  C39  1  0.38941979  0.96512757  0.22075248  1  0  0.188067  0  3.649013  0  0  0.123567  0  3.920936  0  0  0.138266  0  3.933507  0  0  0.145176  0.114381  0  3.912023  0
C  C40  1  0.88941868  0.53487194  0.72075200  1  0  0.18808  0  3.648911  0  0  0.123592  0  3.920824  0  0  0.138289  0  3.933397  0  0  0.145202  0.114408  0  3.911914  0
C  C41  1  0.61058282  0.03487265  0.77924824  1  0  0.188146  0  3.649004  0  0  0.12367  0  3.920894  0  0  0.138369  0  3.933465  0  0  0.145235  0.114494  0  3.911988  0
C  C42  1  0.96849506  0.32057583  0.21924919  1  0  0.000614  0  3.745722  0  0  -0.030807  0  4.008416  0  0  -0.030077  0  4.030649  0  0  -0.006841  -0.030759  0  3.992945  0
C  C43  1  0.53150746  0.82057632  0.28075003  1  0  0.000572  0  3.745671  0  0  -0.030844  0  4.008391  0  0  -0.030118  0  4.030621  0  0  -0.006845  -0.030796  0  3.992921  0
C  C44  1  0.03150541  0.67942439  0.78074883  1  0  0.000556  0  3.745719  0  0  -0.030868  0  4.008432  0  0  -0.030141  0  4.030664  0  0  -0.006853  -0.030815  0  3.992961  0
C  C45  1  0.46849514  0.17942479  0.71924984  1  0  0.000625  0  3.745725  0  0  -0.030794  0  4.008425  0  0  -0.030065  0  4.030655  0  0  -0.006811  -0.03074  0  3.992951  0
C  C46  1  0.99699854  0.30314164  0.33465693  1  0  -0.044  0  3.625827  0  0  -0.083281  0  3.885098  0  0  -0.081727  0  3.903393  0  0  0.003525  -0.084522  0  3.87319  0
C  C47  1  0.50300402  0.80314143  0.16534317  1  0  -0.043982  0  3.62578  0  0  -0.083302  0  3.885051  0  0  -0.081748  0  3.903346  0  0  0.003508  -0.084542  0  3.873146  0
C  C48  1  0.00300300  0.69685858  0.66534286  1  0  -0.044003  0  3.625789  0  0  -0.083298  0  3.885055  0  0  -0.081743  0  3.903348  0  0  0.003505  -0.08454  0  3.873149  0
C  C49  1  0.49699752  0.19685879  0.83465663  1  0  -0.043971  0  3.625847  0  0  -0.08327  0  3.885111  0  0  -0.081717  0  3.903405  0  0  0.003519  -0.084513  0  3.873208  0
C  C50  1  0.15185159  0.41713702  0.48467971  1  0  0.358437  0  3.793247  0  0  0.333531  0  4.058321  0  0  0.347502  0  4.075412  0  0  0.226967  0.324383  0  4.0465  0
C  C51  1  0.34814793  0.91713933  0.01532040  1  0  0.358296  0  3.793272  0  0  0.333452  0  4.058257  0  0  0.347417  0  4.075358  0  0  0.226955  0.324303  0  4.046438  0
C  C52  1  0.84814781  0.58286141  0.51531993  1  0  0.358354  0  3.793249  0  0  0.333533  0  4.058215  0  0  0.347504  0  4.075307  0  0  0.22698  0.324385  0  4.046395  0
C  C53  1  0.65185254  0.08286178  0.98468102  1  0  0.358325  0  3.793258  0  0  0.333442  0  4.058315  0  0  0.347408  0  4.075413  0  0  0.226927  0.324293  0  4.046497  0
C  C54  1  0.11997641  0.34591799  0.57673663  1  0  -0.203512  0  3.662931  0  0  -0.226473  0  3.914584  0  0  -0.234965  0  3.932704  0  0  -0.087054  -0.221231  0  3.902623  0
C  C55  1  0.38001958  0.84591878  0.92326320  1  0  -0.203487  0  3.662949  0  0  -0.226471  0  3.914585  0  0  -0.234962  0  3.932709  0  0  -0.087073  -0.221234  0  3.902636  0
C  C56  1  0.88002193  0.65408134  0.42326294  1  0  -0.203523  0  3.662979  0  0  -0.226545  0  3.914596  0  0  -0.235038  0  3.932717  0  0  -0.087093  -0.221305  0  3.902644  0
C  C57  1  0.61997768  0.15408233  0.07673629  1  0  -0.203518  0  3.662893  0  0  -0.226482  0  3.914536  0  0  -0.234973  0  3.932658  0  0  -0.087065  -0.221244  0  3.902581  0
C  C58  1  0.18741400  0.37465108  0.68395588  1  0  0.033192  0  3.730177  0  0  0.019272  0  3.977146  0  0  0.024389  0  3.995499  0  0  -0.061524  0.016408  0  3.964364  0
C  C59  1  0.31258301  0.87465210  0.81604483  1  0  0.033191  0  3.730145  0  0  0.019303  0  3.977118  0  0  0.024421  0  3.99547  0  0  -0.061516  0.016434  0  3.964342  0
C  C60  1  0.81258326  0.62534825  0.31604531  1  0  0.033204  0  3.730122  0  0  0.019298  0  3.977105  0  0  0.024414  0  3.995461  0  0  -0.061527  0.016429  0  3.964328  0
C  C61  1  0.68741426  0.12534901  0.18395551  1  0  0.033224  0  3.730037  0  0  0.019307  0  3.977002  0  0  0.024425  0  3.995352  0  0  -0.061514  0.016453  0  3.964228  0
C  C62  1  0.28459446  0.46871205  0.69622394  1  0  -0.195888  0  3.671703  0  0  -0.215818  0  3.919798  0  0  -0.224768  0  3.939096  0  0  -0.083072  -0.210103  0  3.906751  0
C  C63  1  0.21540453  0.96871409  0.80377764  1  0  -0.195907  0  3.671798  0  0  -0.215865  0  3.919907  0  0  -0.224816  0  3.939209  0  0  -0.083096  -0.210148  0  3.906858  0
C  C64  1  0.71540388  0.53128638  0.30377733  1  0  -0.195904  0  3.671834  0  0  -0.215875  0  3.919936  0  0  -0.224821  0  3.939231  0  0  -0.083088  -0.210164  0  3.9069  0
C  C65  1  0.78459487  0.03128702  0.19622371  1  0  -0.195874  0  3.6717  0  0  -0.215802  0  3.919797  0  0  -0.224747  0  3.93909  0  0  -0.083076  -0.210088  0  3.906749  0
C  C66  1  0.30882019  0.53152307  0.59703725  1  0  0.355477  0  3.797437  0  0  0.332489  0  4.057803  0  0  0.346003  0  4.075099  0  0  0.227487  0.323513  0  4.046204  0
C  C67  1  0.19117848  0.03152441  0.90296233  1  0  0.355406  0  3.797435  0  0  0.332422  0  4.057811  0  0  0.345935  0  4.075109  0  0  0.227452  0.323446  0  4.046209  0
C  C68  1  0.69118028  0.46847536  0.40296162  1  0  0.355423  0  3.797471  0  0  0.332415  0  4.057877  0  0  0.345929  0  4.075174  0  0  0.227423  0.323441  0  4.046273  0
C  C69  1  0.80881985  0.96847670  0.09703809  1  0  0.355412  0  3.797508  0  0  0.332411  0  4.057888  0  0  0.345924  0  4.075186  0  0  0.227454  0.323436  0  4.046283  0
C  C70  1  0.53116081  0.63848534  0.67493526  1  0  -0.042145  0  3.632638  0  0  -0.083261  0  3.896142  0  0  -0.080827  0  3.912113  0  0  0.000909  -0.085112  0  3.885833  0
C  C71  1  0.96883838  0.13848648  0.82506299  1  0  -0.042173  0  3.63264  0  0  -0.0833  0  3.896157  0  0  -0.080865  0  3.912127  0  0  0.000907  -0.085149  0  3.885841  0
C  C72  1  0.46884073  0.36151399  0.32506454  1  0  -0.042059  0  3.632646  0  0  -0.083182  0  3.896147  0  0  -0.080748  0  3.91212  0  0  0.000951  -0.085034  0  3.885842  0
C  C73  1  0.03116102  0.86151284  0.17493751  1  0  -0.042134  0  3.632601  0  0  -0.083254  0  3.896108  0  0  -0.080819  0  3.912078  0  0  0.000913  -0.085104  0  3.885797  0
C  C74  1  0.59093701  0.74540132  0.64792639  1  0  -0.002275  0  3.72694  0  0  -0.038309  0  3.999553  0  0  -0.037285  0  4.019532  0  0  -0.007857  -0.038562  0  3.985639  0
C  C75  1  0.90906092  0.24540071  0.85207077  1  0  -0.002184  0  3.726882  0  0  -0.038215  0  3.999493  0  0  -0.037191  0  4.019471  0  0  -0.007848  -0.03847  0  3.98558  0
C  C76  1  0.40906346  0.25459889  0.35207333  1  0  -0.002318  0  3.726977  0  0  -0.038385  0  3.999585  0  0  -0.03736  0  4.019564  0  0  -0.007899  -0.038637  0  3.985671  0
C  C77  1  0.09093848  0.75459772  0.14792802  1  0  -0.002204  0  3.726886  0  0  -0.038238  0  3.999503  0  0  -0.037214  0  4.01948  0  0  -0.007863  -0.038493  0  3.985593  0
C  C78  1  0.39488572  0.72828448  0.53482241  1  0  0.178212  0  3.64184  0  0  0.114578  0  3.913702  0  0  0.129947  0  3.922979  0  0  0.142021  0.104565  0  3.907323  0
C  C79  1  0.10511367  0.22828761  0.96517611  1  0  0.178235  0  3.641668  0  0  0.114596  0  3.913537  0  0  0.129966  0  3.922813  0  0  0.141979  0.104578  0  3.907165  0
C  C80  1  0.60511582  0.27171305  0.46517654  1  0  0.178195  0  3.641771  0  0  0.114535  0  3.913645  0  0  0.12991  0  3.922916  0  0  0.141949  0.104521  0  3.907264  0
C  C81  1  0.89488573  0.77171350  0.03482438  1  0  0.178253  0  3.64164  0  0  0.114606  0  3.913521  0  0  0.129981  0  3.922791  0  0  0.142016  0.104589  0  3.907146  0
N  N82  1  0.03969358  0.42141454  0.18590319  1  0  -0.376778  0  3.222292  0  0  -0.300807  0  3.500405  0  0  -0.321648  0  3.519543  0  0  -0.352132  -0.286476  0  3.486656  0
N  N83  1  0.46030807  0.92141541  0.31409622  1  0  -0.376765  0  3.222452  0  0  -0.30076  0  3.500469  0  0  -0.321602  0  3.519609  0  0  -0.352114  -0.286427  0  3.486719  0
N  N84  1  0.96030796  0.57858478  0.81409661  1  0  -0.37677  0  3.222339  0  0  -0.300784  0  3.500401  0  0  -0.32162  0  3.519535  0  0  -0.352123  -0.286462  0  3.48666  0
N  N85  1  0.53969454  0.07858481  0.68590451  1  0  -0.376853  0  3.222445  0  0  -0.300887  0  3.500549  0  0  -0.321724  0  3.519679  0  0  -0.352164  -0.286562  0  3.486802  0
N  N86  1  0.08793919  0.39606528  0.37228599  1  0  -0.127854  0  3.572111  0  0  -0.037171  0  3.783273  0  0  -0.054204  0  3.809052  0  0  -0.220322  -0.026091  0  3.765713  0
N  N87  1  0.41206144  0.89606468  0.12771423  1  0  -0.127804  0  3.572035  0  0  -0.037143  0  3.783194  0  0  -0.054174  0  3.808974  0  0  -0.220312  -0.026061  0  3.765637  0
N  N88  1  0.91206021  0.60393583  0.62771450  1  0  -0.127751  0  3.571941  0  0  -0.037112  0  3.783101  0  0  -0.054146  0  3.808882  0  0  -0.220319  -0.026032  0  3.765544  0
N  N89  1  0.58794010  0.10393553  0.87228642  1  0  -0.127774  0  3.571984  0  0  -0.037115  0  3.783156  0  0  -0.054146  0  3.808937  0  0  -0.220325  -0.026033  0  3.765597  0
N  N90  1  0.24393330  0.50836763  0.49372151  1  0  -0.443134  0  3.05966  0  0  -0.415851  0  3.331032  0  0  -0.430604  0  3.34424  0  0  -0.315992  -0.405947  0  3.322163  0
N  N91  1  0.25606585  0.00836858  0.00627912  1  0  -0.443036  0  3.059564  0  0  -0.415767  0  3.330911  0  0  -0.430517  0  3.34412  0  0  -0.315966  -0.405863  0  3.322041  0
N  N92  1  0.75606717  0.49163080  0.50627906  1  0  -0.44306  0  3.059603  0  0  -0.41579  0  3.330949  0  0  -0.430543  0  3.344156  0  0  -0.315948  -0.405886  0  3.322077  0
N  N93  1  0.74393462  0.99163253  0.99372146  1  0  -0.443068  0  3.059679  0  0  -0.415789  0  3.331039  0  0  -0.430541  0  3.344248  0  0  -0.315976  -0.405885  0  3.322166  0
N  N94  1  0.40693446  0.62826883  0.60195472  1  0  -0.119225  0  3.570034  0  0  -0.029178  0  3.783192  0  0  -0.044989  0  3.806418  0  0  -0.222304  -0.018728  0  3.767449  0
N  N95  1  0.09306510  0.12827117  0.89804309  1  0  -0.119171  0  3.569942  0  0  -0.029116  0  3.783101  0  0  -0.044927  0  3.806327  0  0  -0.222208  -0.018667  0  3.767358  0
N  N96  1  0.59306707  0.37172871  0.39804423  1  0  -0.119203  0  3.570019  0  0  -0.029139  0  3.783181  0  0  -0.044951  0  3.806409  0  0  -0.222244  -0.018691  0  3.767441  0
N  N97  1  0.90693430  0.87172994  0.10195655  1  0  -0.119203  0  3.569962  0  0  -0.029149  0  3.783121  0  0  -0.044961  0  3.806348  0  0  -0.222239  -0.0187  0  3.767378  0
N  N98  1  0.50454111  0.80071538  0.56151324  1  0  -0.380748  0  3.23814  0  0  -0.305724  0  3.521582  0  0  -0.325093  0  3.537844  0  0  -0.353035  -0.292315  0  3.509967  0
N  N99  1  0.99545673  0.30071722  0.93848554  1  0  -0.380804  0  3.238067  0  0  -0.305781  0  3.521526  0  0  -0.325148  0  3.537778  0  0  -0.353051  -0.292374  0  3.509912  0
N  N100  1  0.49545936  0.19928216  0.43848733  1  0  -0.380709  0  3.238044  0  0  -0.305688  0  3.521528  0  0  -0.32505  0  3.537771  0  0  -0.35302  -0.292278  0  3.509906  0
N  N101  1  0.00454267  0.69928300  0.06151495  1  0  -0.380784  0  3.238048  0  0  -0.305767  0  3.521513  0  0  -0.325134  0  3.537766  0  0  -0.353059  -0.292359  0  3.509899  0
N  N102  1  0.33943162  0.47708032  0.04845619  1  0  0.696894  0  4.154598  0  0  0.726891  0  4.453984  0  0  0.754476  0  4.460368  0  0  0.094597  0.707858  0  4.450001  0
N  N103  1  0.16056993  0.97708042  0.45154399  1  0  0.696845  0  4.154453  0  0  0.726831  0  4.453859  0  0  0.754414  0  4.460243  0  0  0.094579  0.707797  0  4.449875  0
N  N104  1  0.66056992  0.52291990  0.95154361  1  0  0.696831  0  4.154645  0  0  0.726802  0  4.454067  0  0  0.754386  0  4.460454  0  0  0.094541  0.707767  0  4.450085  0
N  N105  1  0.83943161  0.02291980  0.54845666  1  0  0.696888  0  4.154587  0  0  0.726867  0  4.453998  0  0  0.754445  0  4.460381  0  0  0.094599  0.707833  0  4.450015  0
O  O106  1  0.24646959  0.49431106  0.96260720  1  0  -0.518232  0  1.817246  0  0  -0.494765  0  2.064581  0  0  -0.511301  0  2.054427  0  0  -0.22302  -0.482844  0  2.071796  0
O  O107  1  0.25353149  0.99431076  0.53739365  1  0  -0.51817  0  1.817298  0  0  -0.494679  0  2.064617  0  0  -0.511216  0  2.054467  0  0  -0.222983  -0.482761  0  2.07183  0
O  O108  1  0.75353088  0.50568916  0.03739337  1  0  -0.518155  0  1.817279  0  0  -0.494661  0  2.064601  0  0  -0.5112  0  2.054451  0  0  -0.222967  -0.482743  0  2.071816  0
O  O109  1  0.74647004  0.00568945  0.46260700  1  0  -0.518269  0  1.817292  0  0  -0.494782  0  2.064613  0  0  -0.511315  0  2.054458  0  0  -0.223039  -0.482867  0  2.071833  0
O  O110  1  0.41973399  0.38686153  0.04819912  1  0  -0.46663  0  1.761104  0  0  -0.462684  0  1.981402  0  0  -0.476302  0  1.975438  0  0  -0.196754  -0.452999  0  1.985859  0
O  O111  1  0.08026771  0.88686082  0.45180119  1  0  -0.466712  0  1.760977  0  0  -0.462754  0  1.981274  0  0  -0.47637  0  1.975309  0  0  -0.1968  -0.453073  0  1.985732  0
O  O112  1  0.58026754  0.61313958  0.95180068  1  0  -0.466671  0  1.761098  0  0  -0.462709  0  1.98138  0  0  -0.476321  0  1.975408  0  0  -0.196767  -0.453024  0  1.985835  0
O  O113  1  0.91973382  0.11313939  0.54819946  1  0  -0.466635  0  1.761097  0  0  -0.46268  0  1.981388  0  0  -0.476296  0  1.975425  0  0  -0.196755  -0.452995  0  1.98584  0
O  O114  1  0.34849003  0.54941923  0.13111035  1  0  -0.465525  0  1.759545  0  0  -0.457457  0  1.977058  0  0  -0.471128  0  1.971478  0  0  -0.189168  -0.447935  0  1.981037  0
O  O115  1  0.15151012  0.04941887  0.36888944  1  0  -0.465475  0  1.759471  0  0  -0.457418  0  1.976996  0  0  -0.471096  0  1.971423  0  0  -0.189151  -0.4479  0  1.980978  0
O  O116  1  0.65151044  0.45058099  0.86889022  1  0  -0.465524  0  1.759566  0  0  -0.457441  0  1.977091  0  0  -0.471117  0  1.971517  0  0  -0.189156  -0.447921  0  1.981072  0
O  O117  1  0.84849142  0.95058134  0.63111036  1  0  -0.465488  0  1.759521  0  0  -0.457415  0  1.977046  0  0  -0.471088  0  1.971472  0  0  -0.189155  -0.447896  0  1.981026  0
