# generated using pymatgen
data_CuH14C13SN3
_symmetry_space_group_name_H-M   'P 1'
_cell_length_a   7.86320779
_cell_length_b   8.84954330
_cell_length_c   22.13698271
_cell_angle_alpha   85.70895442
_cell_angle_beta   80.30420723
_cell_angle_gamma   63.62322371
_symmetry_Int_Tables_number   1
_chemical_formula_structural   CuH14C13SN3
_chemical_formula_sum   'Cu4 H56 C52 S4 N12'
_cell_volume   1360.33661183
_cell_formula_units_Z   4
loop_
 _symmetry_equiv_pos_site_id
 _symmetry_equiv_pos_as_xyz
  1  'x, y, z'
loop_
 _atom_site_type_symbol
 _atom_site_label
 _atom_site_symmetry_multiplicity
 _atom_site_fract_x
 _atom_site_fract_y
 _atom_site_fract_z
 _atom_site_occupancy
 _atom_site_hle17_bader_spin_density
 _atom_site_hle17_ddec_charge
 _atom_site_hle17_ddec_spin_density
 _atom_site_hle17_ddec_sum_bond_order
 _atom_site_hle17_magmom
 _atom_site_hse06_10hf_bader_spin_density
 _atom_site_hse06_10hf_ddec_charge
 _atom_site_hse06_10hf_ddec_spin_density
 _atom_site_hse06_10hf_ddec_sum_bond_order
 _atom_site_hse06_10hf_magmom
 _atom_site_hse06_bader_spin_density
 _atom_site_hse06_ddec_charge
 _atom_site_hse06_ddec_spin_density
 _atom_site_hse06_ddec_sum_bond_order
 _atom_site_hse06_magmom
 _atom_site_pbe_bader_charge
 _atom_site_pbe_bader_spin_density
 _atom_site_pbe_cm5_charge
 _atom_site_pbe_ddec_charge
 _atom_site_pbe_ddec_spin_density
 _atom_site_pbe_ddec_sum_bond_order
 _atom_site_pbe_magmom
Cu  Cu0  1  0.15157594  0.60730294  0.09470055  1  0  0.439743  0  2.139527  0  0  0.340924  0  2.641764  0  0  0.329245  0  2.606199  0  0.692795  0  0.528733  0.353741  0  2.661741  0
Cu  Cu1  1  0.85044546  0.39234840  0.90603071  1  0  0.439166  0  2.13625  0  0  0.340181  0  2.637862  0  0  0.328571  0  2.602269  0  0.693476  0  0.527892  0.352993  0  2.657821  0
Cu  Cu2  1  0.49358402  0.10815901  0.40576607  1  0  0.439448  0  2.134301  0  0  0.340595  0  2.63576  0  0  0.329054  0  2.600086  0  0.692969  0  0.527126  0.353345  0  2.655741  0
Cu  Cu3  1  0.01006208  0.89185811  0.59445844  1  0  0.439335  0  2.140504  0  0  0.340646  0  2.642751  0  0  0.328943  0  2.607195  0  0.694676  0  0.528708  0.35346  0  2.662712  0
H  H4  1  0.26373295  0.52018645  0.23646020  1  0  0.120657  0  0.938871  0  0  0.145764  0  0.994301  0  0  0.146739  0  0.994382  0  0.030138  0  0.09475  0.144967  0  0.994356  0
H  H5  1  0.01208764  0.47999843  0.76442936  1  0  0.119962  0  0.939655  0  0  0.145429  0  0.99458  0  0  0.146456  0  0.994609  0  0.056432  0  0.0942  0.1446  0  0.994663  0
H  H6  1  0.74235690  0.02024537  0.26401599  1  0  0.120847  0  0.939317  0  0  0.146279  0  0.994159  0  0  0.147252  0  0.994251  0  0.03934  0  0.094581  0.145499  0  0.994181  0
H  H7  1  0.03478024  0.97971500  0.73630872  1  0  0.120647  0  0.939062  0  0  0.145934  0  0.994188  0  0  0.146924  0  0.994258  0  0.02913  0  0.09473  0.145139  0  0.994233  0
H  H8  1  0.83948571  0.88878428  0.04976864  1  0  0.125843  0  0.950405  0  0  0.148269  0  1.008785  0  0  0.149437  0  1.008391  0  0.074667  0  0.096239  0.14732  0  1.009183  0
H  H9  1  0.77880752  0.11038271  0.95128589  1  0  0.125538  0  0.950381  0  0  0.147811  0  1.008824  0  0  0.148988  0  1.00843  0  0.082053  0  0.096118  0.146849  0  1.009234  0
H  H10  1  0.14034530  0.39009569  0.45132703  1  0  0.12614  0  0.950435  0  0  0.1481  0  1.009318  0  0  0.149274  0  1.008932  0  0.070364  0  0.096239  0.147133  0  1.009727  0
H  H11  1  0.97971788  0.61012703  0.54966507  1  0  0.125409  0  0.950408  0  0  0.147683  0  1.009056  0  0  0.148868  0  1.008642  0  0.069628  0  0.096112  0.146715  0  1.00947  0
H  H12  1  0.16699694  0.72992924  0.20916799  1  0  0.121246  0  0.95841  0  0  0.13722  0  1.02704  0  0  0.139787  0  1.025136  0  0.062293  0  0.092853  0.135351  0  1.028364  0
H  H13  1  0.09951260  0.27075890  0.79224974  1  0  0.120972  0  0.958915  0  0  0.136757  0  1.027872  0  0  0.139316  0  1.025987  0  0.072982  0  0.092531  0.134883  0  1.0292  0
H  H14  1  0.62075692  0.22952904  0.29183911  1  0  0.121487  0  0.959144  0  0  0.137486  0  1.027589  0  0  0.140084  0  1.025668  0  0.074635  0  0.092744  0.135556  0  1.028975  0
H  H15  1  0.14778458  0.76990031  0.70900318  1  0  0.121706  0  0.957921  0  0  0.137418  0  1.026909  0  0  0.139993  0  1.02501  0  0.066197  0  0.092582  0.135517  0  1.028265  0
H  H16  1  0.79698373  0.91154471  0.13010653  1  0  0.117258  0  0.948219  0  0  0.139062  0  1.008362  0  0  0.140737  0  1.007666  0  0.049266  0  0.09275  0.137864  0  1.008857  0
H  H17  1  0.83408182  0.08776481  0.87091488  1  0  0.116891  0  0.949045  0  0  0.138201  0  1.009895  0  0  0.139878  0  1.009204  0  0.047083  0  0.092744  0.137006  0  1.010389  0
H  H18  1  0.17285426  0.41258367  0.37095742  1  0  0.116831  0  0.949397  0  0  0.138347  0  1.010026  0  0  0.140031  0  1.009316  0  0.053713  0  0.092778  0.137149  0  1.010523  0
H  H19  1  0.95950771  0.58784842  0.63004040  1  0  0.116943  0  0.948742  0  0  0.138563  0  1.008995  0  0  0.14023  0  1.008316  0  0.049121  0  0.092627  0.137362  0  1.009487  0
H  H20  1  0.10905298  0.68755537  0.28844128  1  0  0.117829  0  0.954319  0  0  0.137978  0  1.015916  0  0  0.138947  0  1.016599  0  0.06577  0  0.090182  0.137297  0  1.015382  0
H  H21  1  0.07688903  0.31145018  0.71269194  1  0  0.118054  0  0.954139  0  0  0.138518  0  1.015292  0  0  0.139481  0  1.015918  0  0.075675  0  0.090394  0.137842  0  1.014793  0
H  H22  1  0.63839552  0.18886929  0.21232058  1  0  0.11828  0  0.954584  0  0  0.138625  0  1.015878  0  0  0.139582  0  1.016519  0  0.037907  0  0.090048  0.137956  0  1.015362  0
H  H23  1  0.04725276  0.81239527  0.78828493  1  0  0.118518  0  0.953746  0  0  0.13869  0  1.015294  0  0  0.139641  0  1.016005  0  0.062537  0  0.090499  0.138019  0  1.014737  0
H  H24  1  0.71274648  0.09551433  0.08330380  1  0  0.105076  0  1.01723  0  0  0.121878  0  1.086784  0  0  0.122202  0  1.088458  0  0.077196  0  0.077543  0.121669  0  1.085486  0
H  H25  1  0.89047044  0.90370942  0.91770492  1  0  0.105102  0  1.015894  0  0  0.121567  0  1.085823  0  0  0.121903  0  1.08745  0  0.072746  0  0.077805  0.121346  0  1.084564  0
H  H26  1  0.04528851  0.59672934  0.41770622  1  0  0.10544  0  1.016137  0  0  0.122329  0  1.08552  0  0  0.122664  0  1.087153  0  0.069768  0  0.078075  0.122089  0  1.084266  0
H  H27  1  0.05952663  0.40358419  0.58335073  1  0  0.105146  0  1.0173  0  0  0.121781  0  1.087143  0  0  0.12207  0  1.08885  0  0.073641  0  0.077593  0.121586  0  1.085831  0
H  H28  1  0.81516017  0.66858771  0.31952357  1  0  0.103621  0  0.976956  0  0  0.113382  0  1.04181  0  0  0.115837  0  1.042227  0  0.071918  0  0.097623  0.111536  0  1.041799  0
H  H29  1  0.79488758  0.33078614  0.68046999  1  0  0.103928  0  0.974284  0  0  0.113838  0  1.038955  0  0  0.116282  0  1.039368  0  0.106105  0  0.098071  0.111967  0  1.038972  0
H  H30  1  0.37506786  0.17012615  0.18029610  1  0  0.104013  0  0.974236  0  0  0.113223  0  1.039649  0  0  0.115675  0  1.040069  0  0.106113  0  0.098225  0.111365  0  1.039665  0
H  H31  1  0.73376968  0.83292065  0.81942066  1  0  0.103631  0  0.97664  0  0  0.113498  0  1.041512  0  0  0.115984  0  1.041885  0  0.073257  0  0.097585  0.111635  0  1.041523  0
H  H32  1  0.90468048  0.24445544  0.06736780  1  0  0.10597  0  0.974564  0  0  0.115237  0  1.038007  0  0  0.117182  0  1.039183  0  0.097854  0  0.100607  0.113741  0  1.037447  0
H  H33  1  0.21746703  0.75470146  0.93213631  1  0  0.105764  0  0.973795  0  0  0.115072  0  1.036888  0  0  0.116972  0  1.038085  0  0.076086  0  0.101113  0.113597  0  1.036344  0
H  H34  1  0.22338970  0.74549891  0.43238627  1  0  0.106426  0  0.972531  0  0  0.115445  0  1.03602  0  0  0.117391  0  1.037201  0  0.097086  0  0.101072  0.113939  0  1.035476  0
H  H35  1  0.40024302  0.25461281  0.56768829  1  0  0.105169  0  0.974811  0  0  0.114578  0  1.037968  0  0  0.116417  0  1.039242  0  0.080431  0  0.100768  0.113132  0  1.037404  0
H  H36  1  0.54147837  0.62503829  0.29461900  1  0  0.090943  0  0.945439  0  0  0.104068  0  1.001  0  0  0.106255  0  1.00006  0  0.06748  0  0.10374  0.102418  0  1.001795  0
H  H37  1  0.45426526  0.37356742  0.70421851  1  0  0.090249  0  0.947582  0  0  0.103298  0  1.003381  0  0  0.105428  0  1.002544  0  0.080814  0  0.103388  0.101699  0  1.004062  0
H  H38  1  0.07729522  0.12725280  0.20427468  1  0  0.090637  0  0.946818  0  0  0.103376  0  1.003049  0  0  0.105589  0  1.002155  0  0.095882  0  0.103401  0.101697  0  1.003833  0
H  H39  1  0.41661698  0.87641331  0.79449313  1  0  0.090578  0  0.945183  0  0  0.103689  0  1.000653  0  0  0.105991  0  0.999552  0  0.092467  0  0.103724  0.101977  0  1.001507  0
H  H40  1  0.22338841  0.24907311  0.06312149  1  0  0.08981  0  0.969532  0  0  0.093643  0  1.043947  0  0  0.097193  0  1.040529  0  0.117373  0  0.097726  0.090823  0  1.046614  0
H  H41  1  0.53687635  0.75064129  0.93574981  1  0  0.089873  0  0.97001  0  0  0.09357  0  1.044852  0  0  0.097166  0  1.04136  0  0.125942  0  0.097105  0.090778  0  1.047514  0
H  H42  1  0.53886673  0.74949476  0.43582769  1  0  0.090288  0  0.971056  0  0  0.093807  0  1.045781  0  0  0.097468  0  1.042235  0  0.11408  0  0.097327  0.09098  0  1.048477  0
H  H43  1  0.72356407  0.25019947  0.56321884  1  0  0.089482  0  0.970721  0  0  0.093333  0  1.045081  0  0  0.096929  0  1.041617  0  0.111229  0  0.097369  0.090532  0  1.04773  0
H  H44  1  0.55438339  0.54783447  0.18495118  1  0  0.089685  0  1.004149  0  0  0.096142  0  1.074782  0  0  0.098583  0  1.075304  0  0.115212  0  0.093075  0.094266  0  1.074667  0
H  H45  1  0.28320522  0.44939010  0.81369691  1  0  0.089308  0  1.002484  0  0  0.095433  0  1.07322  0  0  0.097826  0  1.073857  0  0.074879  0  0.093253  0.09364  0  1.073006  0
H  H46  1  0.98288471  0.05085496  0.31375103  1  0  0.089549  0  1.001523  0  0  0.096011  0  1.072198  0  0  0.098453  0  1.072738  0  0.076666  0  0.093301  0.094197  0  1.07201  0
H  H47  1  0.35305829  0.95211238  0.68468610  1  0  0.089244  0  1.003658  0  0  0.095375  0  1.074781  0  0  0.097837  0  1.075285  0  0.11343  0  0.092699  0.093548  0  1.074631  0
H  H48  1  0.51043693  0.97351311  0.07714641  1  0  0.099816  0  0.975002  0  0  0.114281  0  1.031139  0  0  0.116465  0  1.031677  0  0.093417  0  0.104174  0.112682  0  1.030921  0
H  H49  1  0.56023351  0.02687862  0.92244019  1  0  0.099531  0  0.975136  0  0  0.114177  0  1.031234  0  0  0.11628  0  1.031906  0  0.075505  0  0.103973  0.112654  0  1.030885  0
H  H50  1  0.83846887  0.47328319  0.42221533  1  0  0.099728  0  0.974806  0  0  0.114155  0  1.031249  0  0  0.116284  0  1.031849  0  0.075547  0  0.104013  0.112589  0  1.030994  0
H  H51  1  0.73506044  0.52589137  0.57685807  1  0  0.099281  0  0.974478  0  0  0.113902  0  1.030533  0  0  0.116022  0  1.031146  0  0.073865  0  0.104051  0.112358  0  1.030252  0
H  H52  1  0.82953495  0.53245652  0.10750324  1  0  0.078832  0  0.948127  0  0  0.087016  0  1.012672  0  0  0.089142  0  1.010854  0  0.107953  0  0.112441  0.085342  0  1.014172  0
H  H53  1  0.46687910  0.46460282  0.89203945  1  0  0.079248  0  0.947742  0  0  0.087701  0  1.012353  0  0  0.089838  0  1.010527  0  0.114661  0  0.112529  0.086023  0  1.013838  0
H  H54  1  0.18247370  0.03539123  0.39192179  1  0  0.079397  0  0.947357  0  0  0.087618  0  1.012207  0  0  0.089719  0  1.01044  0  0.113452  0  0.11237  0.085927  0  1.0137  0
H  H55  1  0.61342457  0.96622650  0.60719586  1  0  0.078997  0  0.947204  0  0  0.087465  0  1.011845  0  0  0.089527  0  1.01007  0  0.101089  0  0.112362  0.085846  0  1.013264  0
H  H56  1  0.46526432  0.71087960  0.09320416  1  0  0.060643  0  0.986287  0  0  0.068414  0  1.055557  0  0  0.070094  0  1.054533  0  0.099172  0  0.102066  0.067097  0  1.056461  0
H  H57  1  0.26630700  0.28959159  0.90752381  1  0  0.060706  0  0.987661  0  0  0.068735  0  1.056645  0  0  0.070414  0  1.05563  0  0.087716  0  0.10204  0.067483  0  1.057433  0
H  H58  1  0.80713372  0.21067112  0.40721484  1  0  0.060703  0  0.987184  0  0  0.068665  0  1.056111  0  0  0.070307  0  1.055156  0  0.094907  0  0.102249  0.067365  0  1.056961  0
H  H59  1  0.42724273  0.78857534  0.59286716  1  0  0.06057  0  0.986544  0  0  0.06883  0  1.055267  0  0  0.070501  0  1.054286  0  0.083985  0  0.102278  0.067521  0  1.056131  0
C  C60  1  0.01711586  0.58535102  0.97192602  1  0  0.277499  0  3.975709  0  0  0.26996  0  4.271734  0  0  0.285933  0  4.284454  0  0.562009  0  0.136999  0.259326  0  4.262763  0
C  C61  1  0.57458886  0.41535604  0.02806145  1  0  0.278351  0  3.972826  0  0  0.270976  0  4.268702  0  0  0.286926  0  4.281469  0  0.570238  0  0.137192  0.260364  0  4.259691  0
C  C62  1  0.24060747  0.08480325  0.52780337  1  0  0.278462  0  3.973522  0  0  0.271098  0  4.269414  0  0  0.287039  0  4.282173  0  0.563718  0  0.136783  0.26049  0  4.260398  0
C  C63  1  0.85302569  0.91443312  0.47175728  1  0  0.276342  0  3.976605  0  0  0.268793  0  4.272836  0  0  0.284751  0  4.28557  0  0.563736  0  0.136494  0.258162  0  4.263865  0
C  C64  1  0.96652765  0.62186104  0.22716142  1  0  0.298224  0  3.711466  0  0  0.307883  0  3.952133  0  0  0.315952  0  3.971688  0  0.479532  0  0.113993  0.302414  0  3.939149  0
C  C65  1  0.80926027  0.37686450  0.77320132  1  0  0.297516  0  3.712626  0  0  0.307362  0  3.952627  0  0  0.315373  0  3.972247  0  0.486112  0  0.112758  0.30194  0  3.939582  0
C  C66  1  0.43635173  0.12348651  0.27293865  1  0  0.298015  0  3.712831  0  0  0.307985  0  3.952487  0  0  0.316067  0  3.972016  0  0.482236  0  0.114086  0.302512  0  3.939514  0
C  C67  1  0.83917352  0.87819302  0.72695789  1  0  0.295809  0  3.713558  0  0  0.307316  0  3.951705  0  0  0.315375  0  3.971246  0  0.4569  0  0.113188  0.301852  0  3.938733  0
C  C68  1  0.81354662  0.63706115  0.27301381  1  0  -0.179814  0  3.71113  0  0  -0.194382  0  3.949517  0  0  -0.203616  0  3.972505  0  -0.008178  0  -0.091654  -0.188547  0  3.934459  0
C  C69  1  0.71655198  0.36174133  0.72687256  1  0  -0.178679  0  3.711362  0  0  -0.193357  0  3.949411  0  0  -0.202585  0  3.972534  0  -0.074563  0  -0.090331  -0.187486  0  3.934272  0
C  C70  1  0.32809110  0.13890483  0.22669992  1  0  -0.178479  0  3.70858  0  0  -0.192532  0  3.946882  0  0  -0.201785  0  3.96996  0  -0.097674  0  -0.091451  -0.186667  0  3.931748  0
C  C71  1  0.70096929  0.86387584  0.77286073  1  0  -0.179551  0  3.712078  0  0  -0.195027  0  3.950014  0  0  -0.204302  0  3.97306  0  0.020996  0  -0.091989  -0.189164  0  3.934911  0
C  C72  1  0.66136377  0.61246424  0.25908714  1  0  0.002549  0  3.741823  0  0  -0.01454  0  3.98492  0  0  -0.008722  0  4.002482  0  -0.069419  0  -0.073826  -0.018279  0  3.973091  0
C  C73  1  0.52661212  0.38589929  0.74016495  1  0  0.001297  0  3.74336  0  0  -0.016086  0  3.986673  0  0  -0.010335  0  4.004391  0  -0.005439  0  -0.074256  -0.019768  0  3.974725  0
C  C74  1  0.16236045  0.11466362  0.24012507  1  0  0.001182  0  3.741111  0  0  -0.01588  0  3.984417  0  0  -0.010226  0  4.002127  0  -0.007312  0  -0.074054  -0.019506  0  3.972486  0
C  C75  1  0.52417871  0.88844751  0.75892903  1  0  0.003322  0  3.741489  0  0  -0.013569  0  3.984205  0  0  -0.007818  0  4.00175  0  -0.08502  0  -0.07301  -0.017248  0  3.972388  0
C  C76  1  0.66679144  0.57132015  0.19896734  1  0  -0.141681  0  3.77956  0  0  -0.153478  0  4.027298  0  0  -0.161925  0  4.05025  0  -0.058927  0  -0.096974  -0.148128  0  4.012199  0
C  C77  1  0.43242020  0.42637993  0.80016056  1  0  -0.138458  0  3.778972  0  0  -0.149499  0  4.026716  0  0  -0.157926  0  4.04972  0  -0.073324  0  -0.095003  -0.144182  0  4.011513  0
C  C78  1  0.10903451  0.07396351  0.30012856  1  0  -0.139063  0  3.777145  0  0  -0.150505  0  4.024919  0  0  -0.158966  0  4.047954  0  -0.032497  0  -0.095395  -0.145179  0  4.009699  0
C  C79  1  0.48889336  0.92879319  0.69874111  1  0  -0.141317  0  3.780248  0  0  -0.152867  0  4.028261  0  0  -0.161324  0  4.051215  0  -0.069909  0  -0.096746  -0.147576  0  4.013132  0
C  C80  1  0.82115651  0.56068222  0.15537937  1  0  0.119321  0  3.713079  0  0  0.091845  0  3.964522  0  0  0.098474  0  3.98086  0  0.464837  0  0.037168  0.087479  0  3.953893  0
C  C81  1  0.53335308  0.43683876  0.84424188  1  0  0.115929  0  3.71564  0  0  0.08769  0  3.96708  0  0  0.094247  0  3.983463  0  0.473496  0  0.034571  0.083267  0  3.956621  0
C  C82  1  0.22076605  0.06336972  0.34411485  1  0  0.116615  0  3.714558  0  0  0.088613  0  3.966198  0  0  0.09521  0  3.982641  0  0.4284  0  0.03572  0.084246  0  3.95562  0
C  C83  1  0.63294813  0.93867181  0.65512103  1  0  0.118659  0  3.712479  0  0  0.09054  0  3.964398  0  0  0.097192  0  3.980793  0  0.457789  0  0.036231  0.086173  0  3.953741  0
C  C84  1  0.13487161  0.64222875  0.24142726  1  0  -0.376057  0  3.709961  0  0  -0.45741  0  3.945136  0  0  -0.459149  0  3.950103  0  -0.076501  0  -0.242509  -0.455969  0  3.941691  0
C  C85  1  0.01123796  0.35737970  0.75956167  1  0  -0.375749  0  3.710401  0  0  -0.4575  0  3.945095  0  0  -0.459273  0  3.950111  0  -0.126664  0  -0.241801  -0.456031  0  3.941641  0
C  C86  1  0.61886072  0.14288932  0.25919448  1  0  -0.377877  0  3.711881  0  0  -0.459783  0  3.946611  0  0  -0.461565  0  3.951567  0  -0.073533  0  -0.242625  -0.458292  0  3.943187  0
C  C87  1  0.02794188  0.85765882  0.74125030  1  0  -0.376427  0  3.710042  0  0  -0.458373  0  3.944326  0  0  -0.46012  0  3.949318  0  -0.073875  0  -0.242127  -0.456909  0  3.940871  0
C  C88  1  0.01728948  0.97737778  0.08404549  1  0  0.302514  0  3.708296  0  0  0.312941  0  3.945662  0  0  0.321133  0  3.964681  0  0.490863  0  0.113207  0.307384  0  3.933093  0
C  C89  1  0.07733057  0.02224707  0.91650726  1  0  0.303652  0  3.707387  0  0  0.314089  0  3.944905  0  0  0.322377  0  3.963872  0  0.472574  0  0.114012  0.308496  0  3.932314  0
C  C90  1  0.35077623  0.47810015  0.41646433  1  0  0.30508  0  3.706006  0  0  0.315248  0  3.943921  0  0  0.323469  0  3.962939  0  0.487727  0  0.113946  0.309685  0  3.931315  0
C  C91  1  0.24582510  0.52182616  0.58406626  1  0  0.304811  0  3.704582  0  0  0.314088  0  3.943999  0  0  0.322315  0  3.96293  0  0.497092  0  0.114015  0.308527  0  3.931444  0
C  C92  1  0.03237916  0.12932262  0.07392093  1  0  -0.173868  0  3.692915  0  0  -0.188211  0  3.930691  0  0  -0.197075  0  3.953712  0  -0.05509  0  -0.089566  -0.182618  0  3.915609  0
C  C93  1  0.23562240  0.87017484  0.92586234  1  0  -0.172597  0  3.691258  0  0  -0.186675  0  3.928989  0  0  -0.195507  0  3.952112  0  -0.007181  0  -0.089526  -0.181107  0  3.913837  0
C  C94  1  0.35700610  0.63007472  0.42596806  1  0  -0.173066  0  3.69085  0  0  -0.186878  0  3.928719  0  0  -0.195736  0  3.951769  0  -0.067432  0  -0.0893  -0.181288  0  3.913638  0
C  C95  1  0.41279575  0.36981627  0.57408721  1  0  -0.173094  0  3.69103  0  0  -0.187105  0  3.930028  0  0  -0.195855  0  3.953008  0  -0.068502  0  -0.08943  -0.181603  0  3.91499  0
C  C96  1  0.20955356  0.13149838  0.07124876  1  0  -0.002274  0  3.738534  0  0  -0.020411  0  3.989378  0  0  -0.015202  0  4.006437  0  -0.093681  0  -0.07288  -0.023675  0  3.97803  0
C  C97  1  0.41247818  0.86828666  0.92818647  1  0  -0.003201  0  3.738405  0  0  -0.021386  0  3.989495  0  0  -0.016195  0  4.006537  0  -0.089943  0  -0.07298  -0.024705  0  3.978145  0
C  C98  1  0.53207381  0.63189228  0.42819891  1  0  -0.004521  0  3.741511  0  0  -0.022527  0  3.992356  0  0  -0.017399  0  4.009353  0  -0.082361  0  -0.073166  -0.025808  0  3.98103  0
C  C99  1  0.59209957  0.36775528  0.57127844  1  0  -0.002734  0  3.737615  0  0  -0.021142  0  3.988867  0  0  -0.01598  0  4.005875  0  -0.011676  0  -0.072753  -0.024436  0  3.97756  0
C  C100  1  0.36853157  0.97944003  0.07902924  1  0  -0.135414  0  3.769835  0  0  -0.147284  0  4.015117  0  0  -0.155334  0  4.038021  0  -0.060049  0  -0.093195  -0.142135  0  3.999893  0
C  C101  1  0.42605607  0.02068809  0.92079899  1  0  -0.134849  0  3.768039  0  0  -0.146895  0  4.013528  0  0  -0.154951  0  4.03655  0  0.00121  0  -0.093048  -0.141712  0  3.998201  0
C  C102  1  0.69803862  0.47950273  0.42063872  1  0  -0.135299  0  3.768305  0  0  -0.147263  0  4.013675  0  0  -0.155314  0  4.036697  0  -0.046684  0  -0.093622  -0.142123  0  3.99841  0
C  C103  1  0.59906090  0.51991526  0.57884613  1  0  -0.134449  0  3.76768  0  0  -0.146249  0  4.013071  0  0  -0.154258  0  4.036048  0  -0.020387  0  -0.093524  -0.141142  0  3.997815  0
C  C104  1  0.34437314  0.83291560  0.08822641  1  0  0.115401  0  3.741776  0  0  0.087398  0  3.991156  0  0  0.093673  0  4.008468  0  0.468123  0  0.033331  0.083251  0  3.979868  0
C  C105  1  0.26332323  0.16730585  0.91227089  1  0  0.114197  0  3.74194  0  0  0.086154  0  3.991532  0  0  0.092452  0  4.008848  0  0.429169  0  0.03308  0.081779  0  3.98062  0
C  C106  1  0.68185107  0.33295056  0.41204032  1  0  0.11534  0  3.740934  0  0  0.087706  0  3.990396  0  0  0.094017  0  4.007707  0  0.491135  0  0.033487  0.08356  0  3.979115  0
C  C107  1  0.42838921  0.66647627  0.58800345  1  0  0.115002  0  3.741771  0  0  0.086801  0  3.991181  0  0  0.09307  0  4.008518  0  0.435463  0  0.033554  0.082629  0  3.979956  0
C  C108  1  0.83032209  0.96939113  0.08684383  1  0  -0.38811  0  3.731762  0  0  -0.470854  0  3.967847  0  0  -0.472422  0  3.973353  0  -0.119767  0  -0.251667  -0.46954  0  3.964017  0
C  C109  1  0.88498567  0.02992722  0.91410175  1  0  -0.387746  0  3.731335  0  0  -0.469741  0  3.967913  0  0  -0.471301  0  3.973282  0  -0.127456  0  -0.251624  -0.468445  0  3.964187  0
C  C110  1  0.16602717  0.47049064  0.41411426  1  0  -0.38913  0  3.732408  0  0  -0.471173  0  3.968911  0  0  -0.472716  0  3.974304  0  -0.10542  0  -0.251977  -0.469862  0  3.965189  0
C  C111  1  0.05090823  0.52977496  0.58683080  1  0  -0.388323  0  3.73063  0  0  -0.470116  0  3.96733  0  0  -0.471653  0  3.972865  0  -0.121747  0  -0.251822  -0.468816  0  3.963507  0
S  S112  1  0.46158997  0.40273028  0.09624659  1  0  -0.374713  0  2.444334  0  0  -0.353521  0  2.840389  0  0  -0.358689  0  2.821786  0  -0.019273  0  -0.172527  -0.349779  0  2.851758  0
S  S113  1  0.95905060  0.59644428  0.90338410  1  0  -0.374348  0  2.442729  0  0  -0.352941  0  2.838032  0  0  -0.358236  0  2.819577  0  -0.018567  0  -0.17193  -0.349077  0  2.849249  0
S  S114  1  0.80616903  0.90379141  0.40316288  1  0  -0.374057  0  2.444877  0  0  -0.352627  0  2.840055  0  0  -0.357935  0  2.821624  0  -0.022752  0  -0.171503  -0.348757  0  2.851269  0
S  S115  1  0.11523049  0.09668862  0.59598807  1  0  -0.374511  0  2.44441  0  0  -0.353435  0  2.840338  0  0  -0.358597  0  2.821734  0  -0.01447  0  -0.172432  -0.349689  0  2.851711  0
N  N116  1  0.06094376  0.58040414  0.02100194  1  0  -0.50787  0  3.083616  0  0  -0.462236  0  3.402907  0  0  -0.470119  0  3.402392  0  -1.290424  0  -0.424202  -0.457717  0  3.40256  0
N  N117  1  0.66120394  0.42089700  0.97927925  1  0  -0.508405  0  3.083458  0  0  -0.463002  0  3.403477  0  0  -0.470779  0  3.402704  0  -1.301684  0  -0.424642  -0.458522  0  3.403213  0
N  N118  1  0.33285756  0.07961924  0.47906316  1  0  -0.508289  0  3.082651  0  0  -0.462702  0  3.402223  0  0  -0.470516  0  3.401531  0  -1.298546  0  -0.423873  -0.458213  0  3.401957  0
N  N119  1  0.89204349  0.91898142  0.52084267  1  0  -0.506965  0  3.084096  0  0  -0.461272  0  3.403271  0  0  -0.469148  0  3.402771  0  -1.289493  0  -0.423847  -0.456744  0  3.402904  0
N  N120  1  0.96805231  0.58695541  0.16821889  1  0  -0.349853  0  3.296211  0  0  -0.285553  0  3.584861  0  0  -0.295095  0  3.591541  0  -1.226115  0  -0.355324  -0.280112  0  3.580258  0
N  N121  1  0.71850442  0.41128200  0.83200157  1  0  -0.347748  0  3.294826  0  0  -0.282651  0  3.581827  0  0  -0.292168  0  3.588559  0  -1.233908  0  -0.353047  -0.277214  0  3.577177  0
N  N122  1  0.38036079  0.08899207  0.33176263  1  0  -0.348651  0  3.294335  0  0  -0.283665  0  3.581414  0  0  -0.29326  0  3.588159  0  -1.216621  0  -0.353834  -0.278195  0  3.576772  0
N  N123  1  0.80612363  0.91241502  0.66796785  1  0  -0.347989  0  3.295592  0  0  -0.283992  0  3.583379  0  0  -0.293469  0  3.590014  0  -1.21937  0  -0.35394  -0.278599  0  3.578804  0
N  N124  1  0.17331300  0.82972826  0.09080028  1  0  -0.353117  0  3.315615  0  0  -0.285869  0  3.598043  0  0  -0.295997  0  3.605792  0  -1.208719  0  -0.355597  -0.279995  0  3.59281  0
N  N125  1  0.09142551  0.17022832  0.91003090  1  0  -0.353467  0  3.314299  0  0  -0.286507  0  3.596954  0  0  -0.296729  0  3.604731  0  -1.218206  0  -0.355861  -0.280539  0  3.591648  0
N  N126  1  0.51282759  0.33013404  0.40983441  1  0  -0.354797  0  3.314516  0  0  -0.2883  0  3.59806  0  0  -0.298471  0  3.605759  0  -1.222528  0  -0.356071  -0.282399  0  3.592832  0
N  N127  1  0.25413289  0.66958920  0.59065313  1  0  -0.353616  0  3.315726  0  0  -0.286526  0  3.599493  0  0  -0.296647  0  3.607233  0  -1.224239  0  -0.356247  -0.280647  0  3.594237  0
