# generated using pymatgen
data_Al6H41C84N15(Cl3O7)4
_symmetry_space_group_name_H-M   'P 1'
_cell_length_a   13.03282609
_cell_length_b   12.74046633
_cell_length_c   30.54637127
_cell_angle_alpha   80.82060282
_cell_angle_beta   80.74493160
_cell_angle_gamma   61.08630433
_symmetry_Int_Tables_number   1
_chemical_formula_structural   Al6H41C84N15(Cl3O7)4
_chemical_formula_sum   'Al6 H41 C84 N15 Cl12 O28'
_cell_volume   4362.34793787
_cell_formula_units_Z   1
loop_
 _symmetry_equiv_pos_site_id
 _symmetry_equiv_pos_as_xyz
  1  'x, y, z'
loop_
 _atom_site_type_symbol
 _atom_site_label
 _atom_site_symmetry_multiplicity
 _atom_site_fract_x
 _atom_site_fract_y
 _atom_site_fract_z
 _atom_site_occupancy
 _atom_site_pbe_bader_charge
 _atom_site_pbe_bader_spin_density
 _atom_site_pbe_cm5_charge
 _atom_site_pbe_ddec_charge
 _atom_site_pbe_ddec_spin_density
 _atom_site_pbe_ddec_sum_bond_order
 _atom_site_pbe_magmom
Al  Al0  1  0.40985179  0.41541953  0.50986511  1  2.496206  0  0.395649  1.688543  0  2.565338  0
Al  Al1  1  0.65693084  0.41583314  0.49507865  1  2.480518  0  0.501745  1.657648  0  2.522137  0
Al  Al2  1  0.43856576  0.65340022  0.49243263  1  2.479863  0  0.507111  1.667107  0  2.495938  0
Al  Al3  1  0.92043019  0.93264084  0.97916806  1  2.49814  0  0.398284  1.685769  0  2.548935  0
Al  Al4  1  0.91754796  0.67995110  0.99417998  1  2.48075  0  0.504046  1.66043  0  2.512555  0
Al  Al5  1  0.68598726  0.90351000  0.99430010  1  2.477764  0  0.501624  1.661817  0  2.514291  0
H  H6  1  0.02862130  0.84725529  0.18657483  1  0.051893  0  0.104921  0.120284  0  0.992949  0
H  H7  1  0.26802390  0.76584786  0.28901967  1  0.094285  0  0.108362  0.135675  0  0.988979  0
H  H8  1  0.79070797  0.17746299  0.07090577  1  0.133427  0  0.122374  0.130441  0  0.968815  0
H  H9  1  0.77619239  0.24065699  0.14595558  1  0.105045  0  0.110544  0.119614  0  0.987092  0
H  H10  1  0.53889759  0.09252141  0.19550325  1  0.094583  0  0.110077  0.129773  0  0.985351  0
H  H11  1  0.47771227  0.23264324  0.31833476  1  0.061001  0  0.102998  0.124266  0  0.999627  0
H  H12  1  0.03217641  0.69619759  0.70020107  1  0.069522  0  0.108382  0.12945  0  0.985474  0
H  H13  1  0.47181996  0.32617954  0.71543672  1  0.132278  0  0.119675  0.1486  0  0.968529  0
H  H14  1  0.24920814  0.47019495  0.16874713  1  0.095632  0  0.105413  0.130463  0  0.996038  0
H  H15  1  0.93165690  0.97686760  0.12841036  1  0.436553  0  0.303131  0.29574  0  0.960281  0
H  H16  1  0.94915127  0.93804566  0.07474823  1  0.513064  0  0.307689  0.316638  0  0.991588  0
H  H17  1  0.81919416  0.26114567  0.41204030  1  0.519429  0  0.3068  0.319927  0  0.980592  0
H  H18  1  0.89938351  0.22608015  0.35933297  1  0.452305  0  0.29455  0.295333  0  0.977833  0
H  H19  1  0.41900405  0.28768784  0.43390242  1  0.520459  0  0.309475  0.323121  0  0.986742  0
H  H20  1  0.36911906  0.27435996  0.38601404  1  0.441006  0  0.307304  0.298978  0  0.947888  0
H  H21  1  0.97086727  0.46158029  0.86803473  1  0.451689  0  0.308588  0.304308  0  0.944951  0
H  H22  1  0.93654201  0.54025767  0.91416253  1  0.472531  0  0.304423  0.30857  0  0.991141  0
H  H23  1  0.86460732  0.50384842  0.77338061  1  0.40729  0  0.281198  0.268884  0  0.989092  0
H  H24  1  0.95755216  0.52249524  0.79815323  1  0.443368  0  0.283484  0.273598  0  0.990788  0
H  H25  1  0.80286469  0.35250688  0.68857478  1  0.422778  0  0.29306  0.279062  0  0.970472  0
H  H26  1  0.79086276  0.44465235  0.72437791  1  0.409401  0  0.290449  0.28257  0  0.975346  0
H  H27  1  0.79462370  0.39814966  0.57468823  1  0.504887  0  0.308007  0.314238  0  0.983878  0
H  H28  1  0.86944643  0.36055653  0.62194893  1  0.451949  0  0.311138  0.302597  0  0.947602  0
H  H29  1  0.44319197  0.80545814  0.56496579  1  0.505219  0  0.307254  0.318942  0  0.981617  0
H  H30  1  0.40430954  0.88994668  0.61061930  1  0.452018  0  0.29537  0.298337  0  0.972484  0
H  H31  1  0.44116194  0.91637837  0.82531506  1  0.414476  0  0.300001  0.289285  0  0.950643  0
H  H32  1  0.47544837  0.81658310  0.78832273  1  0.428801  0  0.282885  0.275544  0  0.998795  0
H  H33  1  0.51875730  0.87056401  0.93170439  1  0.480959  0  0.303393  0.308801  0  0.984069  0
H  H34  1  0.42972044  0.87148344  0.89531258  1  0.430843  0  0.30693  0.298557  0  0.948394  0
H  H35  1  0.47304549  0.60856753  0.72202633  1  0.449393  0  0.280588  0.273264  0  1.022138  0
H  H36  1  0.42709994  0.62179820  0.67149124  1  0.432818  0  0.29256  0.286676  0  0.981983  0
H  H37  1  0.75779295  0.86980160  0.20936126  1  0.446654  0  0.303263  0.292017  0  0.958139  0
H  H38  1  0.76878042  0.81007984  0.16208471  1  0.458242  0  0.299944  0.294582  0  0.959639  0
H  H39  1  0.95097813  0.71692502  0.81992225  1  0.45028  0  0.297383  0.291548  0  0.97556  0
H  H40  1  0.89773876  0.74833685  0.76968219  1  0.447333  0  0.308497  0.303602  0  0.929243  0
H  H41  1  0.83801498  0.77405479  0.27130604  1  0.446376  0  0.3093  0.300734  0  0.940428  0
H  H42  1  0.76319280  0.75636441  0.32004469  1  0.426873  0  0.303804  0.299041  0  0.950382  0
H  H43  1  0.13895025  0.45182176  0.41611136  1  0.463374  0  0.294487  0.293686  0  0.976862  0
H  H44  1  0.21105806  0.47780257  0.45368007  1  0.541431  0  0.313234  0.345114  0  0.947501  0
H  H45  1  0.31637581  0.29509907  0.53949499  1  0.587136  0  0.297599  0.388293  0  0.913614  0
H  H46  1  0.06634202  0.98762174  0.98315770  1  0.561554  0  0.290757  0.380563  0  0.927463  0
C  C47  1  0.61287092  0.29159423  0.43986137  1  1.428078  0  0.254555  0.649767  0  4.067208  0
C  C48  1  0.72786480  0.72488068  0.21915682  1  0.432984  0  0.09989  0.17127  0  4.040199  0
C  C49  1  0.72183909  0.71339960  0.26630204  1  0.44537  0  0.096621  0.165883  0  4.051611  0
C  C50  1  0.67071658  0.64456679  0.29149584  1  0.129024  0  -0.020536  -0.044617  0  4.128105  0
C  C51  1  0.68908544  0.66113926  0.19798956  1  0.248292  0  -0.01898  -0.037706  0  4.110625  0
C  C52  1  0.69990788  0.66998766  0.15094671  1  -0.272902  0  -0.009215  0.029617  0  4.104326  0
C  C53  1  0.66507746  0.63287152  0.33844724  1  -0.389515  0  -0.007299  0.036142  0  4.110302  0
C  C54  1  0.71290470  0.68202310  0.11031938  1  -0.035792  0  -0.039026  -0.212692  0  3.914545  0
C  C55  1  0.25880866  0.63850910  0.39662605  1  0.02831  0  -0.032206  -0.229362  0  3.869462  0
C  C56  1  0.27694099  0.71162630  0.35914046  1  0.041531  0  0.018919  0.155139  0  4.078826  0
C  C57  1  0.24942210  0.71170005  0.31719240  1  0.07662  0  -0.112722  -0.243474  0  4.002895  0
C  C58  1  0.63282500  0.60132537  0.42578327  1  1.658237  0  0.286442  0.735531  0  4.129644  0
C  C59  1  0.20151099  0.63800469  0.31033454  1  0.152462  0  -0.002447  0.124429  0  4.159275  0
C  C60  1  0.17843263  0.56849775  0.34686622  1  0.017467  0  -0.003532  -0.031317  0  3.94831  0
C  C61  1  0.20452501  0.56671540  0.39048599  1  0.580884  0  0.116794  0.270433  0  4.06027  0
C  C62  1  0.18826423  0.56066961  0.15604703  1  0.099397  0  -0.111023  -0.247675  0  3.960303  0
C  C63  1  0.15966074  0.58353598  0.11242675  1  0.033376  0  0.022551  0.169712  0  4.059869  0
C  C64  1  0.03598221  0.79733574  0.12142135  1  0.479755  0  0.113  0.327144  0  4.079372  0
C  C65  1  0.06522135  0.77318134  0.16557628  1  -0.001311  0  -0.104676  -0.268217  0  3.924659  0
C  C66  1  0.13915036  0.65688487  0.18312432  1  0.041555  0  0.002033  0.181121  0  4.160338  0
C  C67  1  0.16376123  0.64019787  0.22801934  1  -0.107111  0  -0.031178  -0.077059  0  4.060136  0
C  C68  1  0.17925614  0.63632642  0.26669867  1  -0.217986  0  -0.048334  -0.100746  0  4.116382  0
C  C69  1  0.30285043  0.62345149  0.43993681  1  1.533662  0  0.266346  0.663106  0  4.072551  0
C  C70  1  0.08261891  0.69998344  0.09386324  1  0.039002  0  -0.033884  -0.235798  0  3.876414  0
C  C71  1  0.63119045  0.25524809  0.39529826  1  0.035195  0  -0.043604  -0.295086  0  3.866244  0
C  C72  1  0.53699829  0.25166706  0.37735319  1  0.480749  0  0.114466  0.336235  0  4.090568  0
C  C73  1  0.54987778  0.23173695  0.33237831  1  0.029329  0  -0.123718  -0.297345  0  3.955118  0
C  C74  1  0.65316185  0.21203548  0.30490219  1  0.114861  0  -0.011462  0.108631  0  4.223994  0
C  C75  1  0.74746160  0.20995705  0.32239511  1  0.084414  0  -0.02138  -0.059717  0  3.99633  0
C  C76  1  0.73877585  0.23182409  0.36703377  1  0.54616  0  0.108957  0.269957  0  4.105603  0
C  C77  1  0.72785080  0.19492913  0.14035017  1  -0.007581  0  -0.086351  -0.14732  0  3.949095  0
C  C78  1  0.73439727  0.16134096  0.09864600  1  -0.040285  0  -0.071754  -0.06401  0  3.982561  0
C  C79  1  0.59935208  0.08092663  0.12588085  1  0.070064  0  0.024532  0.141725  0  4.038089  0
C  C80  1  0.60703777  0.28140230  0.56807720  1  1.660259  0  0.282348  0.720342  0  4.144501  0
C  C81  1  0.59368689  0.11244229  0.16821636  1  -0.010685  0  -0.092238  -0.212105  0  3.938079  0
C  C82  1  0.65975122  0.16664616  0.17638902  1  0.047641  0  0.00561  0.169586  0  4.120118  0
C  C83  1  0.65894199  0.18730176  0.22052910  1  -0.003729  0  -0.049062  -0.12107  0  4.096063  0
C  C84  1  0.65898140  0.19743951  0.25954901  1  -0.326372  0  -0.034216  -0.060071  0  4.11765  0
C  C85  1  0.67396955  0.10088619  0.09043096  1  0.017906  0  -0.017728  -0.114288  0  3.937328  0
C  C86  1  0.62787175  0.61343928  0.59584713  1  0.045327  0  -0.041686  -0.283152  0  3.897798  0
C  C87  1  0.54996037  0.72586844  0.61525359  1  0.533819  0  0.097052  0.241344  0  4.128673  0
C  C88  1  0.56556696  0.73722296  0.65837209  1  0.061406  0  -0.02202  -0.054968  0  4.018631  0
C  C89  1  0.64888783  0.64089055  0.68445307  1  0.112688  0  -0.019344  0.005954  0  4.179832  0
C  C90  1  0.72179396  0.53003047  0.66648489  1  0.414893  0  0.068953  0.113836  0  4.03821  0
C  C91  1  0.61381522  0.59611690  0.55160218  1  1.415322  0  0.258948  0.656274  0  4.049721  0
C  C92  1  0.71597757  0.51751728  0.62185651  1  0.497165  0  0.106506  0.22448  0  4.056825  0
C  C93  1  0.79267374  0.59381044  0.82808268  1  0.449292  0  0.065147  0.110362  0  4.066959  0
C  C94  1  0.81157263  0.61015129  0.87007291  1  0.475774  0  0.093593  0.200057  0  4.065604  0
C  C95  1  0.60521712  0.77337791  0.87850536  1  0.442093  0  0.090782  0.194464  0  4.068743  0
C  C96  1  0.58868012  0.75682046  0.83612902  1  0.422887  0  0.070403  0.125322  0  4.070845  0
C  C97  1  0.68255974  0.66811527  0.81099168  1  0.069134  0  -0.023617  -0.049599  0  4.149146  0
C  C98  1  0.66866146  0.65764265  0.76730264  1  -0.526536  0  -0.037636  -0.06917  0  4.149666  0
C  C99  1  0.65758433  0.65187999  0.72877374  1  0.110706  0  -0.056478  -0.123603  0  4.167841  0
C  C100  1  0.71790444  0.70160834  0.89590336  1  0.052766  0  -0.039845  -0.275564  0  3.93568  0
C  C101  1  0.25729443  0.65056911  0.61239377  1  -0.043343  0  -0.046842  -0.223905  0  3.924689  0
C  C102  1  0.29956920  0.62162050  0.56712698  1  1.645016  0  0.277574  0.722422  0  4.147913  0
C  C103  1  0.30590392  0.63359842  0.72449415  1  0.496559  0  0.086455  0.179174  0  4.104949  0
C  C104  1  0.27852972  0.64303006  0.77052316  1  0.062328  0  0.002448  -0.002258  0  4.033682  0
C  C105  1  0.07601718  0.68427736  0.76654573  1  0.371248  0  0.086954  0.246367  0  4.121011  0
C  C106  1  0.10051977  0.68108203  0.72048903  1  0.054936  0  -0.103567  -0.250062  0  3.978559  0
C  C107  1  0.21252597  0.65742395  0.69938935  1  0.104415  0  -0.014253  0.036674  0  4.125588  0
C  C108  1  0.16613772  0.66786123  0.79197039  1  0.223188  0  -0.021093  -0.040101  0  4.115211  0
C  C109  1  0.13942664  0.67969556  0.83810915  1  0.029528  0  -0.020406  0.008528  0  4.12014  0
C  C110  1  0.23507462  0.65436322  0.65267194  1  -0.228061  0  -0.012054  0.019243  0  4.075375  0
C  C111  1  0.10741227  0.69320765  0.87751692  1  -0.337405  0  -0.035203  -0.19727  0  3.913009  0
C  C112  1  0.63063230  0.23643096  0.61345628  1  0.241391  0  -0.026814  -0.175377  0  3.91686  0
C  C113  1  0.66141959  0.62345154  0.37902064  1  0.178459  0  -0.046395  -0.232874  0  3.917591  0
C  C114  1  0.76286878  0.11581401  0.71620284  1  0.111596  0  0.008179  0.022459  0  4.041052  0
C  C115  1  0.77092948  0.09751313  0.76220635  1  0.095898  0  0.015938  0.047359  0  4.027515  0
C  C116  1  0.56252803  0.24131419  0.77432553  1  0.099538  0  0.023014  0.117271  0  4.042106  0
C  C117  1  0.55461149  0.26130158  0.72872166  1  0.007249  0  -0.080222  -0.176304  0  3.923553  0
C  C118  1  0.65382962  0.19776108  0.69923490  1  0.151364  0  -0.000484  0.09019  0  4.115952  0
C  C119  1  0.67017167  0.15882643  0.79211647  1  0.169761  0  -0.0033  0.023559  0  4.080373  0
C  C120  1  0.67878355  0.13356450  0.83829966  1  -0.375798  0  -0.026825  -0.01977  0  4.132151  0
C  C121  1  0.64318770  0.21704951  0.65307569  1  -0.453245  0  -0.018372  -0.009936  0  4.093504  0
C  C122  1  0.69158853  0.10489253  0.87777715  1  0.148945  0  -0.015152  -0.150411  0  3.897175  0
C  C123  1  0.04105020  0.72472367  0.04913024  1  1.538105  0  0.264058  0.667961  0  4.069636  0
C  C124  1  0.62635473  0.58597332  0.26997688  1  0.116549  0  -0.00016  0.024883  0  4.083908  0
C  C125  1  0.73579437  0.71001716  0.06353511  1  1.653978  0  0.284964  0.727708  0  4.139009  0
C  C126  1  0.70602432  0.04888184  0.04684557  1  1.571624  0  0.268018  0.64481  0  4.088743  0
C  C127  1  0.05443254  0.72166903  0.92205120  1  1.667206  0  0.279303  0.716035  0  4.150524  0
C  C128  1  0.73795059  0.72163254  0.93864583  1  1.429756  0  0.260983  0.654986  0  4.051721  0
C  C129  1  0.72020411  0.05071774  0.92214464  1  1.704535  0  0.284108  0.705418  0  4.16158  0
C  C130  1  0.63825969  0.59175772  0.22371092  1  0.117882  0  -0.000155  0.028417  0  4.085221  0
N  N131  1  0.95753602  0.91211587  0.10774008  1  -1.27253  0  -0.592788  -0.619014  0  3.376494  0
N  N132  1  0.83217942  0.22983728  0.38202279  1  -1.289747  0  -0.590013  -0.593359  0  3.372204  0
N  N133  1  0.43493240  0.26719666  0.40183210  1  -1.267526  0  -0.581297  -0.593165  0  3.356816  0
N  N134  1  0.92432780  0.54052080  0.88220666  1  -1.243252  0  -0.594054  -0.59536  0  3.347954  0
N  N135  1  0.88731712  0.50474061  0.80366813  1  -1.197263  0  -0.617387  -0.609971  0  3.287124  0
N  N136  1  0.80376324  0.43078434  0.69154959  1  -1.166334  0  -0.607388  -0.604051  0  3.287023  0
N  N137  1  0.79354223  0.40776730  0.60710602  1  -1.276236  0  -0.584664  -0.586675  0  3.361058  0
N  N138  1  0.46416967  0.82102930  0.59295294  1  -1.269748  0  -0.594648  -0.602218  0  3.36937  0
N  N139  1  0.47797824  0.82761946  0.82033814  1  -1.183359  0  -0.605053  -0.609598  0  3.344614  0
N  N140  1  0.50884429  0.86275599  0.90032305  1  -1.221931  0  -0.597413  -0.601186  0  3.32908  0
N  N141  1  0.41907006  0.59771483  0.70469952  1  -1.223925  0  -0.6015  -0.609012  0  3.39264  0
N  N142  1  0.77692664  0.79431136  0.19534074  1  -1.214095  0  -0.587011  -0.585468  0  3.331149  0
N  N143  1  0.96807953  0.69869172  0.78756254  1  -1.236962  0  -0.591819  -0.617749  0  3.390065  0
N  N144  1  0.76206565  0.77497789  0.28643179  1  -1.191529  0  -0.58941  -0.591486  0  3.297425  0
N  N145  1  0.17517995  0.49998293  0.42412644  1  -1.302375  0  -0.580835  -0.595404  0  3.360034  0
Cl  Cl146  1  0.55911175  0.50868601  0.30183031  1  -0.178786  0  0.025921  -0.021988  0  1.721081  0
Cl  Cl147  1  0.87485487  0.18682325  0.28816736  1  -0.243053  0  -0.024328  -0.091234  0  1.524331  0
Cl  Cl148  1  0.51707067  0.01087879  0.12132441  1  -0.17389  0  0.010486  -0.055618  0  1.540168  0
Cl  Cl149  1  0.58972673  0.51827496  0.19658277  1  -0.177302  0  0.002747  -0.049767  0  1.566238  0
Cl  Cl150  1  0.47328353  0.87130858  0.68190754  1  -0.240876  0  -0.01446  -0.079838  0  1.539197  0
Cl  Cl151  1  0.38584714  0.62571346  0.80169810  1  -0.198077  0  0.016387  -0.039469  0  1.631458  0
Cl  Cl152  1  0.88326805  0.03869674  0.68006775  1  -0.170623  0  0.010223  -0.044976  0  1.547016  0
Cl  Cl153  1  0.90183251  0.99906282  0.78334472  1  -0.143355  0  0.036299  -0.010782  0  1.614399  0
Cl  Cl154  1  0.43986620  0.31614318  0.80996358  1  -0.158123  0  0.01982  -0.041942  0  1.520728  0
Cl  Cl155  1  0.22904661  0.46248578  0.08046522  1  -0.192294  0  -0.015937  -0.08054  0  1.460411  0
Cl  Cl156  1  0.11769447  0.47922967  0.33864752  1  -0.223464  0  -0.007766  -0.084058  0  1.523455  0
Cl  Cl157  1  0.34046854  0.80202031  0.36160159  1  -0.179216  0  -0.000179  -0.060316  0  1.556314  0
O  O158  1  0.31352989  0.53069356  0.46588352  1  -1.270114  0  -0.224328  -0.585459  0  2.424702  0
O  O159  1  0.68803932  0.49731885  0.53373678  1  -1.272594  0  -0.247187  -0.619878  0  2.324316  0
O  O160  1  0.52557976  0.67749160  0.53055383  1  -1.277272  0  -0.244119  -0.613351  0  2.330813  0
O  O161  1  0.31998697  0.69939944  0.53962378  1  -1.264389  0  -0.247873  -0.618494  0  2.224393  0
O  O162  1  0.50278546  0.49544975  0.49966882  1  -1.606176  0  -0.390856  -1.268226  0  2.315511  0
O  O163  1  0.80582102  0.03010079  0.02708784  1  -1.243655  0  -0.21844  -0.570916  0  2.358794  0
O  O164  1  0.01738351  0.82718889  0.02778978  1  -1.26291  0  -0.229045  -0.596899  0  2.354456  0
O  O165  1  0.02423183  0.64509339  0.03483650  1  -1.265063  0  -0.245846  -0.614018  0  2.343884  0
O  O166  1  0.83315867  0.63666460  0.04370787  1  -1.249283  0  -0.224856  -0.579347  0  2.240146  0
O  O167  1  0.66004121  0.81036944  0.04580904  1  -1.247688  0  -0.226733  -0.592901  0  2.284405  0
O  O168  1  0.63459698  0.02177583  0.03281036  1  -1.266536  0  -0.246319  -0.606093  0  2.329986  0
O  O169  1  0.51618171  0.31338775  0.46384188  1  -1.264024  0  -0.230935  -0.593786  0  2.398687  0
O  O170  1  0.81747202  0.03238025  0.93287667  1  -1.208005  0  -0.196416  -0.523455  0  2.270025  0
O  O171  1  0.02544233  0.82522260  0.93222702  1  -1.208034  0  -0.206022  -0.554554  0  2.279499  0
O  O172  1  0.03645253  0.63942961  0.94743391  1  -1.257384  0  -0.241443  -0.603817  0  2.23131  0
O  O173  1  0.83615584  0.64991901  0.95575728  1  -1.279483  0  -0.243339  -0.615827  0  2.338147  0
O  O174  1  0.65824538  0.81359216  0.95922678  1  -1.283257  0  -0.245546  -0.61886  0  2.321745  0
O  O175  1  0.64541576  0.02139054  0.94600353  1  -1.250567  0  -0.237228  -0.596689  0  2.244474  0
O  O176  1  0.84069730  0.83859213  0.98932652  1  -1.608467  0  -0.390535  -1.267326  0  2.299753  0
O  O177  1  0.69432984  0.30514672  0.45485446  1  -1.278672  0  -0.257822  -0.630033  0  2.30791  0
O  O178  1  0.70253011  0.50055138  0.44567202  1  -1.262651  0  -0.23215  -0.59741  0  2.246365  0
O  O179  1  0.53569114  0.68034954  0.44356565  1  -1.244587  0  -0.224312  -0.585703  0  2.26532  0
O  O180  1  0.33231003  0.69882785  0.45037719  1  -1.261558  0  -0.249859  -0.61371  0  2.325197  0
O  O181  1  0.31760214  0.52022337  0.55834104  1  -1.210388  0  -0.209198  -0.556083  0  2.28501  0
O  O182  1  0.50697385  0.30779701  0.55738370  1  -1.222566  0  -0.210144  -0.566864  0  2.281724  0
O  O183  1  0.68914097  0.29616606  0.54262788  1  -1.254048  0  -0.240167  -0.603769  0  2.236406  0
O  O184  1  0.31727997  0.34797677  0.51314535  1  -1.379506  0  -0.568417  -0.995479  0  1.828039  0
O  O185  1  0.99178316  0.02173005  0.97078295  1  -1.355904  0  -0.580504  -0.996166  0  1.797506  0
