# generated using pymatgen
data_AgH14C16S(NO)3
_symmetry_space_group_name_H-M   'P 1'
_cell_length_a   9.81423576
_cell_length_b   9.93922589
_cell_length_c   9.29203226
_cell_angle_alpha   101.89199970
_cell_angle_beta   106.89474647
_cell_angle_gamma   108.14131303
_symmetry_Int_Tables_number   1
_chemical_formula_structural   AgH14C16S(NO)3
_chemical_formula_sum   'Ag2 H28 C32 S2 N6 O6'
_cell_volume   779.10352969
_cell_formula_units_Z   2
loop_
 _symmetry_equiv_pos_site_id
 _symmetry_equiv_pos_as_xyz
  1  'x, y, z'
loop_
 _atom_site_type_symbol
 _atom_site_label
 _atom_site_symmetry_multiplicity
 _atom_site_fract_x
 _atom_site_fract_y
 _atom_site_fract_z
 _atom_site_occupancy
 _atom_site_pbe_bader_spin_density
 _atom_site_pbe_cm5_charge
 _atom_site_pbe_ddec_charge
 _atom_site_pbe_ddec_spin_density
 _atom_site_pbe_ddec_sum_bond_order
 _atom_site_pbe_magmom
Ag  Ag0  1  0.87608740  0.41921476  0.11174138  1  0  0.47636  0.376868  0  1.89207  0
Ag  Ag1  1  0.12390539  0.58077734  0.88826241  1  0  0.476349  0.376865  0  1.892102  0
H  H2  1  0.97896248  0.88941963  0.41266939  1  0  0.101158  0.104272  0  1.034753  0
H  H3  1  0.02103553  0.11058266  0.58733419  1  0  0.101163  0.104254  0  1.034834  0
H  H4  1  0.08205229  0.92342006  0.70135187  1  0  0.10188  0.127711  0  1.040836  0
H  H5  1  0.91794513  0.07658336  0.29865069  1  0  0.101842  0.127697  0  1.040847  0
H  H6  1  0.49841238  0.88588039  0.66619830  1  0  0.097594  0.115371  0  1.015107  0
H  H7  1  0.50158723  0.11412628  0.33381114  1  0  0.097586  0.115364  0  1.015101  0
H  H8  1  0.39716159  0.86062181  0.38056572  1  0  0.095387  0.093196  0  1.057369  0
H  H9  1  0.60283749  0.13938919  0.61944884  1  0  0.095398  0.093208  0  1.057387  0
H  H10  1  0.09118242  0.61301073  0.44781893  1  0  0.11151  0.083087  0  1.040089  0
H  H11  1  0.90881279  0.38698709  0.55218160  1  0  0.111506  0.083093  0  1.040024  0
H  H12  1  0.29519250  0.61594563  0.68012584  1  0  0.097259  0.088864  0  1.085073  0
H  H13  1  0.70481447  0.38405387  0.31986287  1  0  0.09727  0.088835  0  1.085188  0
H  H14  1  0.26931215  0.20233131  0.38579929  1  0  0.110417  0.120115  0  1.008753  0
H  H15  1  0.73068557  0.79766678  0.61419245  1  0  0.110428  0.12006  0  1.008791  0
H  H16  1  0.55143435  0.65372548  0.78269444  1  0  0.111349  0.122431  0  0.992924  0
H  H17  1  0.44858007  0.34627560  0.21728206  1  0  0.111334  0.12247  0  0.992912  0
H  H18  1  0.33678062  0.17063996  0.64493495  1  0  0.107338  0.116441  0  1.041458  0
H  H19  1  0.66321341  0.82936882  0.35507417  1  0  0.107347  0.116413  0  1.041493  0
H  H20  1  0.55344312  0.18579811  0.87430603  1  0  0.114584  0.087775  0  1.038163  0
H  H21  1  0.44654397  0.81420388  0.12569919  1  0  0.11456  0.087777  0  1.038186  0
H  H22  1  0.75898217  0.64944106  0.00845876  1  0  0.119376  0.102621  0  1.012868  0
H  H23  1  0.24103085  0.35055979  0.99152583  1  0  0.119358  0.10261  0  1.012843  0
H  H24  1  0.06459471  0.21425935  0.16640428  1  0  0.123443  0.103097  0  1.005475  0
H  H25  1  0.93539503  0.78573279  0.83359418  1  0  0.12338  0.10299  0  1.005472  0
H  H26  1  0.44646959  0.89599265  0.90681854  1  0  0.301768  0.293009  0  0.974608  0
H  H27  1  0.55351482  0.10398371  0.09317989  1  0  0.301753  0.292983  0  0.974679  0
H  H28  1  0.28059307  0.90821717  0.92597103  1  0  0.294845  0.313569  0  0.983076  0
H  H29  1  0.71940079  0.09177494  0.07403312  1  0  0.294842  0.313482  0  0.983285  0
C  C30  1  0.18158891  0.87334870  0.37816603  1  0  -0.048182  -0.148117  0  4.047056  0
C  C31  1  0.81841681  0.12665703  0.62184200  1  0  -0.048203  -0.148086  0  4.047162  0
C  C32  1  0.09230979  0.88806290  0.46888141  1  0  -0.095494  -0.088206  0  4.05208  0
C  C33  1  0.90768846  0.11193487  0.53112444  1  0  -0.095457  -0.088187  0  4.052275  0
C  C34  1  0.14815425  0.90315862  0.62944661  1  0  -0.111944  -0.216458  0  3.949221  0
C  C35  1  0.85184124  0.09684021  0.37055855  1  0  -0.111905  -0.216438  0  3.949299  0
C  C36  1  0.29370578  0.89889519  0.70256362  1  0  0.095177  0.308423  0  4.099573  0
C  C37  1  0.70629048  0.10110030  0.29744211  1  0  0.095199  0.30847  0  4.09954  0
C  C38  1  0.38286695  0.88358607  0.61003037  1  0  -0.109702  -0.214304  0  3.959668  0
C  C39  1  0.61712839  0.11641501  0.38997419  1  0  -0.109695  -0.214294  0  3.959517  0
C  C40  1  0.32685212  0.87106380  0.45010632  1  0  -0.093183  -0.073952  0  4.040814  0
C  C41  1  0.67314983  0.12894067  0.54990339  1  0  -0.093209  -0.074042  0  4.040824  0
C  C42  1  0.13355078  0.52385962  0.43854923  1  0  0.042346  0.09094  0  3.95188  0
C  C43  1  0.86645424  0.47614632  0.56144893  1  0  0.042284  0.090872  0  3.951712  0
C  C44  1  0.24956628  0.52581428  0.56795337  1  0  -0.086887  -0.181995  0  3.984943  0
C  C45  1  0.75043485  0.47418398  0.43203417  1  0  -0.08679  -0.181868  0  3.984835  0
C  C46  1  0.30215726  0.40977183  0.55439201  1  0  0.012111  0.102551  0  3.974207  0
C  C47  1  0.69784379  0.59022638  0.44559765  1  0  0.012091  0.102488  0  3.974289  0
C  C48  1  0.23410563  0.29604368  0.40643079  1  0  -0.075333  -0.156691  0  3.905285  0
C  C49  1  0.76589922  0.70395897  0.59356439  1  0  -0.075371  -0.156502  0  3.905188  0
C  C50  1  0.54512742  0.54703650  0.79971352  1  0  -0.081279  -0.166837  0  3.932255  0
C  C51  1  0.45488008  0.45296417  0.20027349  1  0  -0.081225  -0.166812  0  3.932132  0
C  C52  1  0.42533495  0.41164655  0.69196631  1  0  0.014136  0.10678  0  3.969195  0
C  C53  1  0.57467440  0.58835949  0.30803225  1  0  0.014142  0.106712  0  3.969312  0
C  C54  1  0.42800094  0.27954360  0.72125041  1  0  -0.078823  -0.157903  0  3.907571  0
C  C55  1  0.57200356  0.72046117  0.27874946  1  0  -0.078818  -0.157789  0  3.907667  0
C  C56  1  0.54803949  0.28746601  0.85142811  1  0  0.042806  0.083654  0  3.941274  0
C  C57  1  0.45196409  0.71253968  0.14857920  1  0  0.04284  0.08365  0  3.941188  0
C  C58  1  0.66192179  0.54611321  0.92665292  1  0  0.046569  0.095749  0  3.912971  0
C  C59  1  0.33808247  0.45388505  0.07333783  1  0  0.046544  0.095712  0  3.912935  0
C  C60  1  0.11834659  0.30200350  0.28189429  1  0  0.051001  0.094388  0  3.918187  0
C  C61  1  0.88164839  0.69798782  0.71809713  1  0  0.051072  0.094389  0  3.918213  0
S  S62  1  0.10489112  0.85015082  0.17227373  1  0  0.486992  1.164004  0  6.231719  0
S  S63  1  0.89510766  0.14984812  0.82773041  1  0  0.486961  1.163928  0  6.231728  0
N  N64  1  0.34906466  0.91376992  0.86105823  1  0  -0.599739  -0.638649  0  3.392319  0
N  N65  1  0.65093891  0.08624128  0.13895250  1  0  -0.599745  -0.638528  0  3.392718  0
N  N66  1  0.06673739  0.41321170  0.29747064  1  0  -0.343733  -0.192142  0  3.574716  0
N  N67  1  0.93326178  0.58678514  0.70252776  1  0  -0.343759  -0.192123  0  3.574699  0
N  N68  1  0.66479359  0.41792531  0.95243887  1  0  -0.346161  -0.199659  0  3.598443  0
N  N69  1  0.33520646  0.58207377  0.04756035  1  0  -0.346168  -0.199708  0  3.598286  0
O  O70  1  0.02776643  0.68525097  0.09121105  1  0  -0.369473  -0.634585  0  2.376122  0
O  O71  1  0.97223650  0.31474478  0.90879052  1  0  -0.369474  -0.634544  0  2.376154  0
O  O72  1  0.23881863  0.91828030  0.13076191  1  0  -0.362527  -0.631093  0  2.184161  0
O  O73  1  0.76118194  0.08172080  0.86924764  1  0  -0.362503  -0.631037  0  2.184151  0
O  O74  1  0.99391974  0.92135798  0.15098591  1  0  -0.352927  -0.594329  0  2.162809  0
O  O75  1  0.00607616  0.07863560  0.84900526  1  0  -0.352943  -0.594359  0  2.162714  0
