# generated using pymatgen
data_MgH16C16(O4F)2
_symmetry_space_group_name_H-M   'P 1'
_cell_length_a   6.81928112
_cell_length_b   7.54011231
_cell_length_c   17.16902634
_cell_angle_alpha   94.43654712
_cell_angle_beta   89.99921257
_cell_angle_gamma   89.99944939
_symmetry_Int_Tables_number   1
_chemical_formula_structural   MgH16C16(O4F)2
_chemical_formula_sum   'Mg2 H32 C32 O16 F4'
_cell_volume   880.15428567
_cell_formula_units_Z   2
loop_
 _symmetry_equiv_pos_site_id
 _symmetry_equiv_pos_as_xyz
  1  'x, y, z'
loop_
 _atom_site_type_symbol
 _atom_site_label
 _atom_site_symmetry_multiplicity
 _atom_site_fract_x
 _atom_site_fract_y
 _atom_site_fract_z
 _atom_site_occupancy
 _atom_site_hle17_bader_spin_density
 _atom_site_hle17_ddec_charge
 _atom_site_hle17_ddec_spin_density
 _atom_site_hle17_ddec_sum_bond_order
 _atom_site_hle17_magmom
 _atom_site_hse06_10hf_bader_charge
 _atom_site_hse06_10hf_bader_spin_density
 _atom_site_hse06_10hf_ddec_charge
 _atom_site_hse06_10hf_ddec_spin_density
 _atom_site_hse06_10hf_ddec_sum_bond_order
 _atom_site_hse06_10hf_magmom
 _atom_site_hse06_bader_spin_density
 _atom_site_hse06_ddec_charge
 _atom_site_hse06_ddec_spin_density
 _atom_site_hse06_ddec_sum_bond_order
 _atom_site_hse06_magmom
 _atom_site_pbe_bader_spin_density
 _atom_site_pbe_cm5_charge
 _atom_site_pbe_ddec_charge
 _atom_site_pbe_ddec_spin_density
 _atom_site_pbe_ddec_sum_bond_order
 _atom_site_pbe_magmom
Mg  Mg0  1  0.50000201  0.50000145  0.99999953  1  0  1.506  0  1.124854  0  1.700663  0  1.397705  0  1.378993  0  0  1.421446  0  1.342653  0  0  0.812766  1.380974  0  1.404245  0
Mg  Mg1  1  0.99999724  0.00000315  0.99999917  1  0  1.506082  0  1.124879  0  1.700708  0  1.397845  0  1.378949  0  0  1.421579  0  1.342621  0  0  0.812764  1.381128  0  1.404176  0
H  H2  1  0.76340156  0.37034311  0.31263223  1  0  0.109781  0  0.965021  0  0.108897  0  0.118296  0  1.027734  0  0  0.120708  0  1.028169  0  0  0.10223  0.116572  0  1.027557  0
H  H3  1  0.26340525  0.12965834  0.68737344  1  0  0.109799  0  0.965007  0  0.108736  0  0.118299  0  1.02772  0  0  0.120708  0  1.028162  0  0  0.10226  0.116577  0  1.027544  0
H  H4  1  0.23659919  0.62965173  0.68736885  1  0  0.109769  0  0.965069  0  0.108923  0  0.118304  0  1.027763  0  0  0.120716  0  1.028197  0  0  0.102224  0.11658  0  1.027586  0
H  H5  1  0.73659550  0.87033918  0.31262598  1  0  0.109837  0  0.964942  0  0.108722  0  0.118361  0  1.027637  0  0  0.12077  0  1.028075  0  0  0.102276  0.116638  0  1.027462  0
H  H6  1  0.75851962  0.51755370  0.44883316  1  0  0.127211  0  0.950952  0  0.129899  0  0.129044  0  1.021985  0  0  0.133211  0  1.018477  0  0  0.104027  0.12603  0  1.024568  0
H  H7  1  0.25851840  0.98245016  0.55117193  1  0  0.127178  0  0.950968  0  0.129963  0  0.129049  0  1.02194  0  0  0.133212  0  1.018431  0  0  0.104023  0.126036  0  1.024523  0
H  H8  1  0.24148553  0.48244380  0.55116743  1  0  0.127168  0  0.950948  0  0.129879  0  0.129064  0  1.021898  0  0  0.133231  0  1.018389  0  0  0.104032  0.12605  0  1.024482  0
H  H9  1  0.74148234  0.01754868  0.44882755  1  0  0.12718  0  0.950968  0  0.130009  0  0.129044  0  1.021951  0  0  0.133208  0  1.018441  0  0  0.104027  0.126032  0  1.024532  0
H  H10  1  0.21587949  0.87407709  0.38691548  1  0  0.124703  0  0.943955  0  0.117299  0  0.131737  0  1.008232  0  0  0.134508  0  1.007746  0  0  0.106418  0.12975  0  1.008701  0
H  H11  1  0.71587828  0.62591529  0.61308360  1  0  0.12481  0  0.943926  0  0.117229  0  0.131818  0  1.008228  0  0  0.134588  0  1.007742  0  0  0.106474  0.12983  0  1.008697  0
H  H12  1  0.78412566  0.12592574  0.61308473  1  0  0.124745  0  0.943946  0  0.117345  0  0.131774  0  1.00822  0  0  0.134544  0  1.007736  0  0  0.106464  0.129786  0  1.00869  0
H  H13  1  0.28412393  0.37408221  0.38691699  1  0  0.124758  0  0.943919  0  0.117274  0  0.131771  0  1.008224  0  0  0.134543  0  1.007735  0  0  0.106461  0.129782  0  1.008693  0
H  H14  1  0.22178496  0.73057211  0.25188250  1  0  0.11086  0  0.970458  0  0.06836  0  0.120231  0  1.032681  0  0  0.123277  0  1.03159  0  0  0.103913  0.118054  0  1.033519  0
H  H15  1  0.72178344  0.76942153  0.74811776  1  0  0.110857  0  0.970481  0  0.068326  0  0.120235  0  1.032703  0  0  0.12328  0  1.031615  0  0  0.103911  0.118058  0  1.033538  0
H  H16  1  0.77821432  0.26942939  0.74811766  1  0  0.11085  0  0.970472  0  0.068348  0  0.120226  0  1.032685  0  0  0.123271  0  1.031596  0  0  0.103923  0.118049  0  1.033523  0
H  H17  1  0.27821438  0.23057597  0.25188284  1  0  0.110873  0  0.970472  0  0.068352  0  0.120247  0  1.032691  0  0  0.123296  0  1.031604  0  0  0.103927  0.118071  0  1.033528  0
H  H18  1  0.27336634  0.49730556  0.17094864  1  0  0.098165  0  0.920403  0  0.092608  0  0.108134  0  0.985395  0  0  0.109919  0  0.983779  0  0  0.117558  0.106855  0  0.98665  0
H  H19  1  0.77336339  0.00268657  0.82905023  1  0  0.098231  0  0.920383  0  0.092239  0  0.108201  0  0.985351  0  0  0.109996  0  0.983731  0  0  0.117589  0.106914  0  0.986604  0
H  H20  1  0.72663441  0.50269727  0.82905157  1  0  0.098193  0  0.920391  0  0.092606  0  0.108158  0  0.985366  0  0  0.109948  0  0.983749  0  0  0.117568  0.106878  0  0.986621  0
H  H21  1  0.22663296  0.99731226  0.17095099  1  0  0.098216  0  0.920466  0  0.092166  0  0.108192  0  0.985414  0  0  0.109981  0  0.983798  0  0  0.117575  0.106909  0  0.986667  0
H  H22  1  0.09678622  0.63039422  0.12575871  1  0  0.101131  0  0.949262  0  0.114644  0  0.109258  0  1.015923  0  0  0.111499  0  1.014114  0  0  0.111868  0.107601  0  1.017378  0
H  H23  1  0.59678955  0.86960994  0.87424377  1  0  0.101108  0  0.949369  0  0.114637  0  0.109228  0  1.016004  0  0  0.11147  0  1.01421  0  0  0.111863  0.107568  0  1.017458  0
H  H24  1  0.90321600  0.36960993  0.87424270  1  0  0.101127  0  0.949339  0  0.114632  0  0.10923  0  1.015995  0  0  0.11147  0  1.0142  0  0  0.111863  0.107572  0  1.017453  0
H  H25  1  0.40320533  0.13039286  0.12575876  1  0  0.101138  0  0.949336  0  0.114651  0  0.109242  0  1.016001  0  0  0.111482  0  1.014205  0  0  0.111875  0.107583  0  1.017452  0
H  H26  1  0.71252971  0.40032844  0.12884905  1  0  0.443486  0  0.818784  0  0.622633  0  0.415932  0  0.884385  0  0  0.425371  0  0.870404  0  0  0.318571  0.409235  0  0.894325  0
H  H27  1  0.21253617  0.09967094  0.87114984  1  0  0.443423  0  0.818905  0  0.622596  0  0.415878  0  0.884466  0  0  0.425318  0  0.870484  0  0  0.318537  0.40918  0  0.894407  0
H  H28  1  0.28746957  0.59967173  0.87115106  1  0  0.443472  0  0.818801  0  0.622625  0  0.415919  0  0.884403  0  0  0.425357  0  0.870424  0  0  0.318566  0.409221  0  0.894345  0
H  H29  1  0.78746311  0.90032923  0.12885027  1  0  0.443445  0  0.818847  0  0.622585  0  0.415895  0  0.884434  0  0  0.425334  0  0.870453  0  0  0.318555  0.409198  0  0.894372  0
H  H30  1  0.67877592  0.25390391  0.05940517  1  0  0.427615  0  0.87845  0  0.673024  0  0.391845  0  0.95063  0  0  0.403695  0  0.933202  0  0  0.300622  0.383478  0  0.962924  0
H  H31  1  0.17877697  0.24609847  0.94059284  1  0  0.427551  0  0.878544  0  0.672935  0  0.391794  0  0.950707  0  0  0.403644  0  0.93328  0  0  0.300632  0.383429  0  0.963  0
H  H32  1  0.32122189  0.74609628  0.94059377  1  0  0.427604  0  0.87848  0  0.673021  0  0.391833  0  0.950661  0  0  0.403684  0  0.933233  0  0  0.30062  0.383466  0  0.962956  0
H  H33  1  0.82122084  0.75390306  0.05940498  1  0  0.427584  0  0.878496  0  0.672997  0  0.391814  0  0.950677  0  0  0.403665  0  0.93325  0  0  0.300613  0.383447  0  0.962973  0
C  C34  1  0.98951460  0.54240271  0.27365561  1  0  0.243276  0  3.816493  0  0.383482  0  0.23386  0  4.076595  0  0  0.243233  0  4.093431  0  0  0.071141  0.227312  0  4.065194  0
C  C35  1  0.48952080  0.95759625  0.72634746  1  0  0.243226  0  3.816589  0  0.383815  0  0.233873  0  4.076633  0  0  0.243239  0  4.093465  0  0  0.071158  0.227323  0  4.065232  0
C  C36  1  0.01048322  0.45759746  0.72634450  1  0  0.243196  0  3.816535  0  0.383673  0  0.233789  0  4.076648  0  0  0.243159  0  4.093483  0  0  0.071115  0.22724  0  4.065247  0
C  C37  1  0.51047848  0.04240125  0.27365313  1  0  0.24325  0  3.816558  0  0.383801  0  0.233895  0  4.076607  0  0  0.243262  0  4.093441  0  0  0.071152  0.227347  0  4.065209  0
C  C38  1  0.86034199  0.48178900  0.32925369  1  0  -0.147817  0  3.741302  0  -0.014496  0  -0.166106  0  3.991415  0  0  -0.169742  0  4.010867  0  0  -0.099357  -0.163673  0  3.97834  0
C  C39  1  0.36034303  0.01821286  0.67074972  1  0  -0.147686  0  3.741245  0  -0.014415  0  -0.165991  0  3.991361  0  0  -0.169627  0  4.010814  0  0  -0.099303  -0.163559  0  3.97829  0
C  C40  1  0.13965876  0.51820984  0.67074637  1  0  -0.147752  0  3.741269  0  -0.014498  0  -0.166072  0  3.991401  0  0  -0.169709  0  4.010854  0  0  -0.099322  -0.163638  0  3.978324  0
C  C41  1  0.63965772  0.98178334  0.32924907  1  0  -0.1478  0  3.741248  0  -0.014046  0  -0.16613  0  3.991368  0  0  -0.169766  0  4.010819  0  0  -0.099349  -0.163698  0  3.978298  0
C  C42  1  0.85837231  0.56210519  0.40495376  1  0  -0.159331  0  3.770058  0  0.019548  0  -0.188907  0  4.03788  0  0  -0.190767  0  4.055997  0  0  -0.099231  -0.187487  0  4.025668  0
C  C43  1  0.35837445  0.93789905  0.59504963  1  0  -0.159428  0  3.770144  0  0.019511  0  -0.189012  0  4.037951  0  0  -0.190867  0  4.056063  0  0  -0.099315  -0.187596  0  4.025738  0
C  C44  1  0.14162991  0.43789365  0.59504629  1  0  -0.159302  0  3.769999  0  0.019559  0  -0.188924  0  4.037811  0  0  -0.190784  0  4.055926  0  0  -0.09925  -0.187504  0  4.025603  0
C  C45  1  0.64162923  0.06210248  0.40494878  1  0  -0.159374  0  3.77009  0  0.01905  0  -0.188957  0  4.037909  0  0  -0.190812  0  4.056017  0  0  -0.099289  -0.18754  0  4.0257  0
C  C46  1  0.98650644  0.70257025  0.42377370  1  0  0.283185  0  3.792236  0  0.387146  0  0.266177  0  4.081715  0  0  0.274278  0  4.093678  0  0  0.083044  0.260312  0  4.073822  0
C  C47  1  0.48650339  0.79742609  0.57622871  1  0  0.283015  0  3.792345  0  0.387187  0  0.266028  0  4.081813  0  0  0.274129  0  4.093776  0  0  0.082988  0.26017  0  4.07391  0
C  C48  1  0.01349724  0.29742726  0.57622631  1  0  0.283053  0  3.792289  0  0.387133  0  0.26605  0  4.081772  0  0  0.274154  0  4.093731  0  0  0.082989  0.260182  0  4.073882  0
C  C49  1  0.51349882  0.20257142  0.42377130  1  0  0.283042  0  3.792318  0  0.387229  0  0.266053  0  4.081779  0  0  0.274154  0  4.093742  0  0  0.082986  0.26019  0  4.073882  0
C  C50  1  0.11708695  0.76416634  0.37014271  1  0  -0.158015  0  3.771275  0  0.050867  0  -0.184866  0  4.032107  0  0  -0.186422  0  4.050254  0  0  -0.099949  -0.183717  0  4.019904  0
C  C51  1  0.61708694  0.73582699  0.62985811  1  0  -0.157983  0  3.771224  0  0.050862  0  -0.184814  0  4.032038  0  0  -0.186371  0  4.050185  0  0  -0.099937  -0.183676  0  4.019847  0
C  C52  1  0.88291966  0.23583116  0.62985789  1  0  -0.157974  0  3.77127  0  0.050858  0  -0.184816  0  4.032089  0  0  -0.186372  0  4.050234  0  0  -0.099973  -0.183674  0  4.019902  0
C  C53  1  0.38291821  0.26417318  0.37014200  1  0  -0.157946  0  3.771152  0  0.050853  0  -0.184787  0  4.031961  0  0  -0.186343  0  4.050109  0  0  -0.099966  -0.183645  0  4.019771  0
C  C54  1  0.11861379  0.68307860  0.29391356  1  0  -0.189337  0  3.769473  0  -0.039764  0  -0.206299  0  4.021099  0  0  -0.211088  0  4.041555  0  0  -0.110294  -0.203034  0  4.00728  0
C  C55  1  0.61861615  0.81691871  0.70608740  1  0  -0.189323  0  3.769627  0  -0.039978  0  -0.206318  0  4.021257  0  0  -0.211108  0  4.041715  0  0  -0.110296  -0.203051  0  4.007432  0
C  C56  1  0.88138696  0.31691891  0.70608704  1  0  -0.18932  0  3.769514  0  -0.039958  0  -0.206293  0  4.021147  0  0  -0.21108  0  4.041599  0  0  -0.110312  -0.203028  0  4.007326  0
C  C57  1  0.38138460  0.18308012  0.29391324  1  0  -0.189312  0  3.769534  0  -0.039952  0  -0.206299  0  4.021155  0  0  -0.211095  0  4.041617  0  0  -0.110281  -0.203034  0  4.007335  0
C  C58  1  0.12477341  0.49727673  0.14537535  1  0  -0.091432  0  3.638028  0  0.394311  0  -0.150036  0  3.904823  0  0  -0.147439  0  3.905068  0  0  -0.0695  -0.151911  0  3.904651  0
C  C59  1  0.62477544  0.00272349  0.85462521  1  0  -0.091418  0  3.638026  0  0.394407  0  -0.149909  0  3.904757  0  0  -0.147352  0  3.905043  0  0  -0.069444  -0.151773  0  3.904572  0
C  C60  1  0.87522587  0.50272477  0.85462481  1  0  -0.091508  0  3.638083  0  0.394332  0  -0.15003  0  3.904875  0  0  -0.147457  0  3.905141  0  0  -0.069511  -0.151911  0  3.904705  0
C  C61  1  0.37521945  0.99727801  0.14537495  1  0  -0.091473  0  3.637997  0  0.394413  0  -0.149946  0  3.904781  0  0  -0.147374  0  3.905046  0  0  -0.069465  -0.151804  0  3.90459  0
C  C62  1  0.12268127  0.36132546  0.07555359  1  0  0.735  0  3.82239  0  1.662729  0  0.678034  0  4.130676  0  0  0.711499  0  4.120551  0  0  0.234092  0.655309  0  4.137  0
C  C63  1  0.62267798  0.13868813  0.92444339  1  0  0.734975  0  3.822407  0  1.662872  0  0.67788  0  4.130871  0  0  0.711348  0  4.120758  0  0  0.234066  0.655154  0  4.137195  0
C  C64  1  0.87731801  0.63867872  0.92444550  1  0  0.734866  0  3.822509  0  1.662678  0  0.677822  0  4.130903  0  0  0.711293  0  4.120779  0  0  0.234012  0.655098  0  4.137225  0
C  C65  1  0.37732277  0.86131339  0.07555560  1  0  0.735198  0  3.82204  0  1.663182  0  0.678007  0  4.13067  0  0  0.711475  0  4.120546  0  0  0.234123  0.65528  0  4.136993  0
O  O66  1  0.98012678  0.45255527  0.20055952  1  0  -0.271339  0  2.348915  0  -1.117215  0  -0.203334  0  2.582538  0  0  -0.218611  0  2.581937  0  0  -0.185454  -0.192454  0  2.582588  0
O  O67  1  0.48012747  0.04744674  0.79944382  1  0  -0.271416  0  2.348901  0  -1.117264  0  -0.203495  0  2.582529  0  0  -0.218743  0  2.581919  0  0  -0.18559  -0.192614  0  2.582575  0
O  O68  1  0.01987397  0.54744623  0.79944063  1  0  -0.271269  0  2.348864  0  -1.117224  0  -0.203292  0  2.58248  0  0  -0.218553  0  2.581877  0  0  -0.185456  -0.192411  0  2.582527  0
O  O69  1  0.51986741  0.95255076  0.20055677  1  0  -0.271448  0  2.348954  0  -1.117226  0  -0.20351  0  2.582572  0  0  -0.218764  0  2.581959  0  0  -0.18557  -0.192634  0  2.58262  0
O  O70  1  0.61418006  0.35524397  0.09085323  1  0  -0.877962  0  1.839195  0  -1.31167  0  -0.824251  0  2.029593  0  0  -0.841461  0  1.997065  0  0  -0.598175  -0.812167  0  2.052344  0
O  O71  1  0.11418620  0.14475636  0.90914680  1  0  -0.877815  0  1.839336  0  -1.311528  0  -0.824139  0  2.029696  0  0  -0.84135  0  1.997173  0  0  -0.598139  -0.812049  0  2.052418  0
O  O72  1  0.38581776  0.64475753  0.90914692  1  0  -0.877929  0  1.839227  0  -1.311662  0  -0.824219  0  2.029628  0  0  -0.841429  0  1.997102  0  0  -0.598171  -0.812138  0  2.052382  0
O  O73  1  0.88581308  0.85524648  0.09085282  1  0  -0.877894  0  1.839247  0  -1.311615  0  -0.824188  0  2.029626  0  0  -0.841399  0  1.997102  0  0  -0.598144  -0.812112  0  2.052384  0
O  O74  1  0.22336277  0.40138700  0.01663558  1  0  -0.737389  0  2.055608  0  -1.274679  0  -0.672025  0  2.295017  0  0  -0.697785  0  2.282793  0  0  -0.351427  -0.654104  0  2.30302  0
O  O75  1  0.72336521  0.09861626  0.98336338  1  0  -0.737447  0  2.055389  0  -1.274601  0  -0.672054  0  2.294865  0  0  -0.697813  0  2.282641  0  0  -0.351394  -0.654136  0  2.302868  0
O  O76  1  0.77663797  0.59862117  0.98336365  1  0  -0.737302  0  2.055699  0  -1.274559  0  -0.671908  0  2.295142  0  0  -0.697669  0  2.282917  0  0  -0.351324  -0.653988  0  2.303143  0
O  O77  1  0.27663554  0.90139058  0.01663580  1  0  -0.737582  0  2.055269  0  -1.27464  0  -0.672153  0  2.294797  0  0  -0.697915  0  2.282573  0  0  -0.351453  -0.654234  0  2.302799  0
O  O78  1  0.02772621  0.21903634  0.07895050  1  0  -0.699511  0  2.027158  0  -1.258182  0  -0.642472  0  2.26955  0  0  -0.665394  0  2.257376  0  0  -0.344287  -0.626691  0  2.277579  0
O  O79  1  0.52774206  0.28096891  0.92104320  1  0  -0.699378  0  2.027387  0  -1.258084  0  -0.642274  0  2.269797  0  0  -0.665194  0  2.25763  0  0  -0.344247  -0.626483  0  2.277801  0
O  O80  1  0.97227161  0.78096786  0.92104626  1  0  -0.699447  0  2.027166  0  -1.258216  0  -0.642392  0  2.269602  0  0  -0.665316  0  2.257432  0  0  -0.344283  -0.626594  0  2.27759  0
O  O81  1  0.47225429  0.71903527  0.07895589  1  0  -0.699429  0  2.027325  0  -1.258327  0  -0.642293  0  2.269804  0  0  -0.665214  0  2.257635  0  0  -0.344234  -0.626505  0  2.277823  0
F  F82  1  0.98134876  0.78381268  0.49806602  1  0  -0.225327  0  1.202797  0  -0.659783  0  -0.163176  0  1.359553  0  0  -0.173276  0  1.351769  0  0  -0.102211  -0.155829  0  1.364819  0
F  F83  1  0.48134327  0.71618503  0.50193705  1  0  -0.225252  0  1.202803  0  -0.659806  0  -0.163113  0  1.359561  0  0  -0.173215  0  1.351779  0  0  -0.102195  -0.15577  0  1.364824  0
F  F84  1  0.01865345  0.21618483  0.50193399  1  0  -0.225272  0  1.202725  0  -0.659885  0  -0.16313  0  1.359486  0  0  -0.173233  0  1.351701  0  0  -0.102175  -0.155783  0  1.364753  0
F  F85  1  0.51865308  0.28380715  0.49806393  1  0  -0.225296  0  1.202875  0  -0.659759  0  -0.163142  0  1.359617  0  0  -0.173244  0  1.351835  0  0  -0.102191  -0.155795  0  1.364882  0
