# generated using pymatgen
data_CdH7C13NO4
_symmetry_space_group_name_H-M   'P 1'
_cell_length_a   6.96263369
_cell_length_b   8.27477595
_cell_length_c   21.40375085
_cell_angle_alpha   95.01833005
_cell_angle_beta   90.00002854
_cell_angle_gamma   90.00033020
_symmetry_Int_Tables_number   1
_chemical_formula_structural   CdH7C13NO4
_chemical_formula_sum   'Cd4 H28 C52 N4 O16'
_cell_volume   1228.43371071
_cell_formula_units_Z   4
loop_
 _symmetry_equiv_pos_site_id
 _symmetry_equiv_pos_as_xyz
  1  'x, y, z'
loop_
 _atom_site_type_symbol
 _atom_site_label
 _atom_site_symmetry_multiplicity
 _atom_site_fract_x
 _atom_site_fract_y
 _atom_site_fract_z
 _atom_site_occupancy
 _atom_site_hle17_bader_spin_density
 _atom_site_hle17_ddec_charge
 _atom_site_hle17_ddec_spin_density
 _atom_site_hle17_ddec_sum_bond_order
 _atom_site_hle17_magmom
 _atom_site_hse06_10hf_bader_spin_density
 _atom_site_hse06_10hf_ddec_charge
 _atom_site_hse06_10hf_ddec_spin_density
 _atom_site_hse06_10hf_ddec_sum_bond_order
 _atom_site_hse06_10hf_magmom
 _atom_site_hse06_bader_spin_density
 _atom_site_hse06_ddec_charge
 _atom_site_hse06_ddec_spin_density
 _atom_site_hse06_ddec_sum_bond_order
 _atom_site_hse06_magmom
 _atom_site_pbe_bader_spin_density
 _atom_site_pbe_cm5_charge
 _atom_site_pbe_ddec_charge
 _atom_site_pbe_ddec_spin_density
 _atom_site_pbe_ddec_sum_bond_order
 _atom_site_pbe_magmom
Cd  Cd0  1  0.71225759  0.16818413  0.71219113  1  0  1.190963  0  1.617581  0  0  1.009044  0  2.061208  0  0  1.072741  0  2.002215  0  0  0.780484  0.963627  0  2.101507  0
Cd  Cd1  1  0.21224912  0.33182076  0.78780879  1  0  1.190943  0  1.61762  0  0  1.009003  0  2.061261  0  0  1.072701  0  2.002271  0  0  0.780477  0.963584  0  2.101566  0
Cd  Cd2  1  0.28772889  0.83181728  0.28780944  1  0  1.190953  0  1.617581  0  0  1.009025  0  2.061209  0  0  1.072723  0  2.002219  0  0  0.780488  0.963607  0  2.101521  0
Cd  Cd3  1  0.78774166  0.66818064  0.21219272  1  0  1.19091  0  1.617696  0  0  1.008937  0  2.061367  0  0  1.072636  0  2.002383  0  0  0.780437  0.963524  0  2.101651  0
H  H4  1  0.30287831  0.29801605  0.58491217  1  0  0.099963  0  0.938844  0  0  0.111808  0  0.994878  0  0  0.114686  0  0.994232  0  0  0.104601  0.109755  0  0.995464  0
H  H5  1  0.80287447  0.20199536  0.91509079  1  0  0.100057  0  0.938889  0  0  0.111839  0  0.994985  0  0  0.114719  0  0.99434  0  0  0.104655  0.10979  0  0.995568  0
H  H6  1  0.69711390  0.70198293  0.41508786  1  0  0.099993  0  0.938909  0  0  0.111843  0  0.994929  0  0  0.114727  0  0.994281  0  0  0.104607  0.109795  0  0.995519  0
H  H7  1  0.19711201  0.79800604  0.08490979  1  0  0.10013  0  0.938775  0  0  0.111869  0  0.994915  0  0  0.114752  0  0.994267  0  0  0.10464  0.109818  0  0.995494  0
H  H8  1  0.30502799  0.21777434  0.46924100  1  0  0.100912  0  0.940222  0  0  0.112731  0  0.997025  0  0  0.116446  0  0.994356  0  0  0.106092  0.110061  0  0.998987  0
H  H9  1  0.80502822  0.28224795  0.03076029  1  0  0.100897  0  0.940265  0  0  0.112736  0  0.997057  0  0  0.11645  0  0.994389  0  0  0.106131  0.110074  0  0.999019  0
H  H10  1  0.69497428  0.78222585  0.53075860  1  0  0.100953  0  0.94018  0  0  0.112778  0  0.996981  0  0  0.116493  0  0.994312  0  0  0.106111  0.110107  0  0.998944  0
H  H11  1  0.19497836  0.71775952  0.96923909  1  0  0.10094  0  0.940226  0  0  0.112771  0  0.997023  0  0  0.116486  0  0.994354  0  0  0.106133  0.11011  0  0.998977  0
H  H12  1  0.20272643  0.72323727  0.50372404  1  0  0.105073  0  0.939887  0  0  0.11518  0  1.000095  0  0  0.119084  0  0.99731  0  0  0.105731  0.112415  0  1.002088  0
H  H13  1  0.70273759  0.77676999  0.99627206  1  0  0.104998  0  0.940044  0  0  0.115018  0  1.000343  0  0  0.118916  0  0.997567  0  0  0.105687  0.112255  0  1.002328  0
H  H14  1  0.79729452  0.27675686  0.49627722  1  0  0.10511  0  0.939902  0  0  0.115199  0  1.000114  0  0  0.119104  0  0.997326  0  0  0.105719  0.112435  0  1.002103  0
H  H15  1  0.29727330  0.22322778  0.00372513  1  0  0.105091  0  0.939849  0  0  0.115128  0  1.000132  0  0  0.119031  0  0.99735  0  0  0.105719  0.112367  0  1.002119  0
H  H16  1  0.96133284  0.63557507  0.58734044  1  0  0.114433  0  0.936132  0  0  0.12743  0  0.989809  0  0  0.130767  0  0.98852  0  0  0.113744  0.125029  0  0.990896  0
H  H17  1  0.46133633  0.86442745  0.91265833  1  0  0.114382  0  0.936237  0  0  0.12739  0  0.989914  0  0  0.130728  0  0.988624  0  0  0.113712  0.124988  0  0.990997  0
H  H18  1  0.03868236  0.36441785  0.41266032  1  0  0.114317  0  0.936109  0  0  0.127342  0  0.989782  0  0  0.130681  0  0.988493  0  0  0.113717  0.124941  0  0.990866  0
H  H19  1  0.53864728  0.13556182  0.08734323  1  0  0.114361  0  0.936307  0  0  0.127376  0  0.989973  0  0  0.130713  0  0.988686  0  0  0.113695  0.12498  0  0.991052  0
H  H20  1  0.95848992  0.42690630  0.66378379  1  0  0.083037  0  0.962723  0  0  0.091055  0  1.030733  0  0  0.093837  0  1.027495  0  0  0.112924  0.088971  0  1.033177  0
H  H21  1  0.45849136  0.07309622  0.83621328  1  0  0.083045  0  0.962756  0  0  0.091014  0  1.030817  0  0  0.093794  0  1.027583  0  0  0.112926  0.088927  0  1.033255  0
H  H22  1  0.04152241  0.57308540  0.33621692  1  0  0.083009  0  0.962818  0  0  0.091067  0  1.03077  0  0  0.093849  0  1.02753  0  0  0.112868  0.088985  0  1.033207  0
H  H23  1  0.54148794  0.92689548  0.16378743  1  0  0.082941  0  0.962813  0  0  0.09101  0  1.030786  0  0  0.093793  0  1.027547  0  0  0.112904  0.088928  0  1.033221  0
H  H24  1  0.41932692  0.64195326  0.76230326  1  0  0.087423  0  0.954527  0  0  0.093955  0  1.021011  0  0  0.096153  0  1.019807  0  0  0.114587  0.092353  0  1.021858  0
H  H25  1  0.91932375  0.85805389  0.73769800  1  0  0.087589  0  0.954618  0  0  0.094147  0  1.021028  0  0  0.096352  0  1.019806  0  0  0.114664  0.092537  0  1.021906  0
H  H26  1  0.58069402  0.35803845  0.23769325  1  0  0.087421  0  0.954435  0  0  0.093944  0  1.020942  0  0  0.096146  0  1.019728  0  0  0.114613  0.092345  0  1.021788  0
H  H27  1  0.08066703  0.14196086  0.26230396  1  0  0.087603  0  0.954514  0  0  0.0941  0  1.020981  0  0  0.096306  0  1.019758  0  0  0.114622  0.092487  0  1.021873  0
H  H28  1  0.45165582  0.85215461  0.68572617  1  0  0.117693  0  0.972555  0  0  0.123643  0  1.039573  0  0  0.126889  0  1.038694  0  0  0.10708  0.12127  0  1.040458  0
H  H29  1  0.95166004  0.64785028  0.81427362  1  0  0.117748  0  0.972379  0  0  0.123702  0  1.039406  0  0  0.126948  0  1.038531  0  0  0.107115  0.121334  0  1.040291  0
H  H30  1  0.54835220  0.14783588  0.31427123  1  0  0.117682  0  0.972477  0  0  0.123702  0  1.039431  0  0  0.126952  0  1.038546  0  0  0.107095  0.121325  0  1.040316  0
H  H31  1  0.04833792  0.35216083  0.18572729  1  0  0.117692  0  0.972501  0  0  0.123675  0  1.039474  0  0  0.126922  0  1.038594  0  0  0.107069  0.121298  0  1.040355  0
C  C32  1  0.23078008  0.11344860  0.67744723  1  0  0.669152  0  3.888711  0  0  0.613002  0  4.187022  0  0  0.649299  0  4.178691  0  0  0.211136  0.588209  0  4.191807  0
C  C33  1  0.73078875  0.38655880  0.82255512  1  0  0.668825  0  3.888905  0  0  0.612847  0  4.186939  0  0  0.649149  0  4.178601  0  0  0.211029  0.58805  0  4.19173  0
C  C34  1  0.76923080  0.88655523  0.32255296  1  0  0.66878  0  3.889525  0  0  0.612929  0  4.187377  0  0  0.649215  0  4.179062  0  0  0.211155  0.588137  0  4.192159  0
C  C35  1  0.26919629  0.61344261  0.17744312  1  0  0.668546  0  3.888751  0  0  0.612601  0  4.186747  0  0  0.648902  0  4.178412  0  0  0.210898  0.587803  0  4.191527  0
C  C36  1  0.24691166  0.05539006  0.60930673  1  0  -0.06534  0  3.676716  0  0  -0.048248  0  3.910366  0  0  -0.052999  0  3.929704  0  0  -0.002181  -0.045061  0  3.897417  0
C  C37  1  0.74690791  0.44461986  0.89069197  1  0  -0.06554  0  3.677001  0  0  -0.048454  0  3.910595  0  0  -0.053209  0  3.929933  0  0  -0.002185  -0.04527  0  3.897655  0
C  C38  1  0.75308774  0.94461256  0.39069249  1  0  -0.065329  0  3.676982  0  0  -0.048323  0  3.91058  0  0  -0.053074  0  3.929926  0  0  -0.002229  -0.045141  0  3.89764  0
C  C39  1  0.25309006  0.55538276  0.10930771  1  0  -0.065445  0  3.677145  0  0  -0.048365  0  3.910699  0  0  -0.05312  0  3.930036  0  0  -0.002176  -0.045171  0  3.897753  0
C  C40  1  0.27823348  0.17237914  0.56695385  1  0  -0.068047  0  3.722329  0  0  -0.09206  0  3.977186  0  0  -0.094032  0  3.997182  0  0  -0.081705  -0.090831  0  3.963729  0
C  C41  1  0.77823479  0.32762973  0.93304668  1  0  -0.06808  0  3.722574  0  0  -0.09205  0  3.977447  0  0  -0.094023  0  3.997444  0  0  -0.081751  -0.090817  0  3.963992  0
C  C42  1  0.72176305  0.82761620  0.43304651  1  0  -0.068043  0  3.722208  0  0  -0.092058  0  3.97707  0  0  -0.094034  0  3.997071  0  0  -0.081672  -0.090827  0  3.963623  0
C  C43  1  0.22176604  0.67237168  0.06695343  1  0  -0.068234  0  3.72265  0  0  -0.092169  0  3.977498  0  0  -0.094145  0  3.997497  0  0  -0.081803  -0.090942  0  3.96404  0
C  C44  1  0.27814997  0.12856803  0.50273081  1  0  -0.055776  0  3.725069  0  0  -0.082968  0  3.980581  0  0  -0.082593  0  4.000173  0  0  -0.07668  -0.082996  0  3.96728  0
C  C45  1  0.77815170  0.37143961  0.99727202  1  0  -0.055635  0  3.724997  0  0  -0.08287  0  3.980522  0  0  -0.082493  0  4.000112  0  0  -0.076679  -0.082903  0  3.96723  0
C  C46  1  0.72185661  0.87143580  0.49726845  1  0  -0.055865  0  3.725332  0  0  -0.083072  0  3.980869  0  0  -0.082702  0  4.000468  0  0  -0.076751  -0.0831  0  3.967571  0
C  C47  1  0.22185919  0.62856179  0.00272949  1  0  -0.055688  0  3.725135  0  0  -0.082883  0  3.980618  0  0  -0.082508  0  4.000211  0  0  -0.076624  -0.082918  0  3.967318  0
C  C48  1  0.24815397  0.96684137  0.47988468  1  0  -0.04681  0  3.759673  0  0  -0.024385  0  3.994688  0  0  -0.032053  0  4.018627  0  0  -0.013228  -0.019514  0  3.978812  0
C  C49  1  0.74815687  0.53317455  0.02011810  1  0  -0.046904  0  3.759377  0  0  -0.02446  0  3.994383  0  0  -0.03213  0  4.018324  0  0  -0.013254  -0.019592  0  3.978507  0
C  C50  1  0.75185261  0.03314912  0.52011506  1  0  -0.046754  0  3.759506  0  0  -0.024329  0  3.99455  0  0  -0.031992  0  4.018487  0  0  -0.013192  -0.019453  0  3.978662  0
C  C51  1  0.25185833  0.46682928  0.97988350  1  0  -0.046795  0  3.759647  0  0  -0.02437  0  3.994681  0  0  -0.032035  0  4.018617  0  0  -0.013227  -0.019496  0  3.978806  0
C  C52  1  0.21876533  0.84956013  0.52210799  1  0  -0.096783  0  3.692086  0  0  -0.129069  0  3.943224  0  0  -0.129425  0  3.962522  0  0  -0.074096  -0.128624  0  3.930144  0
C  C53  1  0.71876558  0.65046905  0.97789072  1  0  -0.096653  0  3.691643  0  0  -0.128852  0  3.942784  0  0  -0.129204  0  3.962076  0  0  -0.074075  -0.128417  0  3.92972  0
C  C54  1  0.78124987  0.15044492  0.47789271  1  0  -0.096889  0  3.692043  0  0  -0.129138  0  3.94318  0  0  -0.129499  0  3.962482  0  0  -0.074086  -0.128695  0  3.930095  0
C  C55  1  0.28124388  0.34954571  0.02210844  1  0  -0.096906  0  3.691971  0  0  -0.129103  0  3.943111  0  0  -0.129461  0  3.962407  0  0  -0.074096  -0.128661  0  3.930035  0
C  C56  1  0.21877845  0.89160386  0.58689362  1  0  0.03595  0  3.738098  0  0  0.043046  0  3.974421  0  0  0.04194  0  3.997008  0  0  0.000639  0.043687  0  3.959136  0
C  C57  1  0.71877974  0.60840348  0.91310529  1  0  0.036131  0  3.737957  0  0  0.043139  0  3.974262  0  0  0.042034  0  3.996844  0  0  0.000686  0.043784  0  3.958979  0
C  C58  1  0.78122525  0.10838784  0.41310616  1  0  0.036091  0  3.738121  0  0  0.043128  0  3.974451  0  0  0.042022  0  3.997039  0  0  0.000641  0.043769  0  3.959167  0
C  C59  1  0.28122110  0.39159550  0.08689427  1  0  0.036193  0  3.737836  0  0  0.043264  0  3.974216  0  0  0.042163  0  3.996792  0  0  0.000673  0.043897  0  3.958945  0
C  C60  1  0.25747925  0.92109961  0.41084763  1  0  0.629162  0  3.928414  0  0  0.580603  0  4.220131  0  0  0.614821  0  4.216701  0  0  0.189114  0.557399  0  4.221611  0
C  C61  1  0.75747540  0.57891757  0.08915332  1  0  0.629133  0  3.928659  0  0  0.580603  0  4.220317  0  0  0.614821  0  4.216887  0  0  0.189151  0.557396  0  4.221796  0
C  C62  1  0.74252159  0.07890180  0.58915482  1  0  0.629236  0  3.928376  0  0  0.580635  0  4.220171  0  0  0.614848  0  4.216747  0  0  0.189151  0.557439  0  4.221636  0
C  C63  1  0.24252974  0.42108868  0.91084742  1  0  0.629083  0  3.928714  0  0  0.580492  0  4.220473  0  0  0.614708  0  4.217048  0  0  0.18908  0.557282  0  4.221955  0
C  C64  1  0.20485088  0.76490612  0.63105745  1  0  0.117171  0  3.754973  0  0  0.126693  0  3.988037  0  0  0.131924  0  4.009711  0  0  0.018957  0.12335  0  3.973358  0
C  C65  1  0.70485865  0.73509751  0.86893993  1  0  0.117032  0  3.755221  0  0  0.126714  0  3.988084  0  0  0.131948  0  4.009753  0  0  0.018908  0.123368  0  3.973412  0
C  C66  1  0.79516144  0.23509286  0.36894165  1  0  0.116965  0  3.755106  0  0  0.1266  0  3.988055  0  0  0.131831  0  4.009727  0  0  0.018885  0.123263  0  3.973375  0
C  C67  1  0.29512782  0.26490632  0.13106026  1  0  0.117166  0  3.75501  0  0  0.12658  0  3.988248  0  0  0.131809  0  4.009921  0  0  0.018863  0.123239  0  3.973572  0
C  C68  1  0.06730338  0.64069542  0.62487182  1  0  -0.153801  0  3.688631  0  0  -0.170377  0  3.932556  0  0  -0.177707  0  3.952266  0  0  -0.077071  -0.165723  0  3.919401  0
C  C69  1  0.56729905  0.85931235  0.87512615  1  0  -0.153684  0  3.688506  0  0  -0.170305  0  3.932382  0  0  -0.177633  0  3.952085  0  0  -0.07701  -0.16565  0  3.919224  0
C  C70  1  0.93269314  0.35929628  0.37512562  1  0  -0.153496  0  3.688792  0  0  -0.170157  0  3.932729  0  0  -0.177488  0  3.952442  0  0  -0.076988  -0.165501  0  3.919568  0
C  C71  1  0.43269030  0.14068178  0.12487372  1  0  -0.153827  0  3.688367  0  0  -0.170375  0  3.932339  0  0  -0.177704  0  3.952046  0  0  -0.076997  -0.165726  0  3.919192  0
C  C72  1  0.06327009  0.52521860  0.66836481  1  0  0.126963  0  3.712652  0  0  0.096618  0  3.96492  0  0  0.103875  0  3.9841  0  0  0.045008  0.091931  0  3.951832  0
C  C73  1  0.56326786  0.97478794  0.83163265  1  0  0.12689  0  3.71277  0  0  0.096572  0  3.965053  0  0  0.103831  0  3.984228  0  0  0.044948  0.091886  0  3.951955  0
C  C74  1  0.93674941  0.47477674  0.33163696  1  0  0.126948  0  3.712545  0  0  0.096565  0  3.964794  0  0  0.103824  0  3.983971  0  0  0.045048  0.091869  0  3.95171  0
C  C75  1  0.43670425  0.02521346  0.16837073  1  0  0.127144  0  3.713219  0  0  0.096742  0  3.965479  0  0  0.104  0  3.984656  0  0  0.045006  0.092051  0  3.952385  0
C  C76  1  0.32057835  0.64597254  0.72292840  1  0  0.138576  0  3.693914  0  0  0.111274  0  3.938215  0  0  0.119301  0  3.956236  0  0  0.046716  0.106092  0  3.925887  0
C  C77  1  0.82058958  0.85402804  0.77706842  1  0  0.1384  0  3.69372  0  0  0.111097  0  3.937996  0  0  0.119126  0  3.956016  0  0  0.04664  0.105909  0  3.925672  0
C  C78  1  0.67943542  0.35402159  0.27707146  1  0  0.138705  0  3.693934  0  0  0.111378  0  3.938238  0  0  0.119405  0  3.956262  0  0  0.046717  0.106203  0  3.925908  0
C  C79  1  0.17940120  0.14597700  0.22293415  1  0  0.138318  0  3.69369  0  0  0.111098  0  3.937928  0  0  0.119129  0  3.955945  0  0  0.046675  0.105905  0  3.925599  0
C  C80  1  0.33544088  0.76398844  0.68100997  1  0  -0.158913  0  3.682452  0  0  -0.174146  0  3.923183  0  0  -0.182201  0  3.943476  0  0  -0.082691  -0.16904  0  3.90973  0
C  C81  1  0.83543276  0.73602313  0.81899190  1  0  -0.159004  0  3.682795  0  0  -0.174307  0  3.923539  0  0  -0.182366  0  3.943834  0  0  -0.082742  -0.169206  0  3.910097  0
C  C82  1  0.66457575  0.23601175  0.31898917  1  0  -0.158932  0  3.682614  0  0  -0.17425  0  3.923277  0  0  -0.182307  0  3.943569  0  0  -0.082689  -0.169144  0  3.90983  0
C  C83  1  0.16455802  0.26398677  0.18100709  1  0  -0.159013  0  3.682819  0  0  -0.174236  0  3.923536  0  0  -0.182294  0  3.943831  0  0  -0.082715  -0.169117  0  3.910077  0
N  N84  1  0.18634140  0.52825926  0.71707110  1  0  -0.351083  0  3.262542  0  0  -0.272472  0  3.52637  0  0  -0.294336  0  3.54602  0  0  -0.335129  -0.257505  0  3.512583  0
N  N85  1  0.68633474  0.97175033  0.78292881  1  0  -0.351022  0  3.262453  0  0  -0.272405  0  3.526273  0  0  -0.294272  0  3.545922  0  0  -0.335091  -0.257433  0  3.512478  0
N  N86  1  0.81366949  0.47173487  0.28292689  1  0  -0.351208  0  3.262404  0  0  -0.272532  0  3.526187  0  0  -0.294397  0  3.545837  0  0  -0.335148  -0.257563  0  3.512397  0
N  N87  1  0.31365317  0.02825350  0.21707091  1  0  -0.35096  0  3.262916  0  0  -0.272372  0  3.526737  0  0  -0.294239  0  3.546391  0  0  -0.33505  -0.257397  0  3.512939  0
O  O88  1  0.37438406  0.18952837  0.70426412  1  0  -0.690848  0  2.117921  0  0  -0.6114  0  2.393136  0  0  -0.646505  0  2.380333  0  0  -0.331035  -0.586543  0  2.400808  0
O  O89  1  0.87436777  0.31048463  0.79573656  1  0  -0.690495  0  2.118289  0  0  -0.611176  0  2.393533  0  0  -0.646272  0  2.380719  0  0  -0.330906  -0.586331  0  2.401231  0
O  O90  1  0.62560097  0.81046212  0.29573749  1  0  -0.690724  0  2.117734  0  0  -0.611396  0  2.392848  0  0  -0.646505  0  2.380062  0  0  -0.331028  -0.586551  0  2.400559  0
O  O91  1  0.12562589  0.68951435  0.20426346  1  0  -0.690281  0  2.118402  0  0  -0.610973  0  2.393637  0  0  -0.646084  0  2.38088  0  0  -0.330853  -0.586131  0  2.401331  0
O  O92  1  0.07515792  0.09886422  0.70652512  1  0  -0.637614  0  2.010398  0  0  -0.576097  0  2.263716  0  0  -0.605744  0  2.253459  0  0  -0.310015  -0.555113  0  2.270003  0
O  O93  1  0.57514077  0.40116059  0.79347125  1  0  -0.637624  0  2.009845  0  0  -0.576185  0  2.263151  0  0  -0.605837  0  2.252895  0  0  -0.310081  -0.555191  0  2.269432  0
O  O94  1  0.92482281  0.90114083  0.29347371  1  0  -0.637465  0  2.011215  0  0  -0.576026  0  2.264395  0  0  -0.605661  0  2.254146  0  0  -0.310042  -0.55504  0  2.270678  0
O  O95  1  0.42486581  0.59884202  0.20653123  1  0  -0.637626  0  2.009226  0  0  -0.576182  0  2.262502  0  0  -0.605839  0  2.25225  0  0  -0.310007  -0.555187  0  2.268783  0
O  O96  1  0.28695798  0.03270878  0.37463157  1  0  -0.636839  0  1.947093  0  0  -0.583496  0  2.190311  0  0  -0.612439  0  2.183157  0  0  -0.331932  -0.563159  0  2.194508  0
O  O97  1  0.78693950  0.46730492  0.12536849  1  0  -0.636757  0  1.947229  0  0  -0.583395  0  2.19042  0  0  -0.612336  0  2.183265  0  0  -0.331885  -0.563061  0  2.194619  0
O  O98  1  0.71303855  0.96729020  0.62536799  1  0  -0.63685  0  1.94714  0  0  -0.583482  0  2.190371  0  0  -0.612424  0  2.183218  0  0  -0.331933  -0.563152  0  2.194568  0
O  O99  1  0.21305128  0.53270133  0.87463178  1  0  -0.636733  0  1.947177  0  0  -0.583366  0  2.190423  0  0  -0.61231  0  2.183273  0  0  -0.331871  -0.563026  0  2.194623  0
O  O100  1  0.23898430  0.77112385  0.39035676  1  0  -0.654628  0  1.926533  0  0  -0.591349  0  2.160183  0  0  -0.621715  0  2.150532  0  0  -0.341027  -0.570016  0  2.166026  0
O  O101  1  0.73898578  0.72888838  0.10964448  1  0  -0.654627  0  1.926557  0  0  -0.591352  0  2.160164  0  0  -0.621723  0  2.15053  0  0  -0.341072  -0.570019  0  2.165999  0
O  O102  1  0.76101079  0.22887027  0.60964310  1  0  -0.654636  0  1.926713  0  0  -0.591341  0  2.160389  0  0  -0.621707  0  2.150747  0  0  -0.341042  -0.570016  0  2.166227  0
O  O103  1  0.26102511  0.27111909  0.89035583  1  0  -0.65462  0  1.926681  0  0  -0.591303  0  2.160309  0  0  -0.621677  0  2.150684  0  0  -0.341029  -0.569968  0  2.166149  0
