# generated using pymatgen
data_CuH4C6NO4
_symmetry_space_group_name_H-M   'P 1'
_cell_length_a   7.23607981
_cell_length_b   7.67981156
_cell_length_c   7.67972153
_cell_angle_alpha   100.63673744
_cell_angle_beta   107.22258828
_cell_angle_gamma   107.22318186
_symmetry_Int_Tables_number   1
_chemical_formula_structural   CuH4C6NO4
_chemical_formula_sum   'Cu2 H8 C12 N2 O8'
_cell_volume   371.62003344
_cell_formula_units_Z   2
loop_
 _symmetry_equiv_pos_site_id
 _symmetry_equiv_pos_as_xyz
  1  'x, y, z'
loop_
 _atom_site_type_symbol
 _atom_site_label
 _atom_site_symmetry_multiplicity
 _atom_site_fract_x
 _atom_site_fract_y
 _atom_site_fract_z
 _atom_site_occupancy
 _atom_site_hle17_bader_spin_density
 _atom_site_hle17_ddec_charge
 _atom_site_hle17_ddec_spin_density
 _atom_site_hle17_ddec_sum_bond_order
 _atom_site_hle17_magmom
 _atom_site_hse06_10hf_bader_spin_density
 _atom_site_hse06_10hf_ddec_charge
 _atom_site_hse06_10hf_ddec_spin_density
 _atom_site_hse06_10hf_ddec_sum_bond_order
 _atom_site_hse06_10hf_magmom
 _atom_site_hse06_bader_spin_density
 _atom_site_hse06_ddec_charge
 _atom_site_hse06_ddec_spin_density
 _atom_site_hse06_ddec_sum_bond_order
 _atom_site_hse06_magmom
 _atom_site_pbe_bader_spin_density
 _atom_site_pbe_cm5_charge
 _atom_site_pbe_ddec_charge
 _atom_site_pbe_ddec_spin_density
 _atom_site_pbe_ddec_sum_bond_order
 _atom_site_pbe_magmom
Cu  Cu0  1  0.51791350  0.60018884  0.14462225  1  0  0.814973  0  1.928775  0  0  0.75557  0  2.366856  0  0  0.799157  0  2.298946  0  0  0.668536  0.728719  0  2.412464  0
Cu  Cu1  1  0.48208753  0.85537231  0.39980908  1  0  0.815175  0  1.928939  0  0  0.755755  0  2.367064  0  0  0.799384  0  2.299152  0  0  0.668629  0.728769  0  2.412705  0
H  H2  1  0.06205507  0.08497189  0.15540315  1  0  0.133834  0  0.956493  0  0  0.138632  0  1.020323  0  0  0.142983  0  1.017378  0  0  0.111703  0.135472  0  1.022607  0
H  H3  1  0.93793204  0.84460169  0.91503818  1  0  0.133871  0  0.956364  0  0  0.138714  0  1.020167  0  0  0.143066  0  1.017221  0  0  0.111788  0.135549  0  1.022461  0
H  H4  1  0.93774409  0.37108062  0.38949731  1  0  0.134445  0  0.955481  0  0  0.139191  0  1.019447  0  0  0.143545  0  1.016492  0  0  0.111855  0.136038  0  1.021691  0
H  H5  1  0.06226586  0.61053480  0.62892339  1  0  0.134328  0  0.955433  0  0  0.139099  0  1.019372  0  0  0.143457  0  1.016431  0  0  0.111812  0.135945  0  1.021612  0
H  H6  1  0.51367891  0.53737025  0.72994624  1  0  0.102169  0  0.929695  0  0  0.109278  0  0.991963  0  0  0.11233  0  0.990554  0  0  0.123244  0.107021  0  0.993135  0
H  H7  1  0.48632204  0.27003688  0.46261081  1  0  0.1022  0  0.929694  0  0  0.109368  0  0.991895  0  0  0.112376  0  0.990537  0  0  0.123279  0.10711  0  0.993068  0
H  H8  1  0.51368049  0.18574477  0.08155894  1  0  0.101069  0  0.929345  0  0  0.1089  0  0.990801  0  0  0.111865  0  0.989482  0  0  0.123225  0.10666  0  0.991978  0
H  H9  1  0.48630311  0.91842802  0.81425295  1  0  0.101013  0  0.929352  0  0  0.108826  0  0.990834  0  0  0.11179  0  0.989515  0  0  0.123217  0.106623  0  0.991968  0
C  C10  1  0.79012862  0.98698486  0.23698752  1  0  0.665432  0  3.872689  0  0  0.628243  0  4.165078  0  0  0.664375  0  4.157114  0  0  0.211921  0.603883  0  4.170076  0
C  C11  1  0.20986848  0.76300829  0.01302054  1  0  0.6655  0  3.872381  0  0  0.62831  0  4.164781  0  0  0.664447  0  4.15681  0  0  0.211956  0.603954  0  4.169777  0
C  C12  1  0.97245838  0.13494315  0.23014547  1  0  -0.140906  0  3.616276  0  0  -0.162567  0  3.869136  0  0  -0.168399  0  3.883796  0  0  -0.074342  -0.15903  0  3.859736  0
C  C13  1  0.02754079  0.76987065  0.86506797  1  0  -0.140969  0  3.616225  0  0  -0.162666  0  3.869098  0  0  -0.168493  0  3.883755  0  0  -0.074478  -0.159127  0  3.859698  0
C  C14  1  0.02742383  0.32120158  0.31482727  1  0  -0.143344  0  3.616699  0  0  -0.164772  0  3.869461  0  0  -0.170594  0  3.884077  0  0  -0.074626  -0.161219  0  3.86008  0
C  C15  1  0.97258881  0.68520513  0.67881580  1  0  -0.143265  0  3.616761  0  0  -0.164705  0  3.869576  0  0  -0.170543  0  3.884206  0  0  -0.074566  -0.16115  0  3.860191  0
C  C16  1  0.20974753  0.46903906  0.30793597  1  0  0.663886  0  3.874593  0  0  0.626772  0  4.166992  0  0  0.66289  0  4.159056  0  0  0.211098  0.602417  0  4.171975  0
C  C17  1  0.79026683  0.69207538  0.53096026  1  0  0.663873  0  3.874499  0  0  0.626678  0  4.167033  0  0  0.662796  0  4.159099  0  0  0.211037  0.602322  0  4.172016  0
C  C18  1  0.50800728  0.39867709  0.74872518  1  0  0.078455  0  3.657982  0  0  0.057482  0  3.904981  0  0  0.058184  0  3.924233  0  0  0.058362  0.056931  0  3.892388  0
C  C19  1  0.49198905  0.25125833  0.60130773  1  0  0.078339  0  3.658096  0  0  0.057243  0  3.905119  0  0  0.057977  0  3.9244  0  0  0.058159  0.056692  0  3.892518  0
C  C20  1  0.50799627  0.20446606  0.94286317  1  0  0.079831  0  3.658059  0  0  0.058285  0  3.905709  0  0  0.05905  0  3.924939  0  0  0.058578  0.05771  0  3.893155  0
C  C21  1  0.49199391  0.05712131  0.79552400  1  0  0.080281  0  3.657976  0  0  0.058703  0  3.905589  0  0  0.059474  0  3.924819  0  0  0.05877  0.058097  0  3.89301  0
N  N22  1  0.51623274  0.37522534  0.91941869  1  0  -0.244157  0  3.204049  0  0  -0.195147  0  3.477457  0  0  -0.204277  0  3.48793  0  0  -0.309094  -0.18951  0  3.471023  0
N  N23  1  0.48376045  0.08056638  0.62476445  1  0  -0.24434  0  3.204139  0  0  -0.195182  0  3.477455  0  0  -0.204326  0  3.487922  0  0  -0.309043  -0.189544  0  3.471025  0
O  O24  1  0.73881541  0.81859043  0.12964079  1  0  -0.552373  0  2.055523  0  0  -0.516169  0  2.324766  0  0  -0.54411  0  2.311141  0  0  -0.301196  -0.497183  0  2.333599  0
O  O25  1  0.26118510  0.87035254  0.18142379  1  0  -0.552473  0  2.055429  0  0  -0.516271  0  2.324724  0  0  -0.544228  0  2.31107  0  0  -0.301286  -0.497297  0  2.333536  0
O  O26  1  0.29691354  0.65248943  0.95988235  1  0  -0.57155  0  2.080878  0  0  -0.534933  0  2.348456  0  0  -0.562605  0  2.335122  0  0  -0.309429  -0.516464  0  2.357379  0
O  O27  1  0.70307200  0.04011310  0.34750344  1  0  -0.571594  0  2.080921  0  0  -0.534976  0  2.348518  0  0  -0.562668  0  2.335184  0  0  -0.309495  -0.516515  0  2.357429  0
O  O28  1  0.26200792  0.63726172  0.41611836  1  0  -0.551326  0  2.055054  0  0  -0.514681  0  2.323638  0  0  -0.542658  0  2.31006  0  0  -0.3008  -0.495734  0  2.332502  0
O  O29  1  0.73800783  0.58389419  0.36274265  1  0  -0.551283  0  2.055125  0  0  -0.514609  0  2.323715  0  0  -0.542563  0  2.310142  0  0  -0.300726  -0.495651  0  2.332594  0
O  O30  1  0.29593755  0.41604706  0.19653070  1  0  -0.570553  0  2.080488  0  0  -0.534212  0  2.34794  0  0  -0.561857  0  2.334602  0  0  -0.30905  -0.515768  0  2.356894  0
O  O31  1  0.70407283  0.80348480  0.58394470  1  0  -0.570539  0  2.080346  0  0  -0.534158  0  2.347848  0  0  -0.561822  0  2.334509  0  0  -0.309037  -0.515722  0  2.35679  0
