# generated using pymatgen
data_ZnH13C21(NO)4
_symmetry_space_group_name_H-M   'P 1'
_cell_length_a   10.52376054
_cell_length_b   12.83424442
_cell_length_c   23.63837486
_cell_angle_alpha   78.41424872
_cell_angle_beta   77.15577284
_cell_angle_gamma   65.79778790
_symmetry_Int_Tables_number   1
_chemical_formula_structural   ZnH13C21(NO)4
_chemical_formula_sum   'Zn4 H52 C84 N16 O16'
_cell_volume   2817.52926988
_cell_formula_units_Z   4
loop_
 _symmetry_equiv_pos_site_id
 _symmetry_equiv_pos_as_xyz
  1  'x, y, z'
loop_
 _atom_site_type_symbol
 _atom_site_label
 _atom_site_symmetry_multiplicity
 _atom_site_fract_x
 _atom_site_fract_y
 _atom_site_fract_z
 _atom_site_occupancy
 _atom_site_pbe_bader_charge
 _atom_site_pbe_bader_spin_density
 _atom_site_pbe_cm5_charge
 _atom_site_pbe_ddec_charge
 _atom_site_pbe_ddec_spin_density
 _atom_site_pbe_ddec_sum_bond_order
 _atom_site_pbe_magmom
Zn  Zn0  1  0.81588671  0.02632433  0.49143671  1  1.322585  0  0.690003  0.828054  0  2.365219  0
Zn  Zn1  1  0.33362012  0.47357914  0.00856203  1  1.321296  0  0.689482  0.827655  0  2.365206  0
Zn  Zn2  1  0.18411117  0.97367719  0.50856374  1  1.322487  0  0.690015  0.828121  0  2.365223  0
Zn  Zn3  1  0.66638052  0.52642067  0.99143876  1  1.321288  0  0.689498  0.827713  0  2.365122  0
H  H4  1  0.63339456  0.31004736  0.44817406  1  0.143983  0  0.129098  0.122131  0  0.989313  0
H  H5  1  0.39151412  0.18979751  0.05179821  1  0.13044  0  0.129002  0.121683  0  0.989687  0
H  H6  1  0.36660623  0.68995417  0.55182484  1  0.14401  0  0.129121  0.122188  0  0.989313  0
H  H7  1  0.60848512  0.81020315  0.94820052  1  0.130436  0  0.129002  0.121661  0  0.989671  0
H  H8  1  0.87250094  0.84678067  0.60519587  1  0.141812  0  0.131491  0.130318  0  0.988506  0
H  H9  1  0.32434358  0.65315308  0.89464177  1  0.150658  0  0.13177  0.130755  0  0.987686  0
H  H10  1  0.12749751  0.15322172  0.39480443  1  0.141807  0  0.131517  0.130343  0  0.988459  0
H  H11  1  0.67565648  0.34684586  0.10535833  1  0.150633  0  0.131768  0.130749  0  0.987703  0
H  H12  1  0.46216243  0.89706397  0.74703268  1  0.043895  0  0.099315  0.099223  0  1.011752  0
H  H13  1  0.10572201  0.60277553  0.75286548  1  0.042998  0  0.099481  0.099219  0  1.011832  0
H  H14  1  0.53783603  0.10293842  0.25296847  1  0.043909  0  0.099319  0.099231  0  1.011733  0
H  H15  1  0.89427984  0.39722169  0.24713547  1  0.043136  0  0.099501  0.099233  0  1.011823  0
H  H16  1  0.25146904  0.24869567  0.52797872  1  0.162808  0  0.136753  0.142253  0  0.985556  0
H  H17  1  0.02814726  0.25134957  0.97180552  1  0.135649  0  0.136924  0.142118  0  0.985878  0
H  H18  1  0.74853175  0.75130585  0.47202060  1  0.162794  0  0.136723  0.142199  0  0.985605  0
H  H19  1  0.97185101  0.74865109  0.02819330  1  0.135673  0  0.136927  0.142114  0  0.985912  0
H  H20  1  0.89362165  0.54825438  0.77709519  1  0.085243  0  0.102028  0.101078  0  1.008867  0
H  H21  1  0.21868471  0.95147094  0.72286563  1  0.071456  0  0.10225  0.101525  0  1.009471  0
H  H22  1  0.10637565  0.45174628  0.22290500  1  0.085221  0  0.102011  0.101069  0  1.00886  0
H  H23  1  0.78131477  0.04852714  0.27713378  1  0.071422  0  0.102261  0.101532  0  1.009462  0
H  H24  1  0.99346526  0.65777102  0.51849932  1  0.070557  0  0.100575  0.10042  0  1.020462  0
H  H25  1  0.16949687  0.84211786  0.98151162  1  0.056008  0  0.100641  0.100912  0  1.018418  0
H  H26  1  0.00653618  0.34222706  0.48150074  1  0.070542  0  0.100612  0.10043  0  1.020475  0
H  H27  1  0.83050319  0.15788108  0.01848806  1  0.056037  0  0.100648  0.100948  0  1.018406  0
H  H28  1  0.49385050  0.50388323  0.42348975  1  0.055974  0  0.1033  0.105599  0  0.997744  0
H  H29  1  0.42136355  0.99615606  0.07631487  1  0.041136  0  0.103203  0.105854  0  0.998902  0
H  H30  1  0.50615103  0.49612088  0.57650922  1  0.056158  0  0.103267  0.1056  0  0.997778  0
H  H31  1  0.57863392  0.00384632  0.92368512  1  0.041211  0  0.103203  0.10585  0  0.998877  0
H  H32  1  0.87392506  0.66355471  0.67869459  1  0.039277  0  0.100866  0.101419  0  1.002362  0
H  H33  1  0.21570030  0.83625065  0.82126846  1  0.0321  0  0.100427  0.100273  0  1.0015  0
H  H34  1  0.12607323  0.33644596  0.32130635  1  0.039228  0  0.100836  0.10137  0  1.002385  0
H  H35  1  0.78429838  0.16374915  0.17873168  1  0.032106  0  0.100435  0.100256  0  1.001457  0
H  H36  1  0.35567746  0.71483131  0.41636081  1  0.110022  0  0.106921  0.113551  0  0.991017  0
H  H37  1  0.48692394  0.78518637  0.08352278  1  0.118543  0  0.106549  0.112726  0  0.991084  0
H  H38  1  0.64431962  0.28517193  0.58363997  1  0.110063  0  0.10695  0.113617  0  0.990958  0
H  H39  1  0.51307531  0.21481429  0.91647721  1  0.118542  0  0.106548  0.112732  0  0.991066  0
H  H40  1  0.48305425  0.77989345  0.84480112  1  0.076312  0  0.100252  0.099729  0  1.015906  0
H  H41  1  0.10746992  0.71986859  0.65508597  1  0.075101  0  0.100174  0.099302  0  1.015353  0
H  H42  1  0.51694267  0.22010807  0.15520028  1  0.076318  0  0.100262  0.099742  0  1.015965  0
H  H43  1  0.89253273  0.28012691  0.34491424  1  0.07496  0  0.100185  0.099288  0  1.015379  0
H  H44  1  0.12967921  0.44706482  0.52774454  1  0.050712  0  0.099315  0.100117  0  1.015907  0
H  H45  1  0.10437186  0.05283659  0.97213642  1  0.057282  0  0.099077  0.099349  0  1.016396  0
H  H46  1  0.87032376  0.55293412  0.47225357  1  0.051063  0  0.099318  0.100184  0  1.015832  0
H  H47  1  0.89562739  0.94716407  0.02786315  1  0.057316  0  0.099055  0.099311  0  1.016392  0
H  H48  1  0.36755373  0.03681307  0.54783806  1  0.190154  0  0.151436  0.112922  0  1.007797  0
H  H49  1  0.95208176  0.46321722  0.95215932  1  0.197248  0  0.15131  0.112874  0  1.007358  0
H  H50  1  0.63244553  0.96318759  0.45216277  1  0.190155  0  0.151434  0.112922  0  1.007834  0
H  H51  1  0.04791887  0.53678258  0.04784063  1  0.19726  0  0.151325  0.112856  0  1.007394  0
H  H52  1  0.41891897  0.92918715  0.64022449  1  0.176527  0  0.127743  0.139132  0  1.052352  0
H  H53  1  0.98789760  0.57067686  0.85988354  1  0.203783  0  0.1277  0.139371  0  1.052127  0
H  H54  1  0.58108184  0.07081437  0.35977610  1  0.176536  0  0.127716  0.139096  0  1.05227  0
H  H55  1  0.01210125  0.42932466  0.14011598  1  0.203682  0  0.127704  0.139382  0  1.052124  0
C  C56  1  0.70591282  0.58987946  0.87640095  1  1.549392  0  0.196423  0.566177  0  4.212286  0
C  C57  1  0.17204336  0.90990855  0.62356073  1  1.56372  0  0.196389  0.565547  0  4.213234  0
C  C58  1  0.29408806  0.41011776  0.12360010  1  1.549374  0  0.196454  0.566178  0  4.212288  0
C  C59  1  0.82795906  0.09008953  0.37644008  1  1.563713  0  0.196383  0.565504  0  4.21333  0
C  C60  1  0.08582645  0.82633344  0.46699198  1  1.553824  0  0.218278  0.60946  0  4.15322  0
C  C61  1  0.37910449  0.67362113  0.03297710  1  1.596635  0  0.21862  0.610391  0  4.150771  0
C  C62  1  0.91417144  0.17366808  0.53300974  1  1.553895  0  0.218241  0.609489  0  4.153219  0
C  C63  1  0.62089947  0.32637781  0.96702303  1  1.596627  0  0.218616  0.610388  0  4.150714  0
C  C64  1  0.69015696  0.65714436  0.81704605  1  -0.023875  0  -0.021645  -0.035843  0  3.974664  0
C  C65  1  0.16393184  0.84264880  0.68289433  1  -0.011653  0  -0.022304  -0.036876  0  3.976172  0
C  C66  1  0.30984173  0.34285544  0.18295537  1  -0.023925  0  -0.021577  -0.035768  0  3.974751  0
C  C67  1  0.83606789  0.15734669  0.31710618  1  -0.011662  0  -0.02234  -0.036869  0  3.975926  0
C  C68  1  0.55287306  0.27640781  0.46896022  1  0.4513  0  0.038063  -0.011517  0  3.929098  0
C  C69  1  0.29816331  0.22349379  0.03096817  1  0.450671  0  0.037973  -0.011932  0  3.930121  0
C  C70  1  0.44712520  0.72359285  0.53103775  1  0.451321  0  0.038056  -0.011558  0  3.929155  0
C  C71  1  0.70183731  0.77650602  0.96903136  1  0.450668  0  0.038126  -0.011682  0  3.930078  0
C  C72  1  0.65275184  0.85691643  0.64859350  1  -0.007834  0  -0.021908  -0.03455  0  4.07353  0
C  C73  1  0.15784823  0.64297569  0.85136729  1  0.027549  0  -0.021792  -0.033677  0  4.073156  0
C  C74  1  0.34724897  0.14308509  0.35140751  1  -0.00777  0  -0.021968  -0.034625  0  4.073498  0
C  C75  1  0.84215063  0.35702583  0.14863307  1  0.027903  0  -0.021822  -0.033705  0  4.073068  0
C  C76  1  0.76016048  0.87533951  0.60474910  1  0.474694  0  0.041764  -0.002546  0  3.890459  0
C  C77  1  0.24010098  0.62457342  0.89514798  1  0.433017  0  0.041201  -0.004596  0  3.891581  0
C  C78  1  0.23983935  0.12466201  0.39525159  1  0.474282  0  0.041784  -0.002496  0  3.890368  0
C  C79  1  0.75989672  0.37542638  0.10485226  1  0.432965  0  0.0412  -0.004607  0  3.891594  0
C  C80  1  0.66655663  0.78860834  0.70607689  1  0.00383  0  -0.003089  0.095862  0  4.029864  0
C  C81  1  0.16061393  0.71125883  0.79388118  1  0.013274  0  -0.003609  0.0947  0  4.030676  0
C  C82  1  0.33344085  0.21139404  0.29392478  1  0.004391  0  -0.00313  0.095793  0  4.029728  0
C  C83  1  0.83938792  0.28873839  0.20612020  1  0.013277  0  -0.003574  0.094748  0  4.03068  0
C  C84  1  0.55651806  0.82000385  0.75340389  1  0.013514  0  -0.091862  -0.133976  0  3.983595  0
C  C85  1  0.12928643  0.67987013  0.74653271  1  -0.006252  0  -0.091915  -0.134055  0  3.982222  0
C  C86  1  0.44348161  0.17999595  0.24659784  1  0.012922  0  -0.091872  -0.133918  0  3.983401  0
C  C87  1  0.87071679  0.32012623  0.25346820  1  -0.006361  0  -0.091944  -0.134122  0  3.982335  0
C  C88  1  0.35616217  0.24824165  0.51047478  1  0.260677  0  0.031241  -0.099529  0  3.848054  0
C  C89  1  0.11485092  0.25175978  0.98937365  1  0.345867  0  0.030987  -0.099412  0  3.847798  0
C  C90  1  0.64383708  0.75175901  0.48952437  1  0.260618  0  0.031269  -0.099548  0  3.848182  0
C  C91  1  0.88515222  0.74824088  0.01062553  1  0.345811  0  0.031044  -0.09925  0  3.847679  0
C  C92  1  0.79988770  0.62542077  0.76994545  1  -0.04995  0  -0.08525  -0.089645  0  3.997961  0
C  C93  1  0.19484289  0.87437506  0.73001836  1  -0.070549  0  -0.085192  -0.090449  0  3.998146  0
C  C94  1  0.20011058  0.37457989  0.23005506  1  -0.049973  0  -0.085254  -0.089668  0  3.997872  0
C  C95  1  0.80515717  0.12562389  0.26998131  1  -0.070544  0  -0.085241  -0.090556  0  3.99825  0
C  C96  1  0.40482113  0.33538352  0.48405174  1  0.044878  0  -0.023393  -0.035556  0  4.07024  0
C  C97  1  0.22428901  0.16455587  0.01576074  1  0.040664  0  -0.022679  -0.034537  0  4.069484  0
C  C98  1  0.59518165  0.66461370  0.51594489  1  0.044725  0  -0.023306  -0.035452  0  4.070063  0
C  C99  1  0.77571242  0.83544221  0.98423890  1  0.040703  0  -0.022798  -0.034751  0  4.069652  0
C  C100  1  0.10280883  0.62272284  0.49725828  1  -0.033758  0  -0.08902  -0.09312  0  4.00603  0
C  C101  1  0.22267946  0.87721358  0.00267808  1  -0.089953  0  -0.089179  -0.094767  0  4.004829  0
C  C102  1  0.89719220  0.37727610  0.50274130  1  -0.033867  0  -0.089039  -0.093135  0  4.006036  0
C  C103  1  0.77732077  0.12278709  0.99732181  1  -0.08998  0  -0.089196  -0.094829  0  4.004795  0
C  C104  1  0.38393744  0.53664039  0.44435716  1  0.023106  0  -0.090408  -0.135106  0  3.973249  0
C  C105  1  0.36505110  0.96336005  0.05546811  1  -0.004993  0  -0.090405  -0.136346  0  3.973836  0
C  C106  1  0.61606117  0.46336372  0.55564125  1  0.022935  0  -0.090352  -0.135096  0  3.973175  0
C  C107  1  0.63494776  0.03664147  0.94453267  1  -0.005048  0  -0.090437  -0.136338  0  3.973728  0
C  C108  1  0.78853131  0.69008113  0.71517023  1  -0.013188  0  -0.090989  -0.135411  0  3.9822  0
C  C109  1  0.19328177  0.80972675  0.78477610  1  -0.007293  0  -0.0904  -0.1326  0  3.980276  0
C  C110  1  0.21146698  0.30991953  0.28483113  1  -0.013186  0  -0.090946  -0.135337  0  3.982004  0
C  C111  1  0.80671887  0.19027305  0.21522427  1  -0.007301  0  -0.090399  -0.132525  0  3.980364  0
C  C112  1  0.30698136  0.65495411  0.43991178  1  -0.131246  0  -0.082297  -0.086471  0  3.993221  0
C  C113  1  0.40189950  0.84505145  0.05995710  1  -0.06411  0  -0.081994  -0.085242  0  3.990868  0
C  C114  1  0.69302155  0.34504914  0.56008714  1  -0.131212  0  -0.082369  -0.086637  0  3.993256  0
C  C115  1  0.59809975  0.15494921  0.94004331  1  -0.064139  0  -0.08201  -0.085285  0  3.990821  0
C  C116  1  0.16579258  0.69941851  0.46664811  1  0.034625  0  -0.021539  -0.044515  0  3.972545  0
C  C117  1  0.33179998  0.80054900  0.03328195  1  -0.009843  0  -0.021625  -0.043828  0  3.969402  0
C  C118  1  0.83420392  0.30058387  0.53335239  1  0.034535  0  -0.021549  -0.044435  0  3.972625  0
C  C119  1  0.66819927  0.19945166  0.96671762  1  -0.00986  0  -0.021625  -0.043833  0  3.969377  0
C  C120  1  0.32242544  0.45930618  0.47629346  1  -0.005358  0  -0.006295  0.088863  0  4.042664  0
C  C121  1  0.25808563  0.04063835  0.02352453  1  -0.038165  0  -0.006571  0.088622  0  4.042866  0
C  C122  1  0.67757712  0.54069362  0.52370375  1  -0.005043  0  -0.006328  0.088879  0  4.042729  0
C  C123  1  0.74191500  0.95936146  0.97647584  1  -0.038164  0  -0.00653  0.088678  0  4.042756  0
C  C124  1  0.56793715  0.75504659  0.80803319  1  -0.073676  0  -0.087018  -0.091373  0  3.999226  0
C  C125  1  0.13053234  0.74479383  0.69189662  1  -0.056909  0  -0.087172  -0.091011  0  3.998184  0
C  C126  1  0.43205993  0.24495665  0.19196759  1  -0.073579  0  -0.087071  -0.091487  0  3.9993  0
C  C127  1  0.86947105  0.25520425  0.30810282  1  -0.056738  0  -0.087139  -0.090927  0  3.998116  0
C  C128  1  0.17993671  0.50472386  0.50231436  1  -0.025387  0  -0.097088  -0.144438  0  3.989027  0
C  C129  1  0.18693011  0.99520849  0.99756007  1  0.019048  0  -0.096521  -0.142569  0  3.989835  0
C  C130  1  0.82006253  0.49527681  0.49768394  1  -0.025624  0  -0.097135  -0.144589  0  3.989044  0
C  C131  1  0.81306816  0.00479217  0.00243918  1  0.01905  0  -0.096487  -0.142518  0  3.989816  0
C  C132  1  0.47431625  0.03220282  0.52757440  1  0.679247  0  0.145833  0.034933  0  3.862943  0
C  C133  1  0.03399688  0.46780200  0.97243222  1  0.705017  0  0.145928  0.035644  0  3.861115  0
C  C134  1  0.52568479  0.96779612  0.47242602  1  0.698843  0  0.145852  0.034884  0  3.862989  0
C  C135  1  0.96600318  0.53219694  0.02756746  1  0.688085  0  0.145866  0.035542  0  3.861251  0
C  C136  1  0.52855041  0.91862531  0.62503939  1  0.358493  0  0.030576  -0.093848  0  3.826646  0
C  C137  1  0.07185648  0.58130452  0.87499278  1  0.335276  0  0.030459  -0.094189  0  3.826022  0
C  C138  1  0.47144787  0.08137535  0.37496154  1  0.358572  0  0.030622  -0.093822  0  3.826595  0
C  C139  1  0.92814278  0.41869614  0.12500764  1  0.335106  0  0.030475  -0.094183  0  3.82594  0
N  N140  1  0.47082800  0.14767296  0.51055097  1  -0.800493  0  -0.144531  0.132747  0  3.782526  0
N  N141  1  0.12892343  0.35230265  0.98943858  1  -0.7969  0  -0.144395  0.133193  0  3.780177  0
N  N142  1  0.52917304  0.85232598  0.48944945  1  -0.800671  0  -0.144503  0.132896  0  3.782421  0
N  N143  1  0.87107840  0.64769457  0.01055984  1  -0.796947  0  -0.144381  0.133177  0  3.780078  0
N  N144  1  0.59157564  0.16326415  0.48483824  1  -0.714832  0  -0.224926  -0.224791  0  3.361317  0
N  N145  1  0.23954017  0.33665890  0.01519315  1  -0.723289  0  -0.224983  -0.225103  0  3.359128  0
N  N146  1  0.40842717  0.83673307  0.51516135  1  -0.7148  0  -0.225016  -0.224941  0  3.361394  0
N  N147  1  0.76045947  0.66334090  0.98480521  1  -0.723294  0  -0.22505  -0.225239  0  3.35922  0
N  N148  1  0.70598101  0.94269604  0.55798120  1  -0.752616  0  -0.240011  -0.218324  0  3.427778  0
N  N149  1  0.20665890  0.55722371  0.94195062  1  -0.740616  0  -0.239753  -0.217028  0  3.427412  0
N  N150  1  0.29401864  0.05730376  0.44201885  1  -0.752233  0  -0.239995  -0.218332  0  3.427798  0
N  N151  1  0.79333979  0.44277609  0.05804995  1  -0.74063  0  -0.239703  -0.216956  0  3.427424  0
N  N152  1  0.56482513  0.96910277  0.57108395  1  -0.786603  0  -0.143904  0.135675  0  3.754332  0
N  N153  1  0.10489793  0.53084433  0.92891515  1  -0.815522  0  -0.144045  0.134993  0  3.756794  0
N  N154  1  0.43517396  0.03089617  0.42891624  1  -0.786692  0  -0.143903  0.13575  0  3.754299  0
N  N155  1  0.89510172  0.46915547  0.07108405  1  -0.815497  0  -0.144054  0.134996  0  3.756767  0
O  O156  1  0.59639234  0.61791728  0.91650499  1  -1.154754  0  -0.330702  -0.555128  0  2.290567  0
O  O157  1  0.13074292  0.88193093  0.58338619  1  -1.161701  0  -0.330626  -0.554928  0  2.293518  0
O  O158  1  0.40360601  0.38207908  0.08349599  1  -1.154693  0  -0.33072  -0.555098  0  2.290674  0
O  O159  1  0.86925812  0.11806801  0.41661339  1  -1.161712  0  -0.330631  -0.554903  0  2.293648  0
O  O160  1  0.15517977  0.89164344  0.45123506  1  -1.178191  0  -0.335302  -0.567479  0  2.336502  0
O  O161  1  0.49807766  0.60839820  0.04870291  1  -1.201254  0  -0.335285  -0.568216  0  2.337464  0
O  O162  1  0.84481828  0.10835981  0.54876562  1  -1.178286  0  -0.335243  -0.567439  0  2.336533  0
O  O163  1  0.50192216  0.39160332  0.95129693  1  -1.201204  0  -0.335265  -0.568195  0  2.337368  0
O  O164  1  0.82397087  0.51262418  0.88568728  1  -1.197005  0  -0.334892  -0.574996  0  2.168807  0
O  O165  1  0.22215046  0.98711396  0.61436121  1  -1.186878  0  -0.334898  -0.57417  0  2.165995  0
O  O166  1  0.17602741  0.48737648  0.11431365  1  -1.196983  0  -0.334882  -0.574979  0  2.168728  0
O  O167  1  0.77785099  0.01288411  0.38563969  1  -1.186903  0  -0.334889  -0.574172  0  2.166049  0
O  O168  1  0.95358454  0.86004916  0.48473871  1  -1.177318  0  -0.314621  -0.551163  0  2.37409  0
O  O169  1  0.29829403  0.63983356  0.01527942  1  -1.171248  0  -0.314808  -0.551544  0  2.372736  0
O  O170  1  0.04641571  0.13995150  0.51526330  1  -1.17722  0  -0.314631  -0.551244  0  2.374088  0
O  O171  1  0.70170757  0.36016624  0.98472000  1  -1.171235  0  -0.314825  -0.551557  0  2.372729  0
