# generated using pymatgen
data_CdH12C18S2(NO)6
_symmetry_space_group_name_H-M   'P 1'
_cell_length_a   4.62696371
_cell_length_b   8.11095200
_cell_length_c   26.65204695
_cell_angle_alpha   90.00003840
_cell_angle_beta   90.00001060
_cell_angle_gamma   104.67031103
_symmetry_Int_Tables_number   1
_chemical_formula_structural   CdH12C18S2(NO)6
_chemical_formula_sum   'Cd2 H24 C36 S4 N12 O12'
_cell_volume   967.61853655
_cell_formula_units_Z   2
loop_
 _symmetry_equiv_pos_site_id
 _symmetry_equiv_pos_as_xyz
  1  'x, y, z'
loop_
 _atom_site_type_symbol
 _atom_site_label
 _atom_site_symmetry_multiplicity
 _atom_site_fract_x
 _atom_site_fract_y
 _atom_site_fract_z
 _atom_site_occupancy
 _atom_site_pbe_bader_spin_density
 _atom_site_pbe_cm5_charge
 _atom_site_pbe_ddec_charge
 _atom_site_pbe_ddec_spin_density
 _atom_site_pbe_ddec_sum_bond_order
 _atom_site_pbe_magmom
Cd  Cd0  1  0.49999934  0.00000059  0.00000001  1  0  0.790382  0.949134  0  2.139756  0
Cd  Cd1  1  0.50000117  0.49999909  0.49999993  1  0  0.790391  0.949131  0  2.13978  0
H  H2  1  0.51741392  0.56292302  0.37853872  1  0  0.11145  0.087904  0  1.062108  0
H  H3  1  0.48259167  0.93707720  0.87853901  1  0  0.11146  0.087873  0  1.06213  0
H  H4  1  0.48259373  0.43707259  0.62146001  1  0  0.111463  0.087856  0  1.062138  0
H  H5  1  0.51740766  0.06292866  0.12146160  1  0  0.111467  0.087872  0  1.062071  0
H  H6  1  0.99319297  0.85366759  0.49308268  1  0  0.115757  0.086077  0  1.034477  0
H  H7  1  0.00681017  0.64633164  0.99308252  1  0  0.115726  0.086012  0  1.034494  0
H  H8  1  0.00679915  0.14633191  0.50691755  1  0  0.115758  0.08601  0  1.034489  0
H  H9  1  0.99319606  0.35367036  0.00691734  1  0  0.115752  0.086038  0  1.034414  0
H  H10  1  0.32289335  0.05044221  0.43336410  1  0  0.106988  0.124877  0  1.024706  0
H  H11  1  0.67710825  0.44955853  0.93336401  1  0  0.107  0.124864  0  1.024734  0
H  H12  1  0.67710799  0.94955853  0.56663689  1  0  0.106996  0.124923  0  1.024711  0
H  H13  1  0.32289581  0.55044348  0.06663585  1  0  0.106987  0.124893  0  1.024678  0
H  H14  1  0.25182035  0.99198304  0.33997400  1  0  0.107796  0.105776  0  1.048905  0
H  H15  1  0.74818198  0.50801964  0.83997382  1  0  0.107784  0.105759  0  1.048976  0
H  H16  1  0.74818529  0.00801768  0.66002699  1  0  0.107798  0.105771  0  1.048952  0
H  H17  1  0.25182209  0.49198237  0.16002604  1  0  0.10778  0.10574  0  1.048947  0
H  H18  1  0.56498925  0.77892166  0.13110334  1  0  0.098394  0.122819  0  1.05234  0
H  H19  1  0.43500809  0.72107542  0.63110395  1  0  0.098404  0.122836  0  1.052332  0
H  H20  1  0.43500661  0.22107655  0.86889577  1  0  0.098408  0.122857  0  1.052324  0
H  H21  1  0.56499209  0.27892277  0.36889590  1  0  0.098405  0.122852  0  1.052333  0
H  H22  1  0.75568476  0.61643043  0.12267883  1  0  0.103662  0.134123  0  1.014169  0
H  H23  1  0.24432018  0.88356916  0.62267948  1  0  0.103664  0.134117  0  1.014188  0
H  H24  1  0.24431599  0.38356903  0.87732065  1  0  0.103666  0.134147  0  1.014154  0
H  H25  1  0.75567942  0.11642776  0.37732038  1  0  0.103649  0.13411  0  1.01417  0
C  C26  1  0.87544217  0.77415252  0.35224433  1  0  -0.002071  -0.035281  0  4.02359  0
C  C27  1  0.12455804  0.72585020  0.85224419  1  0  -0.002111  -0.035365  0  4.023732  0
C  C28  1  0.12456448  0.22584565  0.64775628  1  0  -0.002073  -0.035315  0  4.02363  0
C  C29  1  0.87544129  0.27415565  0.14775604  1  0  -0.002083  -0.035295  0  4.023625  0
C  C30  1  0.69996122  0.67100462  0.38896195  1  0  0.054292  0.071567  0  3.889479  0
C  C31  1  0.30004166  0.82899435  0.88896183  1  0  0.054344  0.071726  0  3.889486  0
C  C32  1  0.30004270  0.32899228  0.61103791  1  0  0.054348  0.07175  0  3.88941  0
C  C33  1  0.69995867  0.17100895  0.11103878  1  0  0.054356  0.071708  0  3.889372  0
C  C34  1  0.96388620  0.83492435  0.45290152  1  0  0.048203  0.101336  0  3.923456  0
C  C35  1  0.03611526  0.66507606  0.95290137  1  0  0.04824  0.101365  0  3.923506  0
C  C36  1  0.03610593  0.16507515  0.54709908  1  0  0.048244  0.101469  0  3.923416  0
C  C37  1  0.96388507  0.33492723  0.04709887  1  0  0.048215  0.101338  0  3.923505  0
C  C38  1  0.14962850  0.94309863  0.41907823  1  0  -0.084014  -0.119282  0  3.936234  0
C  C39  1  0.85037187  0.55690425  0.91907807  1  0  -0.084026  -0.119225  0  3.936257  0
C  C40  1  0.85036420  0.05690214  0.58092237  1  0  -0.084103  -0.119415  0  3.936448  0
C  C41  1  0.14963062  0.44309904  0.08092141  1  0  -0.083994  -0.119256  0  3.936235  0
C  C42  1  0.10907897  0.91163458  0.36786303  1  0  -0.062708  -0.059552  0  3.894392  0
C  C43  1  0.89092285  0.58836689  0.86786287  1  0  -0.062695  -0.059553  0  3.89448  0
C  C44  1  0.89092768  0.08836359  0.63213758  1  0  -0.062671  -0.059532  0  3.894591  0
C  C45  1  0.10908021  0.41163767  0.13213736  1  0  -0.062702  -0.059532  0  3.894246  0
C  C46  1  0.81483103  0.73846099  0.29943563  1  0  0.213745  0.291643  0  4.014393  0
C  C47  1  0.18517220  0.76153904  0.79943549  1  0  0.213787  0.291614  0  4.014408  0
C  C48  1  0.18517404  0.26153846  0.70056461  1  0  0.213752  0.291548  0  4.014473  0
C  C49  1  0.81482439  0.23846555  0.20056437  1  0  0.213768  0.291625  0  4.014355  0
C  C50  1  0.88371834  0.76948488  0.22016442  1  0  0.211347  0.272239  0  4.046979  0
C  C51  1  0.11628095  0.73051625  0.72016465  1  0  0.211375  0.272324  0  4.046871  0
C  C52  1  0.11627810  0.23051460  0.77983469  1  0  0.211355  0.272263  0  4.046807  0
C  C53  1  0.88371764  0.26948323  0.27983558  1  0  0.211299  0.272255  0  4.046843  0
C  C54  1  0.78163405  0.75468035  0.12186540  1  0  -0.155992  -0.341623  0  3.883184  0
C  C55  1  0.21836384  0.74531798  0.62186564  1  0  -0.156001  -0.341625  0  3.883149  0
C  C56  1  0.21836181  0.24531785  0.87813446  1  0  -0.156007  -0.341681  0  3.883148  0
C  C57  1  0.78163360  0.25467894  0.37813422  1  0  -0.155996  -0.341616  0  3.883053  0
C  C58  1  0.88337550  0.82275915  0.06970769  1  0  0.204343  0.639684  0  4.184611  0
C  C59  1  0.11662226  0.67723905  0.56970791  1  0  0.204313  0.639623  0  4.184679  0
C  C60  1  0.11662252  0.17723904  0.93029217  1  0  0.2043  0.639603  0  4.184737  0
C  C61  1  0.88337518  0.32275787  0.43029195  1  0  0.204338  0.639571  0  4.18467  0
S  S62  1  0.06205492  0.85991821  0.16645297  1  0  0.067638  0.062703  0  2.899953  0
S  S63  1  0.93794366  0.64008151  0.66645320  1  0  0.067632  0.062655  0  2.899893  0
S  S64  1  0.93794152  0.14008127  0.83354688  1  0  0.067652  0.062716  0  2.899902  0
S  S65  1  0.06205752  0.35991413  0.33354665  1  0  0.067664  0.062712  0  2.899934  0
N  N66  1  0.74599071  0.69958859  0.43821858  1  0  -0.32168  -0.237318  0  3.483793  0
N  N67  1  0.25401229  0.80041050  0.93821846  1  0  -0.321743  -0.237407  0  3.483829  0
N  N68  1  0.25401004  0.30041087  0.56178165  1  0  -0.321769  -0.237453  0  3.48378  0
N  N69  1  0.74598646  0.19959408  0.06178290  1  0  -0.32176  -0.237384  0  3.483731  0
N  N70  1  0.59856110  0.62530952  0.27782489  1  0  -0.222185  -0.237371  0  3.204809  0
N  N71  1  0.40144208  0.87469045  0.77782478  1  0  -0.222192  -0.237357  0  3.204781  0
N  N72  1  0.40144239  0.37469121  0.72217534  1  0  -0.222173  -0.237293  0  3.204737  0
N  N73  1  0.59855278  0.12531031  0.22217432  1  0  -0.222215  -0.237366  0  3.204711  0
N  N74  1  0.64161387  0.64437271  0.22613130  1  0  -0.236422  -0.258461  0  3.186654  0
N  N75  1  0.35838702  0.85562715  0.72613119  1  0  -0.236397  -0.258452  0  3.186537  0
N  N76  1  0.35838688  0.35562676  0.77386893  1  0  -0.236426  -0.258477  0  3.186505  0
N  N77  1  0.64161100  0.14437105  0.27386792  1  0  -0.236359  -0.258474  0  3.186618  0
O  O78  1  0.00599641  0.83538238  0.26486492  1  0  -0.096924  -0.147613  0  2.511126  0
O  O79  1  0.99400615  0.66461629  0.76486441  1  0  -0.096946  -0.14759  0  2.511211  0
O  O80  1  0.99400592  0.16461581  0.73513493  1  0  -0.096917  -0.14757  0  2.511223  0
O  O81  1  0.00598770  0.33538702  0.23513507  1  0  -0.096954  -0.147631  0  2.511077  0
O  O82  1  0.68870370  0.78533629  0.03516512  1  0  -0.336787  -0.581515  0  2.272244  0
O  O83  1  0.31129340  0.71466056  0.53516535  1  0  -0.33677  -0.581497  0  2.272298  0
O  O84  1  0.31129706  0.21466318  0.96483474  1  0  -0.336779  -0.581479  0  2.272267  0
O  O85  1  0.68870678  0.28533763  0.46483488  1  0  -0.336801  -0.58149  0  2.272303  0
O  O86  1  0.15196775  0.90909155  0.06522586  1  0  -0.320024  -0.557291  0  2.295581  0
O  O87  1  0.84803058  0.59090793  0.56522608  1  0  -0.320026  -0.55726  0  2.295572  0
O  O88  1  0.84803243  0.09090665  0.93477362  1  0  -0.320018  -0.557274  0  2.295629  0
O  O89  1  0.15196686  0.40908900  0.43477378  1  0  -0.320021  -0.557236  0  2.295596  0
