# generated using pymatgen
data_Zr3H3C26S5N5(O13F)2
_symmetry_space_group_name_H-M   'P 1'
_cell_length_a   16.40200321
_cell_length_b   16.47922500
_cell_length_c   16.51403442
_cell_angle_alpha   61.83965753
_cell_angle_beta   60.08062353
_cell_angle_gamma   60.29833618
_symmetry_Int_Tables_number   1
_chemical_formula_structural   Zr3H3C26S5N5(O13F)2
_chemical_formula_sum   'Zr6 H6 C52 S10 N10 O52 F4'
_cell_volume   3207.14548325
_cell_formula_units_Z   2
loop_
 _symmetry_equiv_pos_site_id
 _symmetry_equiv_pos_as_xyz
  1  'x, y, z'
loop_
 _atom_site_type_symbol
 _atom_site_label
 _atom_site_symmetry_multiplicity
 _atom_site_fract_x
 _atom_site_fract_y
 _atom_site_fract_z
 _atom_site_occupancy
 _atom_site_pbe_bader_charge
 _atom_site_pbe_bader_spin_density
 _atom_site_pbe_cm5_charge
 _atom_site_pbe_ddec_charge
 _atom_site_pbe_ddec_spin_density
 _atom_site_pbe_ddec_sum_bond_order
 _atom_site_pbe_magmom
Zr  Zr0  1  0.88735954  0.90295954  0.59959957  1  2.635439  0  1.633613  2.374004  0  2.775524  0
Zr  Zr1  1  0.11010735  0.10311403  0.39944484  1  2.634805  0  1.633227  2.373859  0  2.774814  0
Zr  Zr2  1  0.10184218  0.89483841  0.60852655  1  2.642058  0  1.632107  2.378386  0  2.735372  0
Zr  Zr3  1  0.89484466  0.11212691  0.39134959  1  2.642546  0  1.632436  2.378672  0  2.736145  0
Zr  Zr4  1  0.10749477  0.89422017  0.39071714  1  2.640002  0  1.623232  2.380385  0  2.713335  0
Zr  Zr5  1  0.88948907  0.11224544  0.60883283  1  2.640677  0  1.624961  2.380927  0  2.716183  0
H  H6  1  0.07868674  0.75353665  0.57670949  1  0.601914  0  0.332266  0.424297  0  0.855314  0
H  H7  1  0.09092229  0.08047120  0.25011473  1  0.606028  0  0.332281  0.424021  0  0.856417  0
H  H8  1  0.08196445  0.08389868  0.59115751  1  0.620326  0  0.333067  0.426968  0  0.853332  0
H  H9  1  0.74301569  0.09452466  0.58057027  1  0.606271  0  0.333036  0.426825  0  0.854271  0
H  H10  1  0.85549207  0.64946985  0.83774077  1  0.172457  0  0.123261  0.156716  0  0.977974  0
H  H11  1  0.15853136  0.34026617  0.14470453  1  0.13678  0  0.123191  0.156781  0  0.977213  0
C  C12  1  0.99143432  0.74060018  0.48666070  1  1.609912  0  0.228314  0.652684  0  4.158874  0
C  C13  1  0.28123504  0.99003226  0.23708218  1  1.594445  0  0.228775  0.653198  0  4.157925  0
C  C14  1  0.99834847  0.27392191  0.50310761  1  1.607247  0  0.229416  0.654149  0  4.154752  0
C  C15  1  0.72474361  0.00643400  0.77054594  1  1.59756  0  0.229545  0.653286  0  4.15526  0
C  C16  1  0.98738576  0.73863424  0.76176542  1  1.556997  0  0.238103  0.66104  0  4.090039  0
C  C17  1  0.72885909  0.00944250  0.48890132  1  1.605855  0  0.230517  0.654764  0  4.156936  0
C  C18  1  0.01233151  0.26542608  0.23502467  1  1.569113  0  0.237608  0.659832  0  4.090891  0
C  C19  1  0.27292587  0.99245407  0.50585021  1  1.590196  0  0.229982  0.652926  0  4.159204  0
C  C20  1  0.27310562  0.73318169  0.49585583  1  1.600118  0  0.22968  0.653122  0  4.152854  0
C  C21  1  0.99012508  0.00109064  0.77727054  1  1.608092  0  0.229872  0.655657  0  4.148899  0
C  C22  1  0.73144704  0.28055280  0.49778015  1  1.605352  0  0.229859  0.655067  0  4.150092  0
C  C23  1  0.99765855  0.99948758  0.22978554  1  1.606636  0  0.229732  0.652179  0  4.154604  0
C  C24  1  0.92821244  0.42285652  0.56165550  1  0.27274  0  0.079328  0.0381  0  3.959436  0
C  C25  1  0.05847097  0.59488230  0.42476375  1  0.231246  0  0.078954  0.039987  0  3.958424  0
C  C26  1  0.99671929  0.36544828  0.49982128  1  -0.084356  0  -0.012493  -0.172662  0  3.927944  0
C  C27  1  0.99014166  0.65194970  0.48688728  1  -0.026407  0  -0.013941  -0.176847  0  3.933093  0
C  C28  1  0.03639505  0.51141277  0.45058264  1  -0.151303  0  -0.012861  -0.065632  0  4.060637  0
C  C29  1  0.94917169  0.50740962  0.53436449  1  -0.09886  0  -0.012237  -0.064492  0  4.062084  0
C  C30  1  0.42213761  0.92780992  0.09159871  1  0.258696  0  0.078957  0.040003  0  3.95883  0
C  C31  1  0.58739982  0.06484756  0.91957729  1  0.323048  0  0.079211  0.039085  0  3.959633  0
C  C32  1  0.37109667  0.99008724  0.14854759  1  -0.089997  0  -0.01428  -0.177287  0  3.933963  0
C  C33  1  0.63817626  0.00306621  0.86211720  1  -0.132197  0  -0.012537  -0.173189  0  3.928554  0
C  C34  1  0.50912397  0.03758141  0.00404726  1  -0.137145  0  -0.012091  -0.065213  0  4.061588  0
C  C35  1  0.50174345  0.95377100  0.00804611  1  -0.09489  0  -0.01285  -0.06502  0  4.059818  0
C  C36  1  0.05752184  0.93511604  0.91550468  1  0.244857  0  0.078721  0.037618  0  3.960593  0
C  C37  1  0.92690129  0.06347668  0.09382630  1  0.255022  0  0.079603  0.03831  0  3.954984  0
C  C38  1  0.99091048  0.00116555  0.86595304  1  -0.086163  0  -0.0134  -0.178156  0  3.923712  0
C  C39  1  0.99354332  0.99762548  0.14356136  1  -0.062566  0  -0.01155  -0.173024  0  3.915982  0
C  C40  1  0.95024282  0.04203636  0.00991903  1  -0.10851  0  -0.012788  -0.06856  0  4.070221  0
C  C41  1  0.03514741  0.95694658  0.99880553  1  -0.110921  0  -0.012616  -0.066532  0  4.061753  0
C  C42  1  0.41582012  0.59725987  0.55980815  1  0.235456  0  0.079789  0.038375  0  3.954413  0
C  C43  1  0.59124000  0.41818334  0.43225586  1  0.253926  0  0.079074  0.03824  0  3.96052  0
C  C44  1  0.36515398  0.64678611  0.49410846  1  -0.04395  0  -0.011881  -0.173136  0  3.914039  0
C  C45  1  0.64163941  0.36895555  0.49804236  1  -0.083082  0  -0.013269  -0.177547  0  3.924044  0
C  C46  1  0.50857293  0.50160578  0.45392698  1  -0.091598  0  -0.013298  -0.0692  0  4.06552  0
C  C47  1  0.49757578  0.51311386  0.53868073  1  -0.14011  0  -0.012197  -0.066981  0  4.070041  0
C  C48  1  0.05787699  0.59273843  0.88843774  1  0.537696  0  0.120997  0.256704  0  3.987947  0
C  C49  1  0.90986598  0.60961731  0.87470537  1  0.029488  0  -0.094221  -0.213135  0  3.999054  0
C  C50  1  0.90304697  0.52659274  0.95167545  1  0.471909  0  0.104203  0.259027  0  4.063361  0
C  C51  1  0.97068183  0.47384257  0.00413580  1  0.078619  0  -0.009498  -0.101596  0  4.006043  0
C  C52  1  0.96038680  0.39277442  0.08969347  1  0.512631  0  0.120632  0.256276  0  3.990229  0
C  C53  1  0.10657422  0.37767836  0.10528811  1  0.064123  0  -0.094033  -0.213255  0  3.998321  0
C  C54  1  0.11968384  0.45436455  0.02199425  1  0.507182  0  0.103907  0.258634  0  4.064604  0
C  C55  1  0.05183295  0.50738557  0.96974257  1  0.051261  0  -0.009504  -0.101739  0  4.005329  0
C  C56  1  0.98701052  0.64544893  0.84266742  1  0.025193  0  -0.02395  -0.137682  0  3.995811  0
C  C57  1  0.02494482  0.34638441  0.14182854  1  0.02479  0  -0.024196  -0.13708  0  3.994778  0
C  C58  1  0.41103425  0.06105591  0.43814004  1  0.220908  0  0.077508  0.038746  0  3.963045  0
C  C59  1  0.58984068  0.94182668  0.55749356  1  0.282448  0  0.077855  0.03956  0  3.961878  0
C  C60  1  0.36203985  0.99420476  0.50441524  1  -0.041229  0  -0.01253  -0.178279  0  3.937789  0
C  C61  1  0.63944393  0.00806373  0.49058548  1  -0.111912  0  -0.01248  -0.178408  0  3.937251  0
C  C62  1  0.50677075  0.95970729  0.53869186  1  -0.100115  0  -0.013205  -0.072728  0  4.075322  0
C  C63  1  0.49499655  0.04226915  0.45604777  1  -0.1389  0  -0.012953  -0.071517  0  4.074958  0
S  S64  1  0.08958196  0.41356853  0.40680532  1  0.369879  0  0.139595  0.228685  0  2.743814  0
S  S65  1  0.89609349  0.60485515  0.57863872  1  0.337251  0  0.138361  0.228073  0  2.757041  0
S  S66  1  0.42031252  0.08196723  0.10138071  1  0.369517  0  0.138464  0.228264  0  2.758045  0
S  S67  1  0.59023936  0.91003152  0.91018965  1  0.361051  0  0.139694  0.228858  0  2.744069  0
S  S68  1  0.89952879  0.09283821  0.92013661  1  0.387138  0  0.147023  0.243492  0  2.759559  0
S  S69  1  0.08584558  0.90681282  0.08859540  1  0.369073  0  0.147603  0.243439  0  2.749492  0
S  S70  1  0.41821354  0.59130375  0.40377406  1  0.388831  0  0.147705  0.244426  0  2.752217  0
S  S71  1  0.58747680  0.42357498  0.58931506  1  0.373558  0  0.146903  0.242983  0  2.757791  0
S  S72  1  0.41740260  0.90661019  0.59120997  1  0.407633  0  0.156405  0.262278  0  2.770925  0
S  S73  1  0.58498328  0.09475576  0.40289614  1  0.395087  0  0.156185  0.261791  0  2.771928  0
N  N74  1  0.84278623  0.39909538  0.64780344  1  0.414057  0  0.066839  0.538515  0  4.221908  0
N  N75  1  0.14598654  0.61745847  0.34115799  1  0.418465  0  0.067851  0.540181  0  4.218085  0
N  N76  1  0.39609591  0.84383812  0.11441533  1  0.413692  0  0.066809  0.538008  0  4.221546  0
N  N77  1  0.61055816  0.15086279  0.89598900  1  0.425262  0  0.067394  0.53873  0  4.222749  0
N  N78  1  0.14383428  0.85084492  0.88632035  1  0.431625  0  0.066786  0.537056  0  4.224436  0
N  N79  1  0.83993150  0.14782263  0.12158161  1  0.398817  0  0.065755  0.535558  0  4.215414  0
N  N80  1  0.39113480  0.62557734  0.64362707  1  0.414948  0  0.065575  0.535055  0  4.216496  0
N  N81  1  0.61802018  0.38855883  0.34840047  1  0.405032  0  0.067144  0.538345  0  4.224247  0
N  N82  1  0.38019723  0.14437072  0.35756049  1  0.433702  0  0.067967  0.544949  0  4.216909  0
N  N83  1  0.61794158  0.86129771  0.64082394  1  0.424257  0  0.067808  0.544203  0  4.21468  0
O  O84  1  0.92058204  0.77765917  0.55477703  1  -1.173407  0  -0.350347  -0.605231  0  2.281852  0
O  O85  1  0.24690989  0.05820239  0.27407952  1  -1.168789  0  -0.350374  -0.605285  0  2.281043  0
O  O86  1  0.07126114  0.23482041  0.43709366  1  -1.176973  0  -0.351002  -0.60631  0  2.277778  0
O  O87  1  0.75691154  0.94049499  0.73137684  1  -1.163291  0  -0.350931  -0.605891  0  2.278116  0
O  O88  1  0.05499733  0.77333169  0.73244931  1  -1.16376  0  -0.353245  -0.60981  0  2.313252  0
O  O89  1  0.76367977  0.07725491  0.42297967  1  -1.172153  0  -0.343759  -0.594562  0  2.260985  0
O  O90  1  0.93938405  0.23606666  0.26970190  1  -1.164125  0  -0.352871  -0.609504  0  2.312948  0
O  O91  1  0.23624109  0.92652630  0.57372044  1  -1.162836  0  -0.343458  -0.593461  0  2.260372  0
O  O92  1  0.24005081  0.76545158  0.42680906  1  -1.17033  0  -0.348059  -0.605408  0  2.251078  0
O  O93  1  0.92284363  0.07203132  0.74236481  1  -1.172046  0  -0.350322  -0.608189  0  2.252016  0
O  O94  1  0.76272821  0.24572733  0.56867491  1  -1.170623  0  -0.350356  -0.607829  0  2.252512  0
O  O95  1  0.06743749  0.93035618  0.26208212  1  -1.179158  0  -0.348718  -0.605769  0  2.251417  0
O  O96  1  0.05755273  0.93055256  0.74232325  1  -1.166891  0  -0.350267  -0.600428  0  2.276906  0
O  O97  1  0.76974408  0.24576804  0.42707020  1  -1.171558  0  -0.350564  -0.600484  0  2.277755  0
O  O98  1  0.93231507  0.07136599  0.26335569  1  -1.176353  0  -0.351712  -0.600144  0  2.289619  0
O  O99  1  0.23322775  0.76691195  0.56759265  1  -1.172954  0  -0.351689  -0.601164  0  2.288213  0
O  O100  1  0.91790281  0.77766229  0.72622737  1  -1.174203  0  -0.36191  -0.618129  0  2.291477  0
O  O101  1  0.23939038  0.05981494  0.43770307  1  -1.174393  0  -0.359985  -0.609188  0  2.316793  0
O  O102  1  0.07837846  0.22981785  0.27401254  1  -1.17305  0  -0.361151  -0.617288  0  2.290386  0
O  O103  1  0.76311227  0.94127357  0.55629964  1  -1.179096  0  -0.360381  -0.609983  0  2.317189  0
O  O104  1  0.75948921  0.07433271  0.73835536  1  -1.165508  0  -0.348383  -0.600866  0  2.272814  0
O  O105  1  0.06385991  0.77093787  0.42077027  1  -1.175202  0  -0.349558  -0.602426  0  2.268044  0
O  O106  1  0.24426673  0.92424536  0.26734325  1  -1.168656  0  -0.349654  -0.602622  0  2.268616  0
O  O107  1  0.92788695  0.24172877  0.57096611  1  -1.170059  0  -0.34827  -0.601403  0  2.272626  0
O  O108  1  0.81556271  0.06927338  0.55729575  1  -1.235147  0  -0.691453  -1.072601  0  2.350371  0
O  O109  1  0.05795959  0.06068163  0.56583428  1  -1.247876  0  -0.691543  -1.072875  0  2.349465  0
O  O110  1  0.06530346  0.05803302  0.32108328  1  -1.234231  0  -0.693617  -1.071811  0  2.364774  0
O  O111  1  0.05568267  0.82450414  0.55443503  1  -1.230665  0  -0.693481  -1.072114  0  2.362928  0
O  O112  1  0.13298786  0.95428572  0.45810782  1  -1.198577  0  -0.787782  -1.151141  0  2.117959  0
O  O113  1  0.95461263  0.96166456  0.45078798  1  -1.202674  0  -0.787935  -1.15094  0  2.117726  0
O  O114  1  0.95674562  0.13435849  0.45898257  1  -1.197244  0  -0.790552  -1.152323  0  2.129323  0
O  O115  1  0.95005349  0.96245096  0.63078742  1  -1.199734  0  -0.790647  -1.152303  0  2.129114  0
O  O116  1  0.86077314  0.33761738  0.72241474  1  -0.405278  0  -0.111711  -0.30274  0  1.874978  0
O  O117  1  0.75991432  0.44538966  0.63822907  1  -0.418368  0  -0.117304  -0.312746  0  1.876827  0
O  O118  1  0.22562633  0.57748933  0.35652707  1  -0.414219  0  -0.116821  -0.310916  0  1.866972  0
O  O119  1  0.13262965  0.67211332  0.26279867  1  -0.409273  0  -0.112874  -0.306261  0  1.88116  0
O  O120  1  0.34282786  0.85819558  0.07300755  1  -0.414509  0  -0.116983  -0.3101  0  1.864016  0
O  O121  1  0.43173367  0.76620168  0.17069410  1  -0.411293  0  -0.111775  -0.305028  0  1.884775  0
O  O122  1  0.57915492  0.22571796  0.83483306  1  -0.423508  0  -0.112166  -0.302945  0  1.87624  0
O  O123  1  0.65712009  0.14092318  0.94205751  1  -0.418257  0  -0.117494  -0.313042  0  1.876795  0
O  O124  1  0.22004993  0.86784958  0.82074079  1  -0.420399  0  -0.11761  -0.314343  0  1.890108  0
O  O125  1  0.13340481  0.77002584  0.93283573  1  -0.418272  0  -0.109195  -0.293612  0  1.855847  0
O  O126  1  0.84347524  0.22917079  0.06345664  1  -0.404353  0  -0.113686  -0.300979  0  1.853193  0
O  O127  1  0.76967171  0.13074756  0.19720857  1  -0.417021  0  -0.114425  -0.313159  0  1.933726  0
O  O128  1  0.36364024  0.56823697  0.72530640  1  -0.414816  0  -0.112942  -0.300028  0  1.855802  0
O  O129  1  0.40394912  0.70086400  0.62577185  1  -0.425107  0  -0.114943  -0.31376  0  1.933253  0
O  O130  1  0.59170324  0.32175892  0.36615759  1  -0.413366  0  -0.117944  -0.315645  0  1.897624  0
O  O131  1  0.66117094  0.43593453  0.26713309  1  -0.401327  0  -0.109464  -0.294096  0  1.851916  0
O  O132  1  0.31596398  0.22023401  0.37786633  1  -0.424551  0  -0.118667  -0.317517  0  1.894887  0
O  O133  1  0.42401561  0.13236463  0.27572808  1  -0.426054  0  -0.118108  -0.315862  0  1.892735  0
O  O134  1  0.58608867  0.88165443  0.71663301  1  -0.424887  0  -0.118504  -0.316851  0  1.894675  0
O  O135  1  0.66790317  0.77944098  0.62885252  1  -0.421464  0  -0.118079  -0.31575  0  1.891163  0
F  F136  1  0.19919103  0.48075703  0.99008721  1  -0.612648  0  -0.089152  -0.121406  0  1.350865  0
F  F137  1  0.13390590  0.62278026  0.85749048  1  -0.607365  0  -0.070332  -0.09315  0  1.450041  0
F  F138  1  0.82817549  0.49546810  0.97897150  1  -0.613548  0  -0.089473  -0.121825  0  1.350284  0
F  F139  1  0.88445531  0.36262971  0.12052166  1  -0.605288  0  -0.070196  -0.09316  0  1.451863  0
