# generated using pymatgen
data_AgH8C5S2N3
_symmetry_space_group_name_H-M   'P 1'
_cell_length_a   6.57556782
_cell_length_b   12.11847442
_cell_length_c   12.11846364
_cell_angle_alpha   69.38216209
_cell_angle_beta   77.11024187
_cell_angle_gamma   77.11027996
_symmetry_Int_Tables_number   1
_chemical_formula_structural   AgH8C5S2N3
_chemical_formula_sum   'Ag4 H32 C20 S8 N12'
_cell_volume   869.91980389
_cell_formula_units_Z   4
loop_
 _symmetry_equiv_pos_site_id
 _symmetry_equiv_pos_as_xyz
  1  'x, y, z'
loop_
 _atom_site_type_symbol
 _atom_site_label
 _atom_site_symmetry_multiplicity
 _atom_site_fract_x
 _atom_site_fract_y
 _atom_site_fract_z
 _atom_site_occupancy
 _atom_site_hle17_bader_spin_density
 _atom_site_hle17_ddec_charge
 _atom_site_hle17_ddec_spin_density
 _atom_site_hle17_ddec_sum_bond_order
 _atom_site_hle17_magmom
 _atom_site_hse06_10hf_bader_spin_density
 _atom_site_hse06_10hf_ddec_charge
 _atom_site_hse06_10hf_ddec_spin_density
 _atom_site_hse06_10hf_ddec_sum_bond_order
 _atom_site_hse06_10hf_magmom
 _atom_site_hse06_bader_spin_density
 _atom_site_hse06_ddec_charge
 _atom_site_hse06_ddec_spin_density
 _atom_site_hse06_ddec_sum_bond_order
 _atom_site_hse06_magmom
 _atom_site_pbe_bader_spin_density
 _atom_site_pbe_cm5_charge
 _atom_site_pbe_ddec_charge
 _atom_site_pbe_ddec_spin_density
 _atom_site_pbe_ddec_sum_bond_order
 _atom_site_pbe_magmom
Ag  Ag0  1  0.84701837  0.88470362  0.88867981  1  0  0.304998  0  1.935163  0  0  0.213838  0  2.439027  0  0  0.228067  0  2.400734  0  0  0.284716  0.204376  0  2.465208  0
Ag  Ag1  1  0.65298277  0.11132117  0.11529619  1  0  0.305001  0  1.935175  0  0  0.213838  0  2.439039  0  0  0.228069  0  2.400745  0  0  0.284728  0.204379  0  2.465225  0
Ag  Ag2  1  0.15298304  0.11529741  0.11132020  1  0  0.305022  0  1.935174  0  0  0.213866  0  2.439037  0  0  0.228097  0  2.400743  0  0  0.284744  0.204406  0  2.465224  0
Ag  Ag3  1  0.34701032  0.88868161  0.88470257  1  0  0.304983  0  1.935209  0  0  0.213813  0  2.439091  0  0  0.228047  0  2.400795  0  0  0.284713  0.204355  0  2.465269  0
H  H4  1  0.54396279  0.12449913  0.74531515  1  0  0.260769  0  0.971807  0  0  0.238196  0  1.052848  0  0  0.244779  0  1.048739  0  0  0.277982  0.233536  0  1.055889  0
H  H5  1  0.95603771  0.25468563  0.87550088  1  0  0.260678  0  0.97186  0  0  0.238106  0  1.052913  0  0  0.244688  0  1.048804  0  0  0.277943  0.233446  0  1.055953  0
H  H6  1  0.45603757  0.87550011  0.25468565  1  0  0.260698  0  0.971842  0  0  0.238124  0  1.052885  0  0  0.244712  0  1.048777  0  0  0.277961  0.233465  0  1.055923  0
H  H7  1  0.04396109  0.74531361  0.12450011  1  0  0.260739  0  0.971809  0  0  0.238165  0  1.052854  0  0  0.244753  0  1.048745  0  0  0.277988  0.233506  0  1.055891  0
H  H8  1  0.78213559  0.97972247  0.48031328  1  0  0.295584  0  0.935637  0  0  0.275309  0  1.003421  0  0  0.282591  0  0.998654  0  0  0.299847  0.270211  0  1.006799  0
H  H9  1  0.71786304  0.51968816  0.02027775  1  0  0.295585  0  0.935588  0  0  0.275306  0  1.003384  0  0  0.282588  0  0.998619  0  0  0.299841  0.270209  0  1.006758  0
H  H10  1  0.21786633  0.02027678  0.51968814  1  0  0.295567  0  0.935608  0  0  0.275274  0  1.00342  0  0  0.282556  0  0.998654  0  0  0.29983  0.270178  0  1.006795  0
H  H11  1  0.28213394  0.48031196  0.97972233  1  0  0.295576  0  0.935593  0  0  0.275302  0  1.003387  0  0  0.282583  0  0.99862  0  0  0.299849  0.270205  0  1.006763  0
H  H12  1  0.90017716  0.19416253  0.39528660  1  0  0.061639  0  0.938764  0  0  0.075635  0  1.007966  0  0  0.075575  0  1.008653  0  0  0.096314  0.075551  0  1.007591  0
H  H13  1  0.59982777  0.60471497  0.80583592  1  0  0.06166  0  0.938757  0  0  0.075651  0  1.007954  0  0  0.075592  0  1.008639  0  0  0.096343  0.075566  0  1.007578  0
H  H14  1  0.09982633  0.80583674  0.60471544  1  0  0.061675  0  0.938752  0  0  0.075674  0  1.007951  0  0  0.075615  0  1.008639  0  0  0.096344  0.075587  0  1.007576  0
H  H15  1  0.40017207  0.39528603  0.19416265  1  0  0.061699  0  0.938751  0  0  0.07568  0  1.007935  0  0  0.075622  0  1.00862  0  0  0.096349  0.075594  0  1.007559  0
H  H16  1  0.70968154  0.16366218  0.33017480  1  0  0.060038  0  0.968036  0  0  0.076785  0  1.038281  0  0  0.077174  0  1.037741  0  0  0.090722  0.076346  0  1.038824  0
H  H17  1  0.79032019  0.66982687  0.83633705  1  0  0.059973  0  0.968119  0  0  0.076732  0  1.038351  0  0  0.077121  0  1.03781  0  0  0.090683  0.076293  0  1.038892  0
H  H18  1  0.29032064  0.83633618  0.66982692  1  0  0.059993  0  0.96814  0  0  0.076762  0  1.03836  0  0  0.077151  0  1.037819  0  0  0.090704  0.076319  0  1.038901  0
H  H19  1  0.20968015  0.33017235  0.16366211  1  0  0.060005  0  0.96814  0  0  0.076737  0  1.038376  0  0  0.077124  0  1.037843  0  0  0.090701  0.0763  0  1.03891  0
H  H20  1  0.41556233  0.25057764  0.45013671  1  0  0.088384  0  0.953989  0  0  0.099512  0  1.024624  0  0  0.100844  0  1.024595  0  0  0.092449  0.098523  0  1.024685  0
H  H21  1  0.08443986  0.54986230  0.74942335  1  0  0.088365  0  0.954047  0  0  0.099536  0  1.024637  0  0  0.10087  0  1.024609  0  0  0.092445  0.098546  0  1.0247  0
H  H22  1  0.58443828  0.74942071  0.54986438  1  0  0.088387  0  0.95399  0  0  0.099522  0  1.024611  0  0  0.100856  0  1.024582  0  0  0.092444  0.098533  0  1.024675  0
H  H23  1  0.91556074  0.45013604  0.25057692  1  0  0.088387  0  0.954025  0  0  0.099522  0  1.024647  0  0  0.100861  0  1.024622  0  0  0.092453  0.098533  0  1.02471  0
H  H24  1  0.59522756  0.35558342  0.38673339  1  0  0.088017  0  0.929754  0  0  0.108614  0  0.983654  0  0  0.109566  0  0.983812  0  0  0.100076  0.107848  0  0.983677  0
H  H25  1  0.90477839  0.61326656  0.64441667  1  0  0.088009  0  0.929716  0  0  0.108612  0  0.983607  0  0  0.109568  0  0.983764  0  0  0.10007  0.107847  0  0.98363  0
H  H26  1  0.40477436  0.64441583  0.61326721  1  0  0.088029  0  0.929737  0  0  0.108606  0  0.983653  0  0  0.10956  0  0.983812  0  0  0.100074  0.107842  0  0.983676  0
H  H27  1  0.09522221  0.38673178  0.35558360  1  0  0.088013  0  0.929812  0  0  0.108614  0  0.983689  0  0  0.109575  0  0.983849  0  0  0.100075  0.107848  0  0.983712  0
H  H28  1  0.73690321  0.29158567  0.57536708  1  0  0.057313  0  0.926506  0  0  0.07416  0  0.989055  0  0  0.074264  0  0.989161  0  0  0.100814  0.073997  0  0.989034  0
H  H29  1  0.76309764  0.42463481  0.70841311  1  0  0.057311  0  0.92652  0  0  0.074151  0  0.989081  0  0  0.074256  0  0.989186  0  0  0.100822  0.073988  0  0.989059  0
H  H30  1  0.26309585  0.70841268  0.42463502  1  0  0.057287  0  0.926534  0  0  0.074154  0  0.989066  0  0  0.074259  0  0.98917  0  0  0.100818  0.073991  0  0.989045  0
H  H31  1  0.23690115  0.57536441  0.29158707  1  0  0.057332  0  0.926508  0  0  0.07416  0  0.989091  0  0  0.074264  0  0.989195  0  0  0.100828  0.073998  0  0.989069  0
H  H32  1  0.45599905  0.31740618  0.61203573  1  0  0.064023  0  0.911444  0  0  0.084309  0  0.966362  0  0  0.084469  0  0.966482  0  0  0.107588  0.084078  0  0.966409  0
H  H33  1  0.04400354  0.38796480  0.68259392  1  0  0.063997  0  0.911445  0  0  0.084303  0  0.96635  0  0  0.084461  0  0.966475  0  0  0.1076  0.084071  0  0.966395  0
H  H34  1  0.54400156  0.68259216  0.38796536  1  0  0.064044  0  0.911416  0  0  0.084314  0  0.96636  0  0  0.084471  0  0.966485  0  0  0.107605  0.084082  0  0.966406  0
H  H35  1  0.95599708  0.61203356  0.31740800  1  0  0.064009  0  0.911425  0  0  0.084332  0  0.966319  0  0  0.084491  0  0.966438  0  0  0.107602  0.0841  0  0.966366  0
C  C36  1  0.08201017  0.11137118  0.69572985  1  0  0.266483  0  3.92449  0  0  0.251123  0  4.234751  0  0  0.267905  0  4.248185  0  0  0.132024  0.239555  0  4.225613  0
C  C37  1  0.41799755  0.30426271  0.88863250  1  0  0.266489  0  3.924473  0  0  0.251125  0  4.234762  0  0  0.267908  0  4.248201  0  0  0.132027  0.239555  0  4.225619  0
C  C38  1  0.91801174  0.88863952  0.30425251  1  0  0.266481  0  3.924101  0  0  0.251116  0  4.2344  0  0  0.267904  0  4.247845  0  0  0.13199  0.239545  0  4.225259  0
C  C39  1  0.58199374  0.69574627  0.11136092  1  0  0.266417  0  3.924207  0  0  0.251046  0  4.234508  0  0  0.267834  0  4.247949  0  0  0.131967  0.239477  0  4.225362  0
C  C40  1  0.66046947  0.04311529  0.61917862  1  0  0.46398  0  3.812352  0  0  0.411091  0  4.107862  0  0  0.438072  0  4.115831  0  0  0.251402  0.392987  0  4.101858  0
C  C41  1  0.83953156  0.38082259  0.95688454  1  0  0.46388  0  3.812423  0  0  0.411011  0  4.107907  0  0  0.43799  0  4.115874  0  0  0.251364  0.392908  0  4.101901  0
C  C42  1  0.33953246  0.95688398  0.38082362  1  0  0.463921  0  3.812396  0  0  0.411031  0  4.107878  0  0  0.438019  0  4.11585  0  0  0.25139  0.392927  0  4.101881  0
C  C43  1  0.16046542  0.61917754  0.04311635  1  0  0.463914  0  3.812406  0  0  0.411029  0  4.107899  0  0  0.438018  0  4.11587  0  0  0.251381  0.392926  0  4.101892  0
C  C44  1  0.74003246  0.17220401  0.41198818  1  0  0.067791  0  3.622893  0  0  0.006499  0  3.878996  0  0  0.01153  0  3.891274  0  0  -0.062989  0.003289  0  3.87059  0
C  C45  1  0.75997003  0.58801311  0.82779608  1  0  0.067901  0  3.622867  0  0  0.0066  0  3.878975  0  0  0.011633  0  3.891254  0  0  -0.062959  0.003388  0  3.870565  0
C  C46  1  0.25997103  0.82779526  0.58801387  1  0  0.067851  0  3.623027  0  0  0.006528  0  3.879126  0  0  0.011554  0  3.891412  0  0  -0.062979  0.003324  0  3.87071  0
C  C47  1  0.24002851  0.41198701  0.17220379  1  0  0.067822  0  3.623013  0  0  0.006577  0  3.879045  0  0  0.011614  0  3.891332  0  0  -0.062959  0.003376  0  3.870629  0
C  C48  1  0.57331322  0.26693104  0.45031045  1  0  -0.170492  0  3.6692  0  0  -0.209241  0  3.925396  0  0  -0.211856  0  3.93823  0  0  -0.161732  -0.207315  0  3.916395  0
C  C49  1  0.92668954  0.54968933  0.73307001  1  0  -0.170556  0  3.66923  0  0  -0.209318  0  3.925393  0  0  -0.211943  0  3.938235  0  0  -0.161743  -0.207392  0  3.916393  0
C  C50  1  0.42668689  0.73306909  0.54969005  1  0  -0.170555  0  3.669243  0  0  -0.209268  0  3.92541  0  0  -0.211885  0  3.938246  0  0  -0.16174  -0.207347  0  3.91641  0
C  C51  1  0.07331107  0.45030902  0.26693108  1  0  -0.17056  0  3.669393  0  0  -0.209293  0  3.925511  0  0  -0.211942  0  3.938376  0  0  -0.16175  -0.20737  0  3.91651  0
C  C52  1  0.59055837  0.26124449  0.57574749  1  0  0.072931  0  3.630839  0  0  0.013331  0  3.89163  0  0  0.018797  0  3.902992  0  0  -0.05543  0.009831  0  3.883717  0
C  C53  1  0.90944171  0.42425403  0.73875574  1  0  0.073028  0  3.630832  0  0  0.013402  0  3.891661  0  0  0.018862  0  3.903033  0  0  -0.055409  0.009904  0  3.883748  0
C  C54  1  0.40944200  0.73875476  0.42425412  1  0  0.072993  0  3.630826  0  0  0.013372  0  3.891621  0  0  0.018844  0  3.902988  0  0  -0.055407  0.00987  0  3.883712  0
C  C55  1  0.09055734  0.57574430  0.26124473  1  0  0.073009  0  3.630715  0  0  0.013359  0  3.891541  0  0  0.018841  0  3.902914  0  0  -0.0554  0.009859  0  3.883629  0
S  S56  1  0.03792242  0.06732699  0.84318336  1  0  -0.315043  0  2.612131  0  0  -0.266483  0  3.046665  0  0  -0.278729  0  3.027025  0  0  -0.169427  -0.257994  0  3.060209  0
S  S57  1  0.46207242  0.15681170  0.93267638  1  0  -0.315037  0  2.612217  0  0  -0.266481  0  3.046735  0  0  -0.278722  0  3.027092  0  0  -0.16944  -0.257989  0  3.060278  0
S  S58  1  0.96207662  0.93267664  0.15681104  1  0  -0.314948  0  2.612485  0  0  -0.266403  0  3.047026  0  0  -0.278645  0  3.027387  0  0  -0.169413  -0.257914  0  3.060568  0
S  S59  1  0.53792067  0.84319108  0.06732238  1  0  -0.314881  0  2.612294  0  0  -0.266308  0  3.046794  0  0  -0.278551  0  3.027157  0  0  -0.169379  -0.257822  0  3.060334  0
S  S60  1  0.66253914  0.89849395  0.71701034  1  0  -0.413488  0  2.355417  0  0  -0.367124  0  2.79029  0  0  -0.3836  0  2.773723  0  0  -0.204873  -0.35552  0  2.801153  0
S  S61  1  0.83745998  0.28299082  0.10150578  1  0  -0.413476  0  2.355446  0  0  -0.367112  0  2.790302  0  0  -0.383589  0  2.773737  0  0  -0.204874  -0.355505  0  2.801166  0
S  S62  1  0.33746122  0.10150530  0.28299128  1  0  -0.413488  0  2.355444  0  0  -0.367126  0  2.790316  0  0  -0.3836  0  2.773749  0  0  -0.20488  -0.35552  0  2.801179  0
S  S63  1  0.16253857  0.71700931  0.89849492  1  0  -0.413488  0  2.355486  0  0  -0.367127  0  2.790361  0  0  -0.383604  0  2.773794  0  0  -0.204875  -0.35552  0  2.801221  0
N  N64  1  0.59149034  0.13854414  0.65584894  1  0  -0.39867  0  3.370583  0  0  -0.329579  0  3.612789  0  0  -0.350809  0  3.626046  0  0  -0.41914  -0.315403  0  3.603797  0
N  N65  1  0.90851069  0.34415232  0.86145499  1  0  -0.398541  0  3.370558  0  0  -0.329461  0  3.61277  0  0  -0.350681  0  3.626025  0  0  -0.419123  -0.315285  0  3.603778  0
N  N66  1  0.40851027  0.86145421  0.34415216  1  0  -0.398585  0  3.370522  0  0  -0.329481  0  3.612728  0  0  -0.350732  0  3.626006  0  0  -0.419161  -0.315306  0  3.603738  0
N  N67  1  0.09148630  0.65584781  0.13854590  1  0  -0.39864  0  3.370453  0  0  -0.32954  0  3.61267  0  0  -0.350792  0  3.625941  0  0  -0.419218  -0.315364  0  3.603675  0
N  N68  1  0.73047618  0.05614736  0.50423481  1  0  -0.380782  0  3.305918  0  0  -0.309139  0  3.544825  0  0  -0.329913  0  3.556513  0  0  -0.407741  -0.295259  0  3.536779  0
N  N69  1  0.76952469  0.49576692  0.94385224  1  0  -0.380795  0  3.305856  0  0  -0.309172  0  3.544779  0  0  -0.329944  0  3.556466  0  0  -0.407726  -0.295285  0  3.536722  0
N  N70  1  0.26952601  0.94385102  0.49576772  1  0  -0.380793  0  3.305903  0  0  -0.309161  0  3.544868  0  0  -0.329929  0  3.556554  0  0  -0.40773  -0.295254  0  3.536752  0
N  N71  1  0.23047385  0.50423320  0.05614764  1  0  -0.380784  0  3.305814  0  0  -0.309166  0  3.544696  0  0  -0.329935  0  3.55638  0  0  -0.407746  -0.295288  0  3.536644  0
N  N72  1  0.11303447  0.14446655  0.59015351  1  0  -0.473457  0  2.661033  0  0  -0.446793  0  2.903057  0  0  -0.458691  0  2.912573  0  0  -0.352578  -0.438611  0  2.896757  0
N  N73  1  0.38696345  0.40984361  0.85553471  1  0  -0.473472  0  2.660877  0  0  -0.44683  0  2.902933  0  0  -0.458728  0  2.912454  0  0  -0.352586  -0.438641  0  2.896631  0
N  N74  1  0.88696778  0.85553722  0.40984952  1  0  -0.47359  0  2.660217  0  0  -0.446946  0  2.902262  0  0  -0.458845  0  2.911789  0  0  -0.352601  -0.438756  0  2.895964  0
N  N75  1  0.61302595  0.59015555  0.14446253  1  0  -0.473559  0  2.660472  0  0  -0.4469  0  2.902501  0  0  -0.458802  0  2.912027  0  0  -0.3526  -0.438714  0  2.8962  0
