# generated using pymatgen
data_ZnH6C9(N2O)2
_symmetry_space_group_name_H-M   'P 1'
_cell_length_a   4.82159056
_cell_length_b   10.98558584
_cell_length_c   18.51625110
_cell_angle_alpha   90.00003355
_cell_angle_beta   89.99999760
_cell_angle_gamma   89.99997962
_symmetry_Int_Tables_number   1
_chemical_formula_structural   ZnH6C9(N2O)2
_chemical_formula_sum   'Zn4 H24 C36 N16 O8'
_cell_volume   980.76873243
_cell_formula_units_Z   4
loop_
 _symmetry_equiv_pos_site_id
 _symmetry_equiv_pos_as_xyz
  1  'x, y, z'
loop_
 _atom_site_type_symbol
 _atom_site_label
 _atom_site_symmetry_multiplicity
 _atom_site_fract_x
 _atom_site_fract_y
 _atom_site_fract_z
 _atom_site_occupancy
 _atom_site_hle17_bader_spin_density
 _atom_site_hle17_ddec_charge
 _atom_site_hle17_ddec_spin_density
 _atom_site_hle17_ddec_sum_bond_order
 _atom_site_hle17_magmom
 _atom_site_hse06_10hf_bader_spin_density
 _atom_site_hse06_10hf_ddec_charge
 _atom_site_hse06_10hf_ddec_spin_density
 _atom_site_hse06_10hf_ddec_sum_bond_order
 _atom_site_hse06_10hf_magmom
 _atom_site_hse06_bader_spin_density
 _atom_site_hse06_ddec_charge
 _atom_site_hse06_ddec_spin_density
 _atom_site_hse06_ddec_sum_bond_order
 _atom_site_hse06_magmom
 _atom_site_pbe_bader_spin_density
 _atom_site_pbe_cm5_charge
 _atom_site_pbe_ddec_charge
 _atom_site_pbe_ddec_spin_density
 _atom_site_pbe_ddec_sum_bond_order
 _atom_site_pbe_magmom
Zn  Zn0  1  0.00646880  0.00402809  0.17838168  1  0  1.032207  0  1.857705  0  0  0.840304  0  2.343188  0  0  0.88462  0  2.289619  0  0  0.737007  0.808732  0  2.380726  0
Zn  Zn1  1  0.99353079  0.50402716  0.82161834  1  0  1.03218  0  1.857738  0  0  0.840271  0  2.343216  0  0  0.884583  0  2.289651  0  0  0.736986  0.808702  0  2.380762  0
Zn  Zn2  1  0.00646859  0.50402699  0.32161865  1  0  1.032163  0  1.857792  0  0  0.840262  0  2.343278  0  0  0.884572  0  2.289715  0  0  0.737001  0.80869  0  2.380821  0
Zn  Zn3  1  0.99353101  0.00402735  0.67838138  1  0  1.032178  0  1.85778  0  0  0.840278  0  2.343263  0  0  0.88459  0  2.289696  0  0  0.736996  0.808709  0  2.380806  0
H  H4  1  0.41420751  0.45549422  0.21475953  1  0  0.093239  0  0.977054  0  0  0.098006  0  1.054268  0  0  0.101768  0  1.05083  0  0  0.097411  0.095239  0  1.056881  0
H  H5  1  0.58579172  0.95549422  0.78524065  1  0  0.093224  0  0.977068  0  0  0.097983  0  1.054293  0  0  0.101743  0  1.050858  0  0  0.097422  0.095217  0  1.056906  0
H  H6  1  0.41420730  0.95549399  0.28524095  1  0  0.093235  0  0.977067  0  0  0.097996  0  1.054289  0  0  0.101757  0  1.050851  0  0  0.097412  0.09523  0  1.056901  0
H  H7  1  0.58579193  0.45549354  0.71475923  1  0  0.093237  0  0.977061  0  0  0.097998  0  1.054286  0  0  0.101758  0  1.05085  0  0  0.097425  0.095232  0  1.056899  0
H  H8  1  0.65940666  0.52382914  0.10684029  1  0  0.095413  0  0.982446  0  0  0.098825  0  1.054923  0  0  0.102322  0  1.052972  0  0  0.098003  0.096315  0  1.056378  0
H  H9  1  0.34059499  0.02382891  0.89316028  1  0  0.095428  0  0.982437  0  0  0.09884  0  1.054912  0  0  0.102338  0  1.05296  0  0  0.098009  0.09633  0  1.056366  0
H  H10  1  0.65940477  0.02382864  0.39316004  1  0  0.095425  0  0.98244  0  0  0.098838  0  1.054912  0  0  0.102336  0  1.05296  0  0  0.09801  0.096328  0  1.056367  0
H  H11  1  0.34059481  0.52382850  0.60683999  1  0  0.095446  0  0.982412  0  0  0.09886  0  1.054887  0  0  0.102356  0  1.052933  0  0  0.098018  0.09635  0  1.056341  0
H  H12  1  0.22822741  0.25738319  0.97792802  1  0  0.096767  0  0.950898  0  0  0.104235  0  1.016692  0  0  0.107564  0  1.014793  0  0  0.100638  0.101851  0  1.018099  0
H  H13  1  0.77177406  0.75738332  0.02207155  1  0  0.096766  0  0.950907  0  0  0.104233  0  1.0167  0  0  0.107563  0  1.0148  0  0  0.100636  0.10185  0  1.018106  0
H  H14  1  0.22822724  0.75738270  0.52207179  1  0  0.096776  0  0.950888  0  0  0.104238  0  1.016691  0  0  0.107568  0  1.014792  0  0  0.10064  0.101854  0  1.018098  0
H  H15  1  0.77177215  0.25738290  0.47792832  1  0  0.096768  0  0.950888  0  0  0.104238  0  1.016685  0  0  0.107568  0  1.014786  0  0  0.100646  0.101854  0  1.018091  0
H  H16  1  0.96472306  0.19260053  0.08570906  1  0  0.092331  0  0.984282  0  0  0.102873  0  1.046453  0  0  0.10601  0  1.044889  0  0  0.099827  0.100616  0  1.047645  0
H  H17  1  0.03527846  0.69260074  0.91429103  1  0  0.092329  0  0.984276  0  0  0.102874  0  1.046442  0  0  0.106011  0  1.044878  0  0  0.099827  0.100618  0  1.047633  0
H  H18  1  0.96472283  0.69260043  0.41429078  1  0  0.092352  0  0.984255  0  0  0.102896  0  1.046419  0  0  0.106034  0  1.044855  0  0  0.099836  0.10064  0  1.04761  0
H  H19  1  0.03527662  0.19260085  0.58570877  1  0  0.092336  0  0.98428  0  0  0.102881  0  1.046446  0  0  0.106019  0  1.044881  0  0  0.099827  0.100626  0  1.047637  0
H  H20  1  0.75230132  0.35462692  0.94944225  1  0  0.127112  0  0.911277  0  0  0.142678  0  0.968072  0  0  0.14474  0  0.967256  0  0  0.112498  0.141285  0  0.968579  0
H  H21  1  0.24769799  0.85462716  0.05055736  1  0  0.127093  0  0.91133  0  0  0.142684  0  0.968095  0  0  0.144747  0  0.967279  0  0  0.112493  0.141291  0  0.968602  0
H  H22  1  0.75230115  0.85462737  0.55055759  1  0  0.127072  0  0.91132  0  0  0.142671  0  0.968089  0  0  0.144733  0  0.967272  0  0  0.112489  0.141278  0  0.968596  0
H  H23  1  0.24769816  0.35462672  0.44944255  1  0  0.127096  0  0.911327  0  0  0.142685  0  0.968093  0  0  0.144748  0  0.967277  0  0  0.112493  0.141292  0  0.968601  0
H  H24  1  0.78794095  0.50043892  0.98516873  1  0  0.132981  0  0.923704  0  0  0.149047  0  0.978396  0  0  0.151689  0  0.9773  0  0  0.111959  0.147199  0  0.979202  0
H  H25  1  0.21205865  0.00043875  0.01483129  1  0  0.133005  0  0.923686  0  0  0.149075  0  0.978385  0  0  0.151717  0  0.977289  0  0  0.111961  0.147228  0  0.979191  0
H  H26  1  0.78794119  0.00043895  0.51483099  1  0  0.132977  0  0.923687  0  0  0.149052  0  0.978389  0  0  0.151695  0  0.977293  0  0  0.111955  0.147206  0  0.979195  0
H  H27  1  0.21205841  0.50043871  0.48516903  1  0  0.133003  0  0.92369  0  0  0.149069  0  0.978387  0  0  0.151712  0  0.977292  0  0  0.111958  0.147223  0  0.979194  0
C  C28  1  0.02694741  0.27288860  0.22242088  1  0  0.330048  0  3.752115  0  0  0.297419  0  4.008659  0  0  0.312167  0  4.024865  0  0  0.236152  0.28762  0  3.997498  0
C  C29  1  0.97305197  0.77288854  0.77757924  1  0  0.330061  0  3.752187  0  0  0.29742  0  4.00874  0  0  0.312171  0  4.024939  0  0  0.236149  0.287621  0  3.99758  0
C  C30  1  0.02694928  0.77288837  0.27757900  1  0  0.330115  0  3.752111  0  0  0.297419  0  4.008713  0  0  0.312167  0  4.024917  0  0  0.236162  0.287626  0  3.997545  0
C  C31  1  0.97305218  0.27288878  0.72242112  1  0  0.330108  0  3.752151  0  0  0.297458  0  4.008686  0  0  0.312207  0  4.024887  0  0  0.236164  0.287659  0  3.997526  0
C  C32  1  0.17288472  0.31751249  0.15856941  1  0  -0.014454  0  3.806637  0  0  0.003878  0  4.044226  0  0  0.000316  0  4.067129  0  0  -0.013428  0.006133  0  4.028742  0
C  C33  1  0.82711463  0.81751251  0.84143072  1  0  -0.014529  0  3.806608  0  0  0.003818  0  4.044183  0  0  0.000258  0  4.067085  0  0  -0.013468  0.006075  0  4.028701  0
C  C34  1  0.17288657  0.81751140  0.34143049  1  0  -0.014418  0  3.806524  0  0  0.003954  0  4.044092  0  0  0.000395  0  4.066996  0  0  -0.013439  0.006204  0  4.028613  0
C  C35  1  0.82711277  0.31751178  0.65856965  1  0  -0.014482  0  3.80652  0  0  0.003894  0  4.044063  0  0  0.000335  0  4.066965  0  0  -0.013443  0.006148  0  4.028584  0
C  C36  1  0.36606159  0.41266990  0.16311408  1  0  -0.082358  0  3.731456  0  0  -0.109383  0  3.988054  0  0  -0.109892  0  4.008281  0  0  -0.089272  -0.108822  0  3.974248  0
C  C37  1  0.63393560  0.91266994  0.83688608  1  0  -0.082259  0  3.731376  0  0  -0.109285  0  3.987972  0  0  -0.109794  0  4.008207  0  0  -0.08924  -0.108724  0  3.974167  0
C  C38  1  0.36606345  0.91266972  0.33688584  1  0  -0.082365  0  3.731431  0  0  -0.109396  0  3.988023  0  0  -0.109907  0  4.008256  0  0  -0.089276  -0.108834  0  3.974217  0
C  C39  1  0.63393581  0.41267012  0.66311378  1  0  -0.082318  0  3.731379  0  0  -0.109357  0  3.987978  0  0  -0.109867  0  4.008209  0  0  -0.089259  -0.108796  0  3.974173  0
C  C40  1  0.50777001  0.45078981  0.10150010  1  0  -0.120584  0  3.732724  0  0  -0.139093  0  3.979945  0  0  -0.143671  0  4.002244  0  0  -0.092179  -0.135957  0  3.964724  0
C  C41  1  0.49223130  0.95078994  0.89850008  1  0  -0.120617  0  3.732748  0  0  -0.139132  0  3.979975  0  0  -0.143711  0  4.002272  0  0  -0.092188  -0.135995  0  3.964752  0
C  C42  1  0.50776978  0.95078969  0.39849983  1  0  -0.120593  0  3.73274  0  0  -0.139103  0  3.979962  0  0  -0.143681  0  4.002259  0  0  -0.092182  -0.135966  0  3.96474  0
C  C43  1  0.49222945  0.45079005  0.60150034  1  0  -0.120642  0  3.732741  0  0  -0.139163  0  3.979973  0  0  -0.143738  0  4.002267  0  0  -0.092218  -0.136026  0  3.96475  0
C  C44  1  0.46395255  0.39468080  0.03469283  1  0  0.142168  0  3.734937  0  0  0.161233  0  3.965164  0  0  0.163165  0  3.98951  0  0  -0.004562  0.160023  0  3.948629  0
C  C45  1  0.53604674  0.89468099  0.96530733  1  0  0.142176  0  3.734967  0  0  0.161241  0  3.965215  0  0  0.163173  0  3.989561  0  0  -0.004585  0.16003  0  3.94868  0
C  C46  1  0.46395231  0.89468075  0.46530709  1  0  0.142153  0  3.734946  0  0  0.161223  0  3.965196  0  0  0.163154  0  3.989543  0  0  -0.004571  0.160012  0  3.94866  0
C  C47  1  0.53604697  0.39468104  0.53469307  1  0  0.142187  0  3.734942  0  0  0.16126  0  3.965175  0  0  0.163191  0  3.989522  0  0  -0.004569  0.160049  0  3.948641  0
C  C48  1  0.26803591  0.30054746  0.03006499  1  0  -0.108812  0  3.709947  0  0  -0.125892  0  3.954791  0  0  -0.129624  0  3.976151  0  0  -0.089407  -0.123413  0  3.94035  0
C  C49  1  0.73196552  0.80054762  0.96993513  1  0  -0.108805  0  3.709947  0  0  -0.125891  0  3.954796  0  0  -0.129622  0  3.976157  0  0  -0.089388  -0.123409  0  3.940355  0
C  C50  1  0.26803567  0.80054741  0.46993490  1  0  -0.108812  0  3.709984  0  0  -0.125892  0  3.954833  0  0  -0.129624  0  3.976195  0  0  -0.089414  -0.123412  0  3.940391  0
C  C51  1  0.73196369  0.30054767  0.53006523  1  0  -0.108794  0  3.709943  0  0  -0.125887  0  3.954799  0  0  -0.129619  0  3.976162  0  0  -0.089404  -0.123405  0  3.940358  0
C  C52  1  0.12246777  0.26312756  0.09095960  1  0  -0.090734  0  3.74399  0  0  -0.111437  0  3.99039  0  0  -0.112873  0  4.011724  0  0  -0.090694  -0.110347  0  3.97598  0
C  C53  1  0.87753162  0.76312764  0.90903997  1  0  -0.090719  0  3.743978  0  0  -0.111428  0  3.990377  0  0  -0.112864  0  4.011712  0  0  -0.090693  -0.110338  0  3.975968  0
C  C54  1  0.12246754  0.76312745  0.40904027  1  0  -0.090801  0  3.743931  0  0  -0.111512  0  3.990323  0  0  -0.112951  0  4.01166  0  0  -0.090705  -0.110421  0  3.975915  0
C  C55  1  0.87753184  0.26312684  0.59095984  1  0  -0.090772  0  3.743932  0  0  -0.11149  0  3.99033  0  0  -0.112928  0  4.011666  0  0  -0.090706  -0.110399  0  3.975922  0
C  C56  1  0.63139720  0.43238247  0.97010411  1  0  -0.329902  0  3.70343  0  0  -0.371099  0  3.940549  0  0  -0.377747  0  3.948262  0  0  -0.157312  -0.366571  0  3.935155  0
C  C57  1  0.36860412  0.93238267  0.02989606  1  0  -0.329944  0  3.703519  0  0  -0.371153  0  3.940577  0  0  -0.377804  0  3.948291  0  0  -0.157301  -0.366627  0  3.935185  0
C  C58  1  0.63139703  0.93238290  0.52989576  1  0  -0.329834  0  3.703359  0  0  -0.371076  0  3.940494  0  0  -0.377725  0  3.948207  0  0  -0.157282  -0.366552  0  3.935103  0
C  C59  1  0.36860429  0.43238315  0.47010387  1  0  -0.32993  0  3.703512  0  0  -0.371136  0  3.94057  0  0  -0.377788  0  3.948287  0  0  -0.157294  -0.366611  0  3.935177  0
C  C60  1  0.46878072  0.48146586  0.90644167  1  0  0.736109  0  3.792444  0  0  0.681474  0  4.09547  0  0  0.716508  0  4.086557  0  0  0.227929  0.657637  0  4.100741  0
C  C61  1  0.53121849  0.98146610  0.09355852  1  0  0.736092  0  3.792528  0  0  0.681495  0  4.09552  0  0  0.716529  0  4.086605  0  0  0.227912  0.657656  0  4.100791  0
C  C62  1  0.46878055  0.98146544  0.59355822  1  0  0.736084  0  3.792351  0  0  0.681462  0  4.095391  0  0  0.716497  0  4.086475  0  0  0.227923  0.657624  0  4.100662  0
C  C63  1  0.53122074  0.48146561  0.40644143  1  0  0.736069  0  3.792469  0  0  0.681468  0  4.095457  0  0  0.716503  0  4.086546  0  0  0.227941  0.657631  0  4.100722  0
N  N64  1  0.81249528  0.15161785  0.29711092  1  0  -0.052653  0  2.975162  0  0  -0.042615  0  3.265326  0  0  -0.041317  0  3.276538  0  0  -0.076892  -0.043301  0  3.257921  0
N  N65  1  0.18750419  0.65161783  0.70288861  1  0  -0.052654  0  2.975124  0  0  -0.042625  0  3.265287  0  0  -0.041329  0  3.276499  0  0  -0.076895  -0.04331  0  3.257882  0
N  N66  1  0.81249509  0.65161845  0.20288891  1  0  -0.052605  0  2.975136  0  0  -0.042566  0  3.265291  0  0  -0.041272  0  3.276506  0  0  -0.076874  -0.043252  0  3.257887  0
N  N67  1  0.18750646  0.15161815  0.79711062  1  0  -0.05263  0  2.975151  0  0  -0.042594  0  3.265307  0  0  -0.041295  0  3.276519  0  0  -0.076904  -0.04328  0  3.257902  0
N  N68  1  0.81397400  0.25912055  0.32603418  1  0  -0.073105  0  2.947766  0  0  -0.070148  0  3.238114  0  0  -0.068967  0  3.249618  0  0  -0.090608  -0.070785  0  3.230228  0
N  N69  1  0.18602539  0.75912051  0.67396539  1  0  -0.073048  0  2.94772  0  0  -0.070082  0  3.23806  0  0  -0.0689  0  3.249562  0  0  -0.09058  -0.07072  0  3.230174  0
N  N70  1  0.81397589  0.75912021  0.17396569  1  0  -0.073072  0  2.947821  0  0  -0.07013  0  3.238165  0  0  -0.068948  0  3.249669  0  0  -0.090608  -0.070768  0  3.23028  0
N  N71  1  0.18602558  0.25911994  0.82603442  1  0  -0.073066  0  2.94774  0  0  -0.070119  0  3.238092  0  0  -0.068937  0  3.249595  0  0  -0.090586  -0.070756  0  3.230205  0
N  N72  1  0.94680359  0.33748594  0.28070644  1  0  -0.358856  0  3.19464  0  0  -0.28326  0  3.498603  0  0  -0.30337  0  3.509171  0  0  -0.242537  -0.269301  0  3.491268  0
N  N73  1  0.05319574  0.83748596  0.71929370  1  0  -0.358899  0  3.194655  0  0  -0.283308  0  3.498622  0  0  -0.30342  0  3.509193  0  0  -0.242551  -0.269349  0  3.491288  0
N  N74  1  0.94680339  0.83748564  0.21929345  1  0  -0.35897  0  3.194686  0  0  -0.283331  0  3.498656  0  0  -0.303439  0  3.509213  0  0  -0.242546  -0.269373  0  3.491319  0
N  N75  1  0.05319594  0.33748534  0.78070615  1  0  -0.358893  0  3.19464  0  0  -0.28328  0  3.498592  0  0  -0.30339  0  3.509159  0  0  -0.242523  -0.269321  0  3.491259  0
N  N76  1  0.94440404  0.15673542  0.23263405  1  0  -0.358464  0  3.226327  0  0  -0.283642  0  3.532472  0  0  -0.303289  0  3.541219  0  0  -0.243853  -0.270319  0  3.526673  0
N  N77  1  0.05559543  0.65673640  0.76736603  1  0  -0.358493  0  3.226407  0  0  -0.283654  0  3.532528  0  0  -0.303297  0  3.541275  0  0  -0.243856  -0.270333  0  3.526734  0
N  N78  1  0.94440383  0.65673609  0.26736633  1  0  -0.358517  0  3.226387  0  0  -0.283671  0  3.532534  0  0  -0.303316  0  3.541282  0  0  -0.243859  -0.270351  0  3.526736  0
N  N79  1  0.05559564  0.15673574  0.73263375  1  0  -0.358541  0  3.226411  0  0  -0.283708  0  3.53254  0  0  -0.303354  0  3.541287  0  0  -0.243869  -0.270386  0  3.526745  0
O  O80  1  0.20810947  0.49610324  0.91344309  1  0  -0.630808  0  2.09632  0  0  -0.553155  0  2.367047  0  0  -0.581893  0  2.35363  0  0  -0.30687  -0.533286  0  2.375688  0
O  O81  1  0.79189180  0.99610344  0.08655657  1  0  -0.630818  0  2.096305  0  0  -0.553184  0  2.367018  0  0  -0.581923  0  2.353601  0  0  -0.30688  -0.533314  0  2.375657  0
O  O82  1  0.20810930  0.99610282  0.58655681  1  0  -0.630811  0  2.096317  0  0  -0.553157  0  2.367033  0  0  -0.581894  0  2.353615  0  0  -0.306873  -0.533287  0  2.375674  0
O  O83  1  0.79189197  0.49610295  0.41344284  1  0  -0.630795  0  2.096337  0  0  -0.553146  0  2.367037  0  0  -0.581886  0  2.353621  0  0  -0.306879  -0.533277  0  2.375676  0
O  O84  1  0.59234990  0.50601526  0.84727959  1  0  -0.657613  0  2.081783  0  0  -0.590215  0  2.37531  0  0  -0.618198  0  2.358741  0  0  -0.323805  -0.570521  0  2.385868  0
O  O85  1  0.40764970  0.00601520  0.15272044  1  0  -0.657577  0  2.081868  0  0  -0.590199  0  2.375383  0  0  -0.618181  0  2.358812  0  0  -0.323779  -0.570503  0  2.385937  0
O  O86  1  0.59235012  0.00601543  0.65272068  1  0  -0.657594  0  2.081754  0  0  -0.590213  0  2.375291  0  0  -0.618191  0  2.358712  0  0  -0.323807  -0.570517  0  2.385847  0
O  O87  1  0.40764948  0.50601503  0.34727935  1  0  -0.657553  0  2.081765  0  0  -0.590197  0  2.375321  0  0  -0.618165  0  2.358719  0  0  -0.323803  -0.570501  0  2.385875  0
