# generated using pymatgen
data_KH5C7O4
_symmetry_space_group_name_H-M   'P 1'
_cell_length_a   3.84963471
_cell_length_b   13.21762980
_cell_length_c   14.99906980
_cell_angle_alpha   90.00014590
_cell_angle_beta   89.99981737
_cell_angle_gamma   97.92330350
_symmetry_Int_Tables_number   1
_chemical_formula_structural   KH5C7O4
_chemical_formula_sum   'K4 H20 C28 O16'
_cell_volume   755.91247678
_cell_formula_units_Z   4
loop_
 _symmetry_equiv_pos_site_id
 _symmetry_equiv_pos_as_xyz
  1  'x, y, z'
loop_
 _atom_site_type_symbol
 _atom_site_label
 _atom_site_symmetry_multiplicity
 _atom_site_fract_x
 _atom_site_fract_y
 _atom_site_fract_z
 _atom_site_occupancy
 _atom_site_hle17_bader_spin_density
 _atom_site_hle17_ddec_charge
 _atom_site_hle17_ddec_spin_density
 _atom_site_hle17_ddec_sum_bond_order
 _atom_site_hle17_magmom
 _atom_site_hse06_10hf_bader_spin_density
 _atom_site_hse06_10hf_ddec_charge
 _atom_site_hse06_10hf_ddec_spin_density
 _atom_site_hse06_10hf_ddec_sum_bond_order
 _atom_site_hse06_10hf_magmom
 _atom_site_hse06_bader_spin_density
 _atom_site_hse06_ddec_charge
 _atom_site_hse06_ddec_spin_density
 _atom_site_hse06_ddec_sum_bond_order
 _atom_site_hse06_magmom
 _atom_site_pbe_bader_spin_density
 _atom_site_pbe_cm5_charge
 _atom_site_pbe_ddec_charge
 _atom_site_pbe_ddec_spin_density
 _atom_site_pbe_ddec_sum_bond_order
 _atom_site_pbe_magmom
K  K0  1  0.95621179  0.10515284  0.14574743  1  0  0.92659  0  0.462249  0  0  0.869703  0  0.648812  0  0  0.884922  0  0.627051  0  0  0.791969  0.858379  0  0.664334  0
K  K1  1  0.54377288  0.39484555  0.64574694  1  0  0.926595  0  0.462223  0  0  0.869699  0  0.648804  0  0  0.884916  0  0.627041  0  0  0.791944  0.858366  0  0.664323  0
K  K2  1  0.04378175  0.89484962  0.85425064  1  0  0.926604  0  0.462226  0  0  0.869725  0  0.648799  0  0  0.884937  0  0.627029  0  0  0.791966  0.858394  0  0.664322  0
K  K3  1  0.45621286  0.60514622  0.35424647  1  0  0.926597  0  0.462236  0  0  0.86971  0  0.648821  0  0  0.884922  0  0.627051  0  0  0.79197  0.858373  0  0.664342  0
H  H4  1  0.51099836  0.90206354  0.02219485  1  0  0.383463  0  0.912003  0  0  0.355948  0  0.987252  0  0  0.368528  0  0.973702  0  0  0.299946  0.347119  0  0.996631  0
H  H5  1  0.98900140  0.59793670  0.52219465  1  0  0.383421  0  0.912062  0  0  0.355907  0  0.987314  0  0  0.368482  0  0.973774  0  0  0.299921  0.347078  0  0.996691  0
H  H6  1  0.48899518  0.09793892  0.97780788  1  0  0.383419  0  0.912037  0  0  0.355899  0  0.987292  0  0  0.368476  0  0.973752  0  0  0.299939  0.347084  0  0.996646  0
H  H7  1  0.01099955  0.40205964  0.47780675  1  0  0.383398  0  0.912111  0  0  0.3559  0  0.987331  0  0  0.368476  0  0.973792  0  0  0.29994  0.347097  0  0.996659  0
H  H8  1  0.50069484  0.64164614  0.94938606  1  0  0.114038  0  0.944325  0  0  0.127053  0  0.999705  0  0  0.131134  0  0.997767  0  0  0.108867  0.124116  0  1.001294  0
H  H9  1  0.99932274  0.85835358  0.44938243  1  0  0.114029  0  0.944229  0  0  0.127021  0  0.999655  0  0  0.131099  0  0.997718  0  0  0.108881  0.124081  0  1.001241  0
H  H10  1  0.49930129  0.35835632  0.05061467  1  0  0.113999  0  0.944358  0  0  0.127026  0  0.999737  0  0  0.131102  0  0.99781  0  0  0.108858  0.124088  0  1.001322  0
H  H11  1  0.00068414  0.14163893  0.55061164  1  0  0.114058  0  0.944346  0  0  0.127062  0  0.999745  0  0  0.13114  0  0.997808  0  0  0.108883  0.124121  0  1.001332  0
H  H12  1  0.24699402  0.50108915  0.05108430  1  0  0.080311  0  0.965679  0  0  0.094255  0  1.023389  0  0  0.095844  0  1.022369  0  0  0.102905  0.093056  0  1.024124  0
H  H13  1  0.25302181  0.99891053  0.55107853  1  0  0.08027  0  0.965606  0  0  0.094211  0  1.023331  0  0  0.0958  0  1.02231  0  0  0.102892  0.093015  0  1.024069  0
H  H14  1  0.75300397  0.49891178  0.94891710  1  0  0.08028  0  0.965672  0  0  0.094226  0  1.023384  0  0  0.095814  0  1.022366  0  0  0.102887  0.09303  0  1.024117  0
H  H15  1  0.74698693  0.00108580  0.44891220  1  0  0.080279  0  0.965692  0  0  0.094226  0  1.0234  0  0  0.095813  0  1.022383  0  0  0.102876  0.093035  0  1.024139  0
H  H16  1  0.98739441  0.53799980  0.19639038  1  0  0.116684  0  0.982028  0  0  0.119834  0  1.054592  0  0  0.125051  0  1.051295  0  0  0.10509  0.116051  0  1.057179  0
H  H17  1  0.51262083  0.96200467  0.69638673  1  0  0.116609  0  0.982106  0  0  0.119782  0  1.054661  0  0  0.125007  0  1.051352  0  0  0.105024  0.115997  0  1.05725  0
H  H18  1  0.01260618  0.46200113  0.80360969  1  0  0.11666  0  0.982037  0  0  0.11981  0  1.054607  0  0  0.125028  0  1.051307  0  0  0.105084  0.116027  0  1.057199  0
H  H19  1  0.48739423  0.03799930  0.30360534  1  0  0.11665  0  0.981948  0  0  0.119792  0  1.054549  0  0  0.125016  0  1.051239  0  0  0.105043  0.116005  0  1.057145  0
H  H20  1  0.01140705  0.80401160  0.26201182  1  0  0.38833  0  0.904325  0  0  0.36254  0  0.974946  0  0  0.375145  0  0.961653  0  0  0.299625  0.35372  0  0.984091  0
H  H21  1  0.48858898  0.69599013  0.76201051  1  0  0.388428  0  0.90424  0  0  0.362634  0  0.974872  0  0  0.375239  0  0.961577  0  0  0.299672  0.353813  0  0.984024  0
H  H22  1  0.98858464  0.19598704  0.73799025  1  0  0.388455  0  0.904209  0  0  0.362636  0  0.974887  0  0  0.375241  0  0.961592  0  0  0.299666  0.353815  0  0.984037  0
H  H23  1  0.51141198  0.30401156  0.23798889  1  0  0.388456  0  0.904125  0  0  0.362638  0  0.974802  0  0  0.375242  0  0.961507  0  0  0.299656  0.353818  0  0.983954  0
C  C24  1  0.25848887  0.88990879  0.15259703  1  0  0.67106  0  3.907423  0  0  0.617915  0  4.210922  0  0  0.653929  0  4.200843  0  0  0.189117  0.593521  0  4.217162  0
C  C25  1  0.24150319  0.61009269  0.65259706  1  0  0.671101  0  3.907485  0  0  0.617931  0  4.211007  0  0  0.653945  0  4.200932  0  0  0.18906  0.59354  0  4.217246  0
C  C26  1  0.74150021  0.11008986  0.84740704  1  0  0.671191  0  3.907344  0  0  0.618024  0  4.210849  0  0  0.654039  0  4.200779  0  0  0.189202  0.593629  0  4.217085  0
C  C27  1  0.75849554  0.38990977  0.34740634  1  0  0.671214  0  3.907316  0  0  0.618065  0  4.210805  0  0  0.654079  0  4.20073  0  0  0.189237  0.593677  0  4.217036  0
C  C28  1  0.25998189  0.78312703  0.12466784  1  0  -0.347188  0  3.744068  0  0  -0.331247  0  3.984831  0  0  -0.349222  0  4.005497  0  0  -0.053171  -0.319574  0  3.971154  0
C  C29  1  0.24002087  0.71687436  0.62466612  1  0  -0.347265  0  3.744204  0  0  -0.331318  0  3.984918  0  0  -0.349293  0  4.005582  0  0  -0.053183  -0.319656  0  3.971244  0
C  C30  1  0.74001573  0.21687313  0.87533422  1  0  -0.347351  0  3.744274  0  0  -0.33143  0  3.985007  0  0  -0.349411  0  4.005678  0  0  -0.05321  -0.319761  0  3.971332  0
C  C31  1  0.75998491  0.28312656  0.37533262  1  0  -0.347287  0  3.744265  0  0  -0.331357  0  3.985048  0  0  -0.349337  0  4.005718  0  0  -0.053216  -0.31969  0  3.971367  0
C  C32  1  0.39914815  0.75947919  0.04093723  1  0  0.371409  0  3.808882  0  0  0.356265  0  4.073036  0  0  0.373094  0  4.086875  0  0  0.089365  0.344968  0  4.06347  0
C  C33  1  0.10086038  0.74052124  0.54093501  1  0  0.371251  0  3.809087  0  0  0.356188  0  4.073135  0  0  0.373016  0  4.086975  0  0  0.08934  0.344896  0  4.063561  0
C  C34  1  0.60085281  0.24052250  0.95906550  1  0  0.371351  0  3.808979  0  0  0.356277  0  4.073065  0  0  0.373105  0  4.086907  0  0  0.089376  0.344987  0  4.06349  0
C  C35  1  0.89914132  0.25947663  0.45906373  1  0  0.371419  0  3.808834  0  0  0.356277  0  4.073014  0  0  0.373103  0  4.086855  0  0  0.089397  0.344988  0  4.063432  0
C  C36  1  0.39309751  0.65808149  0.01415013  1  0  -0.239255  0  3.750611  0  0  -0.265388  0  4.017259  0  0  -0.27604  0  4.036806  0  0  -0.116831  -0.258496  0  4.0041  0
C  C37  1  0.10691614  0.84191810  0.51414813  1  0  -0.239157  0  3.750521  0  0  -0.265312  0  4.017166  0  0  -0.275962  0  4.036718  0  0  -0.116814  -0.258414  0  4.003997  0
C  C38  1  0.60691161  0.34192096  0.98585194  1  0  -0.239162  0  3.75059  0  0  -0.265338  0  4.017234  0  0  -0.27599  0  4.036783  0  0  -0.116826  -0.258445  0  4.004067  0
C  C39  1  0.89308407  0.15807671  0.48584861  1  0  -0.239318  0  3.750653  0  0  -0.265447  0  4.017304  0  0  -0.276097  0  4.036854  0  0  -0.116913  -0.258549  0  4.004135  0
C  C40  1  0.25176258  0.58026977  0.07167233  1  0  0.016075  0  3.794675  0  0  0.000866  0  4.049549  0  0  0.007516  0  4.068209  0  0  -0.077092  -0.003038  0  4.036395  0
C  C41  1  0.24825376  0.91973148  0.57166839  1  0  0.016211  0  3.794543  0  0  0.00101  0  4.04941  0  0  0.007658  0  4.068077  0  0  -0.077076  -0.002902  0  4.036267  0
C  C42  1  0.74824098  0.41973192  0.92832840  1  0  0.016103  0  3.79466  0  0  0.000896  0  4.049548  0  0  0.007546  0  4.068208  0  0  -0.077075  -0.003012  0  4.036399  0
C  C43  1  0.75175572  0.08026638  0.42832501  1  0  0.016147  0  3.794645  0  0  0.000944  0  4.049497  0  0  0.007592  0  4.068161  0  0  -0.077007  -0.002975  0  4.036358  0
C  C44  1  0.11019252  0.60032981  0.15439821  1  0  -0.263667  0  3.771451  0  0  -0.285766  0  4.035946  0  0  -0.296764  0  4.055236  0  0  -0.13205  -0.278569  0  4.022965  0
C  C45  1  0.38982363  0.89967317  0.65439477  1  0  -0.263671  0  3.771486  0  0  -0.285788  0  4.035944  0  0  -0.296794  0  4.055242  0  0  -0.132004  -0.278597  0  4.022967  0
C  C46  1  0.88981288  0.39967035  0.84560319  1  0  -0.263622  0  3.771479  0  0  -0.285739  0  4.035957  0  0  -0.296736  0  4.055244  0  0  -0.132054  -0.278546  0  4.022986  0
C  C47  1  0.61018030  0.10032928  0.34560063  1  0  -0.263597  0  3.7713  0  0  -0.285697  0  4.035759  0  0  -0.296697  0  4.055052  0  0  -0.132023  -0.278501  0  4.022792  0
C  C48  1  0.11444239  0.70191840  0.18068795  1  0  0.35233  0  3.84538  0  0  0.336843  0  4.109327  0  0  0.353311  0  4.124408  0  0  0.072669  0.325791  0  4.098876  0
C  C49  1  0.38556790  0.79808389  0.68068562  1  0  0.352359  0  3.845349  0  0  0.336864  0  4.10931  0  0  0.353332  0  4.124395  0  0  0.072691  0.325824  0  4.098846  0
C  C50  1  0.88556042  0.29808176  0.81931412  1  0  0.352357  0  3.845459  0  0  0.336924  0  4.109321  0  0  0.353392  0  4.124405  0  0  0.072724  0.325877  0  4.098868  0
C  C51  1  0.61443862  0.20191856  0.31931311  1  0  0.35225  0  3.845541  0  0  0.336788  0  4.10945  0  0  0.353254  0  4.124537  0  0  0.072664  0.325738  0  4.098999  0
O  O52  1  0.11541270  0.90879587  0.22682838  1  0  -0.627797  0  1.929883  0  0  -0.573563  0  2.145016  0  0  -0.597185  0  2.133971  0  0  -0.340251  -0.557183  0  2.152121  0
O  O53  1  0.38456592  0.59120657  0.72683092  1  0  -0.627883  0  1.929911  0  0  -0.573632  0  2.145028  0  0  -0.597262  0  2.134001  0  0  -0.340272  -0.557253  0  2.152134  0
O  O54  1  0.88457008  0.09120049  0.77317502  1  0  -0.627946  0  1.929625  0  0  -0.573694  0  2.144794  0  0  -0.597316  0  2.133735  0  0  -0.340359  -0.557308  0  2.151897  0
O  O55  1  0.61541909  0.40879973  0.27317582  1  0  -0.627967  0  1.929688  0  0  -0.573705  0  2.144826  0  0  -0.597333  0  2.133786  0  0  -0.340372  -0.557328  0  2.151933  0
O  O56  1  0.39734449  0.96222742  0.10040049  1  0  -0.711845  0  1.994254  0  0  -0.657363  0  2.231262  0  0  -0.681193  0  2.218866  0  0  -0.445258  -0.640769  0  2.23933  0
O  O57  1  0.10265373  0.53777468  0.60040113  1  0  -0.711827  0  1.994241  0  0  -0.657354  0  2.231279  0  0  -0.681169  0  2.218861  0  0  -0.445218  -0.64076  0  2.239343  0
O  O58  1  0.60264127  0.03777505  0.89960425  1  0  -0.711784  0  1.994336  0  0  -0.657328  0  2.231421  0  0  -0.681124  0  2.218958  0  0  -0.445284  -0.640754  0  2.239506  0
O  O59  1  0.89735650  0.46222470  0.39960494  1  0  -0.711797  0  1.994347  0  0  -0.657352  0  2.231423  0  0  -0.681148  0  2.218961  0  0  -0.44529  -0.640781  0  2.239492  0
O  O60  1  0.53596631  0.83665921  0.98581119  1  0  -0.60851  0  2.136957  0  0  -0.559469  0  2.365589  0  0  -0.579108  0  2.354319  0  0  -0.442908  -0.545384  0  2.37289  0
O  O61  1  0.96404048  0.66334061  0.48580915  1  0  -0.608378  0  2.136935  0  0  -0.559362  0  2.365533  0  0  -0.578997  0  2.354271  0  0  -0.442854  -0.545279  0  2.372826  0
O  O62  1  0.46403280  0.16334401  0.01419221  1  0  -0.608424  0  2.136989  0  0  -0.559395  0  2.365599  0  0  -0.579031  0  2.35434  0  0  -0.442894  -0.545321  0  2.372871  0
O  O63  1  0.03595973  0.33665420  0.51419159  1  0  -0.608452  0  2.136955  0  0  -0.559411  0  2.365584  0  0  -0.579047  0  2.354325  0  0  -0.442912  -0.545345  0  2.372834  0
O  O64  1  0.98342597  0.72386290  0.26182732  1  0  -0.622048  0  2.121951  0  0  -0.568428  0  2.343868  0  0  -0.588971  0  2.333274  0  0  -0.451969  -0.553691  0  2.35065  0
O  O65  1  0.51657703  0.77613944  0.76182524  1  0  -0.622096  0  2.121904  0  0  -0.568486  0  2.34384  0  0  -0.589029  0  2.333246  0  0  -0.451987  -0.553755  0  2.350622  0
O  O66  1  0.01657276  0.27613420  0.73817542  1  0  -0.622102  0  2.121934  0  0  -0.568496  0  2.343847  0  0  -0.589039  0  2.333254  0  0  -0.452007  -0.553761  0  2.350631  0
O  O67  1  0.48342764  0.22386454  0.23817349  1  0  -0.622057  0  2.121845  0  0  -0.568448  0  2.343787  0  0  -0.588989  0  2.333195  0  0  -0.451968  -0.553719  0  2.350578  0
