# generated using pymatgen
data_CdH6C10Br4(NCl)2
_symmetry_space_group_name_H-M   'P 1'
_cell_length_a   3.85984126
_cell_length_b   14.01628611
_cell_length_c   14.01630568
_cell_angle_alpha   90.00073643
_cell_angle_beta   89.99917629
_cell_angle_gamma   90.00045732
_symmetry_Int_Tables_number   1
_chemical_formula_structural   CdH6C10Br4(NCl)2
_chemical_formula_sum   'Cd2 H12 C20 Br8 N4 Cl4'
_cell_volume   758.29109892
_cell_formula_units_Z   2
loop_
 _symmetry_equiv_pos_site_id
 _symmetry_equiv_pos_as_xyz
  1  'x, y, z'
loop_
 _atom_site_type_symbol
 _atom_site_label
 _atom_site_symmetry_multiplicity
 _atom_site_fract_x
 _atom_site_fract_y
 _atom_site_fract_z
 _atom_site_occupancy
 _atom_site_hle17_bader_spin_density
 _atom_site_hle17_ddec_charge
 _atom_site_hle17_ddec_spin_density
 _atom_site_hle17_ddec_sum_bond_order
 _atom_site_hle17_magmom
 _atom_site_hse06_10hf_bader_spin_density
 _atom_site_hse06_10hf_ddec_charge
 _atom_site_hse06_10hf_ddec_spin_density
 _atom_site_hse06_10hf_ddec_sum_bond_order
 _atom_site_hse06_10hf_magmom
 _atom_site_hse06_bader_spin_density
 _atom_site_hse06_ddec_charge
 _atom_site_hse06_ddec_spin_density
 _atom_site_hse06_ddec_sum_bond_order
 _atom_site_hse06_magmom
 _atom_site_pbe_bader_spin_density
 _atom_site_pbe_cm5_charge
 _atom_site_pbe_ddec_charge
 _atom_site_pbe_ddec_spin_density
 _atom_site_pbe_ddec_sum_bond_order
 _atom_site_pbe_magmom
Cd  Cd0  1  0.50000398  0.50000177  0.99999897  1  0  0.937555  0  1.964066  0  0  0.773436  0  2.416515  0  0  0.819063  0  2.378976  0  0  0.594852  0.741752  0  2.441478  0
Cd  Cd1  1  0.50000479  0.00000020  0.49999953  1  0  0.937526  0  1.963991  0  0  0.773408  0  2.416412  0  0  0.819034  0  2.378876  0  0  0.594841  0.741706  0  2.441419  0
H  H2  1  0.73207601  0.52954121  0.21853459  1  0  0.092657  0  0.969887  0  0  0.093532  0  1.048759  0  0  0.097308  0  1.044663  0  0  0.097911  0.09073  0  1.051823  0
H  H3  1  0.73205513  0.47045927  0.78146357  1  0  0.09267  0  0.969882  0  0  0.093553  0  1.048717  0  0  0.097332  0  1.044619  0  0  0.097936  0.090751  0  1.051776  0
H  H4  1  0.26793699  0.21853482  0.47046508  1  0  0.092606  0  0.97002  0  0  0.093529  0  1.048823  0  0  0.097307  0  1.044725  0  0  0.097917  0.090728  0  1.051883  0
H  H5  1  0.26795390  0.78147034  0.52953062  1  0  0.092579  0  0.96999  0  0  0.093517  0  1.048757  0  0  0.097299  0  1.044655  0  0  0.097899  0.090715  0  1.051819  0
H  H6  1  0.73205420  0.02953255  0.28146950  1  0  0.09263  0  0.969923  0  0  0.093574  0  1.048713  0  0  0.097357  0  1.044608  0  0  0.097914  0.090773  0  1.051774  0
H  H7  1  0.73205621  0.97046079  0.71853365  1  0  0.092655  0  0.970035  0  0  0.093556  0  1.048849  0  0  0.097335  0  1.044751  0  0  0.097928  0.090755  0  1.051911  0
H  H8  1  0.26794545  0.71853319  0.02953969  1  0  0.092624  0  0.969829  0  0  0.093522  0  1.048679  0  0  0.097301  0  1.044581  0  0  0.097922  0.090721  0  1.051741  0
H  H9  1  0.26793507  0.28146768  0.97046457  1  0  0.092663  0  0.969783  0  0  0.093569  0  1.048617  0  0  0.097351  0  1.044512  0  0  0.097913  0.090767  0  1.051678  0
H  H10  1  0.49998252  0.81612891  0.31612608  1  0  0.135047  0  0.962639  0  0  0.14426  0  1.025521  0  0  0.147697  0  1.022488  0  0  0.093619  0.141597  0  1.027968  0
H  H11  1  0.50000777  0.18386678  0.68387584  1  0  0.135046  0  0.962637  0  0  0.144259  0  1.025543  0  0  0.14769  0  1.022524  0  0  0.093607  0.141637  0  1.027936  0
H  H12  1  0.50000472  0.31612042  0.18387903  1  0  0.135042  0  0.962495  0  0  0.144275  0  1.025336  0  0  0.147715  0  1.022301  0  0  0.093665  0.141604  0  1.027808  0
H  H13  1  0.49999334  0.68387597  0.81611647  1  0  0.135048  0  0.962258  0  0  0.144289  0  1.025112  0  0  0.147728  0  1.022078  0  0  0.093624  0.141617  0  1.027584  0
C  C14  1  0.62750567  0.60090514  0.20741677  1  0  0.070209  0  3.692996  0  0  0.027423  0  3.951481  0  0  0.035056  0  3.96781  0  0  0.028724  0.022488  0  3.940551  0
C  C15  1  0.62750029  0.39909653  0.79258822  1  0  0.070168  0  3.692914  0  0  0.027409  0  3.951375  0  0  0.03504  0  3.967702  0  0  0.028702  0.022471  0  3.940436  0
C  C16  1  0.37249224  0.20741027  0.39910506  1  0  0.0701  0  3.692941  0  0  0.027298  0  3.951427  0  0  0.034931  0  3.967754  0  0  0.028745  0.02236  0  3.94049  0
C  C17  1  0.37249793  0.79259369  0.60089451  1  0  0.07011  0  3.692982  0  0  0.027314  0  3.951447  0  0  0.034941  0  3.967783  0  0  0.028746  0.022376  0  3.940517  0
C  C18  1  0.62749623  0.10089949  0.29259435  1  0  0.070087  0  3.693012  0  0  0.027252  0  3.951486  0  0  0.034875  0  3.967824  0  0  0.028726  0.022315  0  3.940549  0
C  C19  1  0.62749937  0.89910361  0.70740493  1  0  0.070074  0  3.692619  0  0  0.02728  0  3.95117  0  0  0.03491  0  3.967498  0  0  0.028704  0.022341  0  3.940242  0
C  C20  1  0.37248916  0.70741385  0.10090558  1  0  0.070268  0  3.692846  0  0  0.027474  0  3.951314  0  0  0.035107  0  3.967644  0  0  0.028698  0.022539  0  3.940379  0
C  C21  1  0.37250100  0.29258155  0.89909613  1  0  0.070146  0  3.693006  0  0  0.027382  0  3.951453  0  0  0.035011  0  3.967791  0  0  0.028782  0.022446  0  3.940514  0
C  C22  1  0.62845041  0.66992460  0.27908232  1  0  0.056376  0  3.694898  0  0  0.078431  0  3.962126  0  0  0.076814  0  3.98434  0  0  -0.016107  0.078974  0  3.947348  0
C  C23  1  0.62846236  0.33007636  0.72091981  1  0  0.05641  0  3.69489  0  0  0.078503  0  3.962057  0  0  0.076888  0  3.984267  0  0  -0.016105  0.079047  0  3.947281  0
C  C24  1  0.37155463  0.27908217  0.33007592  1  0  0.056619  0  3.694747  0  0  0.07863  0  3.961993  0  0  0.077015  0  3.984207  0  0  -0.016032  0.079175  0  3.947204  0
C  C25  1  0.37155721  0.72091894  0.66992151  1  0  0.056585  0  3.694546  0  0  0.078662  0  3.961727  0  0  0.077049  0  3.983943  0  0  -0.016006  0.079206  0  3.946941  0
C  C26  1  0.62844734  0.16992159  0.22091899  1  0  0.056426  0  3.694866  0  0  0.078494  0  3.962042  0  0  0.076881  0  3.984257  0  0  -0.016084  0.079039  0  3.947254  0
C  C27  1  0.62844212  0.83007223  0.77907815  1  0  0.056635  0  3.694781  0  0  0.078684  0  3.962006  0  0  0.077072  0  3.984221  0  0  -0.016003  0.079227  0  3.947217  0
C  C28  1  0.37155051  0.77908520  0.16992352  1  0  0.056345  0  3.694917  0  0  0.07838  0  3.962183  0  0  0.076761  0  3.984398  0  0  -0.016104  0.078923  0  3.947404  0
C  C29  1  0.37155357  0.22091519  0.83008105  1  0  0.056456  0  3.694784  0  0  0.078498  0  3.962015  0  0  0.076884  0  3.984226  0  0  -0.016119  0.079041  0  3.94724  0
C  C30  1  0.50000131  0.76122528  0.26122538  1  0  -0.097919  0  3.686807  0  0  -0.134461  0  3.935162  0  0  -0.131868  0  3.952708  0  0  -0.086162  -0.135799  0  3.923495  0
C  C31  1  0.50000970  0.23877255  0.73877368  1  0  -0.098016  0  3.686638  0  0  -0.134602  0  3.935016  0  0  -0.132006  0  3.952551  0  0  -0.086165  -0.135973  0  3.923332  0
C  C32  1  0.49997916  0.26122107  0.23878116  1  0  -0.098  0  3.686918  0  0  -0.134575  0  3.935366  0  0  -0.131984  0  3.952907  0  0  -0.086214  -0.135912  0  3.923691  0
C  C33  1  0.50002667  0.73878103  0.76121648  1  0  -0.098106  0  3.686884  0  0  -0.134711  0  3.935334  0  0  -0.132123  0  3.952877  0  0  -0.086268  -0.13605  0  3.923658  0
Br  Br34  1  0.80391248  0.63802698  0.40171180  1  0  -0.052223  0  1.414289  0  0  -0.048544  0  1.709201  0  0  -0.053235  0  1.703613  0  0  0.044979  -0.045118  0  1.713279  0
Br  Br35  1  0.80390591  0.36197366  0.59828679  1  0  -0.052204  0  1.414305  0  0  -0.048525  0  1.709186  0  0  -0.053221  0  1.703614  0  0  0.044993  -0.045101  0  1.713255  0
Br  Br36  1  0.19607166  0.40171309  0.36198203  1  0  -0.052265  0  1.414192  0  0  -0.048573  0  1.709116  0  0  -0.053273  0  1.703545  0  0  0.044966  -0.045144  0  1.713191  0
Br  Br37  1  0.19609312  0.59829333  0.63801252  1  0  -0.052216  0  1.414336  0  0  -0.048546  0  1.709236  0  0  -0.053242  0  1.703656  0  0  0.045007  -0.045116  0  1.713296  0
Br  Br38  1  0.80390292  0.13801597  0.09829483  1  0  -0.052169  0  1.414427  0  0  -0.048481  0  1.709322  0  0  -0.053184  0  1.703753  0  0  0.04502  -0.045057  0  1.713392  0
Br  Br39  1  0.80391547  0.86198181  0.90170947  1  0  -0.05227  0  1.414163  0  0  -0.04857  0  1.709052  0  0  -0.053267  0  1.703474  0  0  0.044967  -0.045148  0  1.713128  0
Br  Br40  1  0.19606921  0.90170930  0.13802323  1  0  -0.052198  0  1.414431  0  0  -0.048523  0  1.70938  0  0  -0.053211  0  1.703787  0  0  0.044992  -0.045091  0  1.713442  0
Br  Br41  1  0.19608519  0.09828785  0.86197988  1  0  -0.052227  0  1.414333  0  0  -0.048555  0  1.709271  0  0  -0.053248  0  1.703689  0  0  0.04498  -0.045128  0  1.713338  0
N  N42  1  0.50001077  0.62051306  0.12050980  1  0  -0.282645  0  3.279118  0  0  -0.20168  0  3.538992  0  0  -0.222536  0  3.561724  0  0  -0.322327  -0.187561  0  3.523269  0
N  N43  1  0.49999247  0.37948761  0.87949284  1  0  -0.282556  0  3.27913  0  0  -0.201676  0  3.539064  0  0  -0.222531  0  3.5618  0  0  -0.322405  -0.187558  0  3.523336  0
N  N44  1  0.49999934  0.12051352  0.37948995  1  0  -0.282501  0  3.27946  0  0  -0.201561  0  3.539327  0  0  -0.222415  0  3.56207  0  0  -0.322455  -0.187442  0  3.523601  0
N  N45  1  0.50000131  0.87948431  0.62050555  1  0  -0.282486  0  3.279363  0  0  -0.201576  0  3.539237  0  0  -0.22243  0  3.561979  0  0  -0.322436  -0.187444  0  3.523476  0
Cl  Cl46  1  0.00000087  0.40840692  0.09159309  1  0  -0.557315  0  1.039196  0  0  -0.496527  0  1.332922  0  0  -0.514715  0  1.31281  0  0  -0.293582  -0.48326  0  1.346459  0
Cl  Cl47  1  0.00000529  0.59159479  0.90840294  1  0  -0.557383  0  1.039277  0  0  -0.496606  0  1.333007  0  0  -0.514794  0  1.312895  0  0  -0.29358  -0.483342  0  1.346542  0
Cl  Cl48  1  0.00000385  0.09159583  0.59159585  1  0  -0.557334  0  1.039263  0  0  -0.496544  0  1.332974  0  0  -0.514729  0  1.312863  0  0  -0.293559  -0.483288  0  1.346525  0
Cl  Cl49  1  0.00000230  0.90840660  0.40840375  1  0  -0.557331  0  1.039302  0  0  -0.496555  0  1.333034  0  0  -0.514743  0  1.312922  0  0  -0.293565  -0.48329  0  1.346571  0
