# generated using pymatgen
data_CuH6C7N3Cl
_symmetry_space_group_name_H-M   'P 1'
_cell_length_a   7.32856212
_cell_length_b   8.35644940
_cell_length_c   13.39097769
_cell_angle_alpha   86.42785533
_cell_angle_beta   81.84261469
_cell_angle_gamma   63.99346117
_symmetry_Int_Tables_number   1
_chemical_formula_structural   CuH6C7N3Cl
_chemical_formula_sum   'Cu4 H24 C28 N12 Cl4'
_cell_volume   729.57895726
_cell_formula_units_Z   4
loop_
 _symmetry_equiv_pos_site_id
 _symmetry_equiv_pos_as_xyz
  1  'x, y, z'
loop_
 _atom_site_type_symbol
 _atom_site_label
 _atom_site_symmetry_multiplicity
 _atom_site_fract_x
 _atom_site_fract_y
 _atom_site_fract_z
 _atom_site_occupancy
 _atom_site_hle17_bader_spin_density
 _atom_site_hle17_ddec_charge
 _atom_site_hle17_ddec_spin_density
 _atom_site_hle17_ddec_sum_bond_order
 _atom_site_hle17_magmom
 _atom_site_hse06_10hf_bader_spin_density
 _atom_site_hse06_10hf_ddec_charge
 _atom_site_hse06_10hf_ddec_spin_density
 _atom_site_hse06_10hf_ddec_sum_bond_order
 _atom_site_hse06_10hf_magmom
 _atom_site_hse06_bader_spin_density
 _atom_site_hse06_ddec_charge
 _atom_site_hse06_ddec_spin_density
 _atom_site_hse06_ddec_sum_bond_order
 _atom_site_hse06_magmom
 _atom_site_pbe_bader_spin_density
 _atom_site_pbe_cm5_charge
 _atom_site_pbe_ddec_charge
 _atom_site_pbe_ddec_spin_density
 _atom_site_pbe_ddec_sum_bond_order
 _atom_site_pbe_magmom
Cu  Cu0  1  0.99623431  0.96233220  0.86855349  1  0  0.41793  0  1.996978  0  0  0.306127  0  2.503808  0  0  0.299857  0  2.459737  0  0  0.448803  0.313594  0  2.531413  0
Cu  Cu1  1  0.04153920  0.96217283  0.63153108  1  0  0.417658  0  1.99884  0  0  0.305872  0  2.505748  0  0  0.299532  0  2.461826  0  0  0.448936  0.313398  0  2.533324  0
Cu  Cu2  1  0.00377467  0.03766123  0.13144680  1  0  0.418009  0  1.996994  0  0  0.306221  0  2.503818  0  0  0.299916  0  2.459782  0  0  0.448813  0.31378  0  2.530835  0
Cu  Cu3  1  0.95845280  0.03783525  0.36847068  1  0  0.41764  0  1.998806  0  0  0.305857  0  2.50572  0  0  0.29945  0  2.461809  0  0  0.448886  0.313395  0  2.533168  0
H  H4  1  0.48420480  0.08857080  0.95591855  1  0  0.090487  0  0.979126  0  0  0.10268  0  1.039485  0  0  0.106004  0  1.036454  0  0  0.100751  0.100196  0  1.041794  0
H  H5  1  0.42701162  0.08883983  0.54413668  1  0  0.090275  0  0.978604  0  0  0.102347  0  1.039244  0  0  0.105661  0  1.036204  0  0  0.100501  0.099871  0  1.041539  0
H  H6  1  0.51581235  0.91141731  0.04408208  1  0  0.090419  0  0.979303  0  0  0.102604  0  1.039651  0  0  0.105928  0  1.036617  0  0  0.100689  0.100129  0  1.041953  0
H  H7  1  0.57298176  0.91116825  0.45586572  1  0  0.090253  0  0.978571  0  0  0.102344  0  1.039197  0  0  0.105661  0  1.036153  0  0  0.100473  0.099865  0  1.041491  0
H  H8  1  0.46078583  0.25314332  0.11128991  1  0  0.123493  0  0.962423  0  0  0.129807  0  1.028547  0  0  0.133447  0  1.027505  0  0  0.097738  0.127045  0  1.029583  0
H  H9  1  0.28560880  0.25336738  0.38882351  1  0  0.12347  0  0.960857  0  0  0.129175  0  1.027855  0  0  0.132882  0  1.026768  0  0  0.097853  0.126342  0  1.028916  0
H  H10  1  0.53921846  0.74685677  0.88870899  1  0  0.12349  0  0.962467  0  0  0.129854  0  1.028539  0  0  0.1335  0  1.027484  0  0  0.097738  0.127071  0  1.029583  0
H  H11  1  0.71439552  0.74663272  0.61117316  1  0  0.123556  0  0.960813  0  0  0.12926  0  1.027827  0  0  0.132969  0  1.026736  0  0  0.097884  0.126431  0  1.028879  0
H  H12  1  0.29433506  0.23440143  0.81743757  1  0  0.091417  0  0.982042  0  0  0.10032  0  1.04847  0  0  0.103222  0  1.047839  0  0  0.094488  0.098122  0  1.049165  0
H  H13  1  0.47184323  0.23470829  0.68244208  1  0  0.091064  0  0.981727  0  0  0.099881  0  1.048421  0  0  0.102815  0  1.047751  0  0  0.094148  0.097665  0  1.049127  0
H  H14  1  0.70567854  0.76558268  0.18256571  1  0  0.09151  0  0.982001  0  0  0.100399  0  1.048425  0  0  0.103302  0  1.047793  0  0  0.094489  0.098201  0  1.049141  0
H  H15  1  0.52815770  0.76529846  0.31755906  1  0  0.091099  0  0.981744  0  0  0.099879  0  1.048478  0  0  0.102812  0  1.04781  0  0  0.094154  0.097662  0  1.049214  0
H  H16  1  0.09472023  0.57280941  0.81298969  1  0  0.105166  0  0.986255  0  0  0.110921  0  1.057253  0  0  0.114771  0  1.054096  0  0  0.097152  0.10803  0  1.059688  0
H  H17  1  0.33301084  0.57309939  0.68676229  1  0  0.105408  0  0.985269  0  0  0.110826  0  1.056749  0  0  0.114797  0  1.05344  0  0  0.097025  0.107863  0  1.059234  0
H  H18  1  0.90528855  0.42717338  0.18701177  1  0  0.10515  0  0.986206  0  0  0.110896  0  1.057224  0  0  0.114749  0  1.05406  0  0  0.097125  0.108008  0  1.059651  0
H  H19  1  0.66698950  0.42691136  0.31323726  1  0  0.105452  0  0.985249  0  0  0.110869  0  1.056719  0  0  0.114841  0  1.053407  0  0  0.097042  0.107904  0  1.059232  0
H  H20  1  0.41450267  0.50776035  0.21767403  1  0  0.098655  0  0.921217  0  0  0.113997  0  0.981988  0  0  0.115021  0  0.982024  0  0  0.118438  0.113375  0  0.982137  0
H  H21  1  0.07748007  0.50774940  0.28233216  1  0  0.09874  0  0.921521  0  0  0.113875  0  0.982589  0  0  0.114917  0  0.982555  0  0  0.118132  0.113001  0  0.983627  0
H  H22  1  0.58548776  0.49223708  0.78232824  1  0  0.098667  0  0.921181  0  0  0.113984  0  0.982026  0  0  0.115009  0  0.982066  0  0  0.118421  0.113114  0  0.983019  0
H  H23  1  0.92250852  0.49226002  0.71766831  1  0  0.098716  0  0.92146  0  0  0.11384  0  0.982521  0  0  0.114884  0  0.982484  0  0  0.118099  0.112935  0  0.983652  0
H  H24  1  0.29968618  0.74639449  0.22469900  1  0  0.090319  0  0.969011  0  0  0.097252  0  1.048146  0  0  0.100305  0  1.044822  0  0  0.108807  0.094875  0  1.051074  0
H  H25  1  0.95355835  0.74633246  0.27519750  1  0  0.089711  0  0.969953  0  0  0.096523  0  1.049328  0  0  0.099513  0  1.046019  0  0  0.108695  0.094035  0  1.052921  0
H  H26  1  0.70031661  0.25359761  0.77529882  1  0  0.090308  0  0.968979  0  0  0.097264  0  1.048124  0  0  0.100325  0  1.044795  0  0  0.108779  0.094585  0  1.052003  0
H  H27  1  0.04644321  0.25367030  0.72480375  1  0  0.089725  0  0.969949  0  0  0.096494  0  1.049351  0  0  0.099488  0  1.046033  0  0  0.108691  0.093939  0  1.053148  0
C  C28  1  0.39070103  0.23137889  0.96181534  1  0  -0.035511  0  3.718301  0  0  -0.059686  0  3.983396  0  0  -0.05749  0  3.999362  0  0  -0.08658  -0.061299  0  3.973049  0
C  C29  1  0.37777674  0.23163784  0.53822913  1  0  -0.035847  0  3.71855  0  0  -0.060075  0  3.983695  0  0  -0.057866  0  3.999666  0  0  -0.086622  -0.061698  0  3.973131  0
C  C30  1  0.60930517  0.76861454  0.03818666  1  0  -0.03534  0  3.71869  0  0  -0.059475  0  3.983737  0  0  -0.057277  0  3.999707  0  0  -0.086515  -0.06105  0  3.973143  0
C  C31  1  0.62220909  0.76836891  0.46176717  1  0  -0.035613  0  3.718512  0  0  -0.05987  0  3.983644  0  0  -0.057657  0  3.99961  0  0  -0.086462  -0.061489  0  3.973104  0
C  C32  1  0.38209157  0.32196943  0.04710618  1  0  -0.134165  0  3.706507  0  0  -0.155055  0  3.96801  0  0  -0.158298  0  3.985818  0  0  -0.093056  -0.153027  0  3.956723  0
C  C33  1  0.29570722  0.32222003  0.45293995  1  0  -0.133334  0  3.705433  0  0  -0.154003  0  3.967065  0  0  -0.157326  0  3.984811  0  0  -0.092901  -0.152137  0  3.957084  0
C  C34  1  0.61790793  0.67803466  0.95289592  1  0  -0.134231  0  3.706823  0  0  -0.1552  0  3.968288  0  0  -0.158444  0  3.986091  0  0  -0.093082  -0.153383  0  3.958145  0
C  C35  1  0.70429237  0.67778405  0.54705467  1  0  -0.133613  0  3.705378  0  0  -0.154307  0  3.967076  0  0  -0.15763  0  3.984818  0  0  -0.093027  -0.152445  0  3.95709  0
C  C36  1  0.28564463  0.31761035  0.87903215  1  0  -0.06876  0  3.741416  0  0  -0.088065  0  4.000092  0  0  -0.091485  0  4.021494  0  0  -0.096425  -0.085874  0  3.985744  0
C  C37  1  0.39691032  0.31789198  0.62092573  1  0  -0.067768  0  3.740848  0  0  -0.086685  0  3.998713  0  0  -0.090121  0  4.020135  0  0  -0.09601  -0.08448  0  3.984199  0
C  C38  1  0.71435680  0.68238442  0.12096791  1  0  -0.068855  0  3.741433  0  0  -0.088178  0  4.000155  0  0  -0.091602  0  4.021561  0  0  -0.096381  -0.085954  0  3.985696  0
C  C39  1  0.60308510  0.68211211  0.37907220  1  0  -0.067818  0  3.741056  0  0  -0.08671  0  3.998925  0  0  -0.090145  0  4.020347  0  0  -0.09604  -0.084504  0  3.984475  0
C  C40  1  0.17576729  0.50105014  0.87572597  1  0  -0.130991  0  3.731203  0  0  -0.149591  0  3.98246  0  0  -0.14928  0  4.000404  0  0  -0.092052  -0.149692  0  3.970395  0
C  C41  1  0.32344611  0.50133991  0.62412657  1  0  -0.131909  0  3.731974  0  0  -0.150459  0  3.983055  0  0  -0.15023  0  4.001009  0  0  -0.092327  -0.150507  0  3.970891  0
C  C42  1  0.82423470  0.49893797  0.12427579  1  0  -0.130982  0  3.731071  0  0  -0.149596  0  3.982312  0  0  -0.149282  0  4.000257  0  0  -0.09207  -0.149681  0  3.97024  0
C  C43  1  0.67654724  0.49866551  0.37587370  1  0  -0.132086  0  3.732019  0  0  -0.150635  0  3.983084  0  0  -0.150406  0  4.001036  0  0  -0.092413  -0.15068  0  3.970978  0
C  C44  1  0.27364610  0.62993003  0.21172557  1  0  -0.040362  0  3.618647  0  0  -0.105362  0  3.876157  0  0  -0.101798  0  3.88355  0  0  -0.04791  -0.109447  0  3.874469  0
C  C45  1  0.09612607  0.62997047  0.28819620  1  0  -0.038713  0  3.618238  0  0  -0.103865  0  3.875858  0  0  -0.100111  0  3.883063  0  0  -0.046935  -0.114019  0  3.869254  0
C  C46  1  0.72635815  0.37006740  0.78827269  1  0  -0.040372  0  3.618602  0  0  -0.10549  0  3.876259  0  0  -0.10194  0  3.883662  0  0  -0.047905  -0.115709  0  3.871382  0
C  C47  1  0.90388376  0.37002962  0.71180005  1  0  -0.038676  0  3.618228  0  0  -0.103696  0  3.875696  0  0  -0.099941  0  3.882906  0  0  -0.046891  -0.114416  0  3.870846  0
C  C48  1  0.26752514  0.50719333  0.04415732  1  0  0.095087  0  3.799429  0  0  0.080804  0  4.045747  0  0  0.08482  0  4.068851  0  0  0.105091  0.077069  0  4.030929  0
C  C49  1  0.22510130  0.50743497  0.45580093  1  0  0.095106  0  3.798856  0  0  0.081632  0  4.043617  0  0  0.085721  0  4.06669  0  0  0.105514  0.071164  0  4.025706  0
C  C50  1  0.73246815  0.49281209  0.95584818  1  0  0.094984  0  3.799612  0  0  0.080747  0  4.045843  0  0  0.084766  0  4.068947  0  0  0.10504  0.070718  0  4.027811  0
C  C51  1  0.77490372  0.49256645  0.54419563  1  0  0.095239  0  3.798855  0  0  0.081771  0  4.043598  0  0  0.085856  0  4.066673  0  0  0.105547  0.071292  0  4.025634  0
C  C52  1  0.17218686  0.59571095  0.95925981  1  0  0.115422  0  3.835969  0  0  0.114835  0  4.084021  0  0  0.112753  0  4.106334  0  0  0.09261  0.116096  0  4.069457  0
C  C53  1  0.23195165  0.59599221  0.54065775  1  0  0.11448  0  3.837648  0  0  0.114105  0  4.084881  0  0  0.111969  0  4.107282  0  0  0.092481  0.11469  0  4.072743  0
C  C54  1  0.82780348  0.40428115  0.04074267  1  0  0.115518  0  3.835892  0  0  0.114952  0  4.083843  0  0  0.112866  0  4.106156  0  0  0.09267  0.115456  0  4.071813  0
C  C55  1  0.76805823  0.40401055  0.45933840  1  0  0.114585  0  3.837632  0  0  0.114253  0  4.084841  0  0  0.11212  0  4.107235  0  0  0.092518  0.11483  0  4.072724  0
N  N56  1  0.08376972  0.77587249  0.97678970  1  0  -0.204031  0  3.233069  0  0  -0.168738  0  3.565056  0  0  -0.165339  0  3.55952  0  0  -0.245083  -0.17136  0  3.569359  0
N  N57  1  0.14031991  0.77611812  0.52306656  1  0  -0.204603  0  3.23358  0  0  -0.169178  0  3.565574  0  0  -0.165802  0  3.560095  0  0  -0.245565  -0.172511  0  3.572455  0
N  N58  1  0.91623083  0.22411296  0.02321301  1  0  -0.204265  0  3.233097  0  0  -0.168951  0  3.565056  0  0  -0.165546  0  3.55951  0  0  -0.245223  -0.172274  0  3.571917  0
N  N59  1  0.85968314  0.22388730  0.47692851  1  0  -0.204657  0  3.233772  0  0  -0.169329  0  3.565865  0  0  -0.165939  0  3.560359  0  0  -0.245588  -0.172636  0  3.572685  0
N  N60  1  0.22583895  0.64126649  0.10979370  1  0  0.011406  0  3.496189  0  0  0.095199  0  3.712484  0  0  0.083516  0  3.73712  0  0  -0.135929  0.104784  0  3.695875  0
N  N61  1  0.13255867  0.64144665  0.39014677  1  0  0.010183  0  3.492784  0  0  0.09397  0  3.7093  0  0  0.082206  0  3.733884  0  0  -0.136475  0.126425  0  3.660872  0
N  N62  1  0.77414196  0.35873892  0.89021048  1  0  0.011497  0  3.495977  0  0  0.09531  0  3.712238  0  0  0.083627  0  3.73688  0  0  -0.135792  0.126865  0  3.664374  0
N  N63  1  0.86744227  0.35855743  0.60985000  1  0  0.010045  0  3.49292  0  0  0.093804  0  3.709402  0  0  0.082043  0  3.733986  0  0  -0.1365  0.126296  0  3.660879  0
N  N64  1  0.11444896  0.80254117  0.06815691  1  0  -0.064782  0  3.17954  0  0  -0.037031  0  3.514952  0  0  -0.025214  0  3.506548  0  0  -0.143728  -0.046902  0  3.521401  0
N  N65  1  0.08281316  0.80274727  0.43172869  1  0  -0.062815  0  3.17746  0  0  -0.035454  0  3.513072  0  0  -0.02358  0  3.504672  0  0  -0.142965  -0.051939  0  3.514897  0
N  N66  1  0.88554632  0.19745759  0.93184496  1  0  -0.064641  0  3.179433  0  0  -0.036881  0  3.514766  0  0  -0.025067  0  3.506367  0  0  -0.143684  -0.053056  0  3.516673  0
N  N67  1  0.91718640  0.19725682  0.56826818  1  0  -0.062734  0  3.177356  0  0  -0.035355  0  3.513014  0  0  -0.023496  0  3.504636  0  0  -0.14297  -0.051876  0  3.514856  0
Cl  Cl68  1  0.80781282  0.90886193  0.75573222  1  0  -0.560946  0  1.170466  0  0  -0.488492  0  1.513719  0  0  -0.504914  0  1.48629  0  0  -0.32333  -0.476534  0  1.531511  0
Cl  Cl69  1  0.28329252  0.90888717  0.74428838  1  0  -0.560975  0  1.171881  0  0  -0.4884  0  1.51485  0  0  -0.504855  0  1.487479  0  0  -0.323229  -0.476472  0  1.532703  0
Cl  Cl70  1  0.19219350  0.09113417  0.24426369  1  0  -0.560973  0  1.170449  0  0  -0.488527  0  1.513687  0  0  -0.50493  0  1.486248  0  0  -0.323335  -0.47658  0  1.531405  0
Cl  Cl71  1  0.71670345  0.09111026  0.25571199  1  0  -0.56097  0  1.171788  0  0  -0.48841  0  1.51477  0  0  -0.504828  0  1.487362  0  0  -0.323217  -0.476485  0  1.532544  0
