# generated using pymatgen
data_CuH6C4BrNO
_symmetry_space_group_name_H-M   'P 1'
_cell_length_a   6.28762115
_cell_length_b   8.52522540
_cell_length_c   13.07067011
_cell_angle_alpha   81.66458273
_cell_angle_beta   76.12734594
_cell_angle_gamma   68.36053588
_symmetry_Int_Tables_number   1
_chemical_formula_structural   CuH6C4BrNO
_chemical_formula_sum   'Cu4 H24 C16 Br4 N4 O4'
_cell_volume   631.01444365
_cell_formula_units_Z   4
loop_
 _symmetry_equiv_pos_site_id
 _symmetry_equiv_pos_as_xyz
  1  'x, y, z'
loop_
 _atom_site_type_symbol
 _atom_site_label
 _atom_site_symmetry_multiplicity
 _atom_site_fract_x
 _atom_site_fract_y
 _atom_site_fract_z
 _atom_site_occupancy
 _atom_site_hle17_bader_spin_density
 _atom_site_hle17_ddec_charge
 _atom_site_hle17_ddec_spin_density
 _atom_site_hle17_ddec_sum_bond_order
 _atom_site_hle17_magmom
 _atom_site_hse06_10hf_bader_spin_density
 _atom_site_hse06_10hf_ddec_charge
 _atom_site_hse06_10hf_ddec_spin_density
 _atom_site_hse06_10hf_ddec_sum_bond_order
 _atom_site_hse06_10hf_magmom
 _atom_site_hse06_bader_spin_density
 _atom_site_hse06_ddec_charge
 _atom_site_hse06_ddec_spin_density
 _atom_site_hse06_ddec_sum_bond_order
 _atom_site_hse06_magmom
 _atom_site_pbe_bader_spin_density
 _atom_site_pbe_cm5_charge
 _atom_site_pbe_ddec_charge
 _atom_site_pbe_ddec_spin_density
 _atom_site_pbe_ddec_sum_bond_order
 _atom_site_pbe_magmom
Cu  Cu0  1  0.37918565  0.83341446  0.82386674  1  0  0.366959  0  2.34376  0  0  0.286684  0  2.843833  0  0  0.280534  0  2.801288  0  0  0.407762  0.291254  0  2.872691  0
Cu  Cu1  1  0.03642027  0.66653696  0.67606419  1  0  0.36704  0  2.345576  0  0  0.286738  0  2.8457  0  0  0.280602  0  2.803157  0  0  0.407793  0.291289  0  2.874769  0
Cu  Cu2  1  0.62085117  0.16657108  0.17613164  1  0  0.367021  0  2.343813  0  0  0.28671  0  2.843901  0  0  0.280508  0  2.801472  0  0  0.407827  0.291303  0  2.872892  0
Cu  Cu3  1  0.96359160  0.33347022  0.32393613  1  0  0.366964  0  2.345686  0  0  0.286687  0  2.8458  0  0  0.280547  0  2.803241  0  0  0.407786  0.291256  0  2.874832  0
H  H4  1  0.13155620  0.15761535  0.93396004  1  0  0.069746  0  0.950851  0  0  0.083485  0  1.018632  0  0  0.083412  0  1.01966  0  0  0.091209  0.083603  0  1.017685  0
H  H5  1  0.22274941  0.34245095  0.56609207  1  0  0.069669  0  0.951421  0  0  0.083573  0  1.019336  0  0  0.08356  0  1.020327  0  0  0.091513  0.083629  0  1.018448  0
H  H6  1  0.86845786  0.84238556  0.06604142  1  0  0.069831  0  0.950719  0  0  0.083569  0  1.018508  0  0  0.083499  0  1.019534  0  0  0.091245  0.083686  0  1.017566  0
H  H7  1  0.77722002  0.65754742  0.43390938  1  0  0.069661  0  0.951517  0  0  0.083547  0  1.019429  0  0  0.083535  0  1.020419  0  0  0.091477  0.083608  0  1.018531  0
H  H8  1  0.93588979  0.13528568  0.86396588  1  0  0.067493  0  0.955136  0  0  0.084018  0  1.016786  0  0  0.083932  0  1.018024  0  0  0.092052  0.084027  0  1.015955  0
H  H9  1  0.93474424  0.36510851  0.63601966  1  0  0.067363  0  0.955529  0  0  0.083763  0  1.01771  0  0  0.083693  0  1.018981  0  0  0.091866  0.083777  0  1.016819  0
H  H10  1  0.06411603  0.86471082  0.13604920  1  0  0.067455  0  0.955218  0  0  0.083987  0  1.016879  0  0  0.083904  0  1.018117  0  0  0.092128  0.083996  0  1.016053  0
H  H11  1  0.06523351  0.63489411  0.36399077  1  0  0.067307  0  0.955436  0  0  0.083753  0  1.017553  0  0  0.083681  0  1.018826  0  0  0.091867  0.083768  0  1.016662  0
H  H12  1  0.61860070  0.08032176  0.70855293  1  0  0.073591  0  0.949164  0  0  0.083858  0  1.022684  0  0  0.084879  0  1.021335  0  0  0.097364  0.083022  0  1.023802  0
H  H13  1  0.40782886  0.41968231  0.79145011  1  0  0.073818  0  0.949379  0  0  0.084291  0  1.022575  0  0  0.085308  0  1.021257  0  0  0.097476  0.083454  0  1.023681  0
H  H14  1  0.38140107  0.91967601  0.29143640  1  0  0.073587  0  0.949322  0  0  0.083864  0  1.022811  0  0  0.084901  0  1.021433  0  0  0.097385  0.083031  0  1.023926  0
H  H15  1  0.59216909  0.58031958  0.20854568  1  0  0.073914  0  0.949339  0  0  0.084371  0  1.022533  0  0  0.085389  0  1.021211  0  0  0.097495  0.083533  0  1.023639  0
H  H16  1  0.52541836  0.12798171  0.84288191  1  0  0.065289  0  0.949936  0  0  0.078409  0  1.018611  0  0  0.078378  0  1.018978  0  0  0.094852  0.078273  0  1.018673  0
H  H17  1  0.49622768  0.37196131  0.65711587  1  0  0.065957  0  0.94969  0  0  0.079149  0  1.018264  0  0  0.079154  0  1.018623  0  0  0.095304  0.078997  0  1.018315  0
H  H18  1  0.47459645  0.87201877  0.15711094  1  0  0.065283  0  0.949914  0  0  0.07839  0  1.018623  0  0  0.078359  0  1.018993  0  0  0.094865  0.078251  0  1.018697  0
H  H19  1  0.50377037  0.62803919  0.34287732  1  0  0.065992  0  0.94986  0  0  0.079181  0  1.018414  0  0  0.079185  0  1.018776  0  0  0.095293  0.079033  0  1.018458  0
H  H20  1  0.81582230  0.42917992  0.81795985  1  0  0.068861  0  0.94904  0  0  0.082338  0  1.01662  0  0  0.082419  0  1.017103  0  0  0.094488  0.082261  0  1.016222  0
H  H21  1  0.06199906  0.07126265  0.68221895  1  0  0.067874  0  0.951137  0  0  0.081307  0  1.018714  0  0  0.081346  0  1.019249  0  0  0.094134  0.081238  0  1.018317  0
H  H22  1  0.18418684  0.57082129  0.18204789  1  0  0.068934  0  0.948899  0  0  0.082393  0  1.016497  0  0  0.082477  0  1.016978  0  0  0.094496  0.082315  0  1.016098  0
H  H23  1  0.93798642  0.92873342  0.31778728  1  0  0.067853  0  0.951206  0  0  0.081212  0  1.018829  0  0  0.081249  0  1.019366  0  0  0.094135  0.081149  0  1.018435  0
H  H24  1  0.01939448  0.44783149  0.88481477  1  0  0.07871  0  0.942017  0  0  0.092746  0  1.004478  0  0  0.092853  0  1.00562  0  0  0.095224  0.09268  0  1.003598  0
H  H25  1  0.35092455  0.05219621  0.61525464  1  0  0.07842  0  0.943467  0  0  0.092908  0  1.005192  0  0  0.093008  0  1.00635  0  0  0.095343  0.09282  0  1.004308  0
H  H26  1  0.98062414  0.55216302  0.11518553  1  0  0.078599  0  0.942015  0  0  0.092641  0  1.004492  0  0  0.092756  0  1.00562  0  0  0.095152  0.092578  0  1.003612  0
H  H27  1  0.64905455  0.94780472  0.38474727  1  0  0.078415  0  0.943342  0  0  0.092889  0  1.005049  0  0  0.093004  0  1.006177  0  0  0.095373  0.092833  0  1.004139  0
C  C28  1  0.47976931  0.73818551  0.94292751  1  0  0.17843  0  3.155474  0  0  0.120915  0  3.567575  0  0  0.166944  0  3.534024  0  0  0.031346  0.088582  0  3.592003  0
C  C29  1  0.16012416  0.76189755  0.55699276  1  0  0.175723  0  3.154774  0  0  0.118067  0  3.566802  0  0  0.164108  0  3.533281  0  0  0.03023  0.085668  0  3.591404  0
C  C30  1  0.52023275  0.26175463  0.05707543  1  0  0.178457  0  3.155345  0  0  0.12104  0  3.567386  0  0  0.167087  0  3.533818  0  0  0.0315  0.088651  0  3.591975  0
C  C31  1  0.83986566  0.23810936  0.44300195  1  0  0.175646  0  3.154942  0  0  0.117987  0  3.566958  0  0  0.164032  0  3.533424  0  0  0.030246  0.085607  0  3.591494  0
C  C32  1  0.07655470  0.18527476  0.85772206  1  0  -0.036371  0  3.584511  0  0  -0.087214  0  3.825906  0  0  -0.084828  0  3.83919  0  0  -0.0839  -0.088611  0  3.816624  0
C  C33  1  0.11916800  0.31493862  0.64229975  1  0  -0.035032  0  3.585116  0  0  -0.086839  0  3.827756  0  0  -0.084544  0  3.841124  0  0  -0.084197  -0.08816  0  3.818336  0
C  C34  1  0.92345429  0.81471757  0.14228560  1  0  -0.036447  0  3.584689  0  0  -0.087327  0  3.826101  0  0  -0.084953  0  3.839393  0  0  -0.083987  -0.088726  0  3.816818  0
C  C35  1  0.88081337  0.68506360  0.35770248  1  0  -0.035101  0  3.585301  0  0  -0.086932  0  3.827886  0  0  -0.084637  0  3.841251  0  0  -0.084196  -0.088254  0  3.818476  0
C  C36  1  0.47138878  0.15427878  0.76662129  1  0  -0.033724  0  3.570362  0  0  -0.087303  0  3.817949  0  0  -0.083998  0  3.829804  0  0  -0.082451  -0.089463  0  3.80997  0
C  C37  1  0.39235092  0.34576676  0.73339365  1  0  -0.034236  0  3.570646  0  0  -0.087474  0  3.817182  0  0  -0.084507  0  3.829618  0  0  -0.082672  -0.089543  0  3.809088  0
C  C38  1  0.52860762  0.84572450  0.23337690  1  0  -0.033748  0  3.570414  0  0  -0.087368  0  3.818049  0  0  -0.084062  0  3.82989  0  0  -0.082497  -0.089537  0  3.810074  0
C  C39  1  0.60764032  0.65423027  0.26660642  1  0  -0.03436  0  3.570626  0  0  -0.087561  0  3.817137  0  0  -0.084594  0  3.82958  0  0  -0.082646  -0.089635  0  3.809044  0
C  C40  1  0.99904378  0.37693410  0.82637195  1  0  -0.038192  0  3.577611  0  0  -0.088466  0  3.816756  0  0  -0.086174  0  3.830717  0  0  -0.08469  -0.089823  0  3.806974  0
C  C41  1  0.20158897  0.12326906  0.67369351  1  0  -0.037824  0  3.581354  0  0  -0.087953  0  3.820458  0  0  -0.085613  0  3.834434  0  0  -0.084168  -0.089271  0  3.810582  0
C  C42  1  0.00096695  0.62306704  0.17363427  1  0  -0.038245  0  3.577604  0  0  -0.088496  0  3.81672  0  0  -0.086208  0  3.830689  0  0  -0.084697  -0.089863  0  3.806939  0
C  C43  1  0.79841066  0.87672549  0.32630768  1  0  -0.037809  0  3.581368  0  0  -0.087796  0  3.82027  0  0  -0.085463  0  3.834252  0  0  -0.084195  -0.089162  0  3.810433  0
Br  Br44  1  0.62884610  0.70747424  0.65927492  1  0  -0.500737  0  1.323317  0  0  -0.445822  0  1.701055  0  0  -0.462638  0  1.670257  0  0  -0.252101  -0.433202  0  1.722579  0
Br  Br45  1  0.99603141  0.79222885  0.84071770  1  0  -0.500531  0  1.323686  0  0  -0.445611  0  1.701534  0  0  -0.462438  0  1.670733  0  0  -0.252107  -0.432988  0  1.723131  0
Br  Br46  1  0.37115540  0.29250926  0.34073341  1  0  -0.500716  0  1.323249  0  0  -0.445815  0  1.701011  0  0  -0.462628  0  1.670222  0  0  -0.252079  -0.433202  0  1.722558  0
Br  Br47  1  0.00395627  0.20785208  0.15926151  1  0  -0.500469  0  1.323778  0  0  -0.445542  0  1.701659  0  0  -0.462364  0  1.670868  0  0  -0.252069  -0.432924  0  1.723284  0
N  N48  1  0.27643695  0.08993274  0.77686320  1  0  -0.185555  0  3.265521  0  0  -0.088375  0  3.514726  0  0  -0.102552  0  3.529661  0  0  -0.365889  -0.078659  0  3.504053  0
N  N49  1  0.14326177  0.41021143  0.72316178  1  0  -0.186251  0  3.266114  0  0  -0.088645  0  3.515514  0  0  -0.102799  0  3.530456  0  0  -0.365565  -0.078917  0  3.504878  0
N  N50  1  0.72356922  0.91006182  0.22313801  1  0  -0.185378  0  3.265359  0  0  -0.088187  0  3.514432  0  0  -0.102352  0  3.52938  0  0  -0.365871  -0.078468  0  3.503782  0
N  N51  1  0.85673930  0.58978807  0.27683703  1  0  -0.186065  0  3.266022  0  0  -0.088524  0  3.515503  0  0  -0.102676  0  3.530449  0  0  -0.365545  -0.07879  0  3.504858  0
O  O52  1  0.52853748  0.66733613  0.02133163  1  0  -0.174417  0  2.255276  0  0  -0.11551  0  2.48505  0  0  -0.133252  0  2.475563  0  0  -0.135713  -0.104217  0  2.492377  0
O  O53  1  0.21617339  0.83269231  0.47855124  1  0  -0.172076  0  2.254293  0  0  -0.113014  0  2.483908  0  0  -0.130769  0  2.474446  0  0  -0.134507  -0.101691  0  2.491302  0
O  O54  1  0.47147643  0.33266888  0.97867591  1  0  -0.17462  0  2.255138  0  0  -0.115806  0  2.484932  0  0  -0.133551  0  2.475427  0  0  -0.13599  -0.10449  0  2.492313  0
O  O55  1  0.78382193  0.16731302  0.52143726  1  0  -0.171958  0  2.254557  0  0  -0.112893  0  2.484179  0  0  -0.130642  0  2.474719  0  0  -0.134498  -0.101577  0  2.491529  0
