# generated using pymatgen
data_CdH11C20(NO2)3
_symmetry_space_group_name_H-M   'P 1'
_cell_length_a   12.22891295
_cell_length_b   13.39724932
_cell_length_c   14.52274875
_cell_angle_alpha   90.00034677
_cell_angle_beta   90.00011114
_cell_angle_gamma   112.89918305
_symmetry_Int_Tables_number   1
_chemical_formula_structural   CdH11C20(NO2)3
_chemical_formula_sum   'Cd4 H44 C80 N12 O24'
_cell_volume   2191.80534380
_cell_formula_units_Z   4
loop_
 _symmetry_equiv_pos_site_id
 _symmetry_equiv_pos_as_xyz
  1  'x, y, z'
loop_
 _atom_site_type_symbol
 _atom_site_label
 _atom_site_symmetry_multiplicity
 _atom_site_fract_x
 _atom_site_fract_y
 _atom_site_fract_z
 _atom_site_occupancy
 _atom_site_pbe_bader_charge
 _atom_site_pbe_bader_spin_density
 _atom_site_pbe_cm5_charge
 _atom_site_pbe_ddec_charge
 _atom_site_pbe_ddec_spin_density
 _atom_site_pbe_ddec_sum_bond_order
 _atom_site_pbe_magmom
Cd  Cd0  1  0.45154680  0.06867084  0.10767439  1  1.28335  0  0.780346  0.887777  0  2.171131  0
Cd  Cd1  1  0.04845538  0.43133348  0.60767201  1  1.283297  0  0.780346  0.88781  0  2.171044  0
Cd  Cd2  1  0.54845575  0.93133269  0.89233066  1  1.283398  0  0.780349  0.887767  0  2.171097  0
Cd  Cd3  1  0.95154631  0.56866600  0.39232409  1  1.283384  0  0.780336  0.887788  0  2.17106  0
H  H4  1  0.37124517  0.82585895  0.18026461  1  0.102903  0  0.115154  0.084312  0  1.015501  0
H  H5  1  0.12875609  0.67414327  0.68026369  1  0.102886  0  0.115159  0.084324  0  1.015501  0
H  H6  1  0.62874995  0.17414046  0.81973976  1  0.10287  0  0.115155  0.08436  0  1.015545  0
H  H7  1  0.87124329  0.32585457  0.31973310  1  0.103027  0  0.115152  0.084314  0  1.015539  0
H  H8  1  0.19710569  0.64695637  0.17479944  1  0.117711  0  0.112018  0.125812  0  1.000307  0
H  H9  1  0.30289356  0.85304498  0.67480324  1  0.117506  0  0.112086  0.12583  0  1.000221  0
H  H10  1  0.80288517  0.35304460  0.82519942  1  0.117615  0  0.112055  0.125832  0  1.000249  0
H  H11  1  0.69710499  0.14695285  0.32519768  1  0.117603  0  0.112114  0.125893  0  1.000235  0
H  H12  1  0.00595481  0.80796596  0.02642837  1  0.125488  0  0.114443  0.133497  0  1.00517  0
H  H13  1  0.49405377  0.69203905  0.52643917  1  0.125453  0  0.114387  0.133497  0  1.005146  0
H  H14  1  0.99405027  0.19204566  0.97356498  1  0.125482  0  0.114339  0.133396  0  1.00515  0
H  H15  1  0.50595236  0.30796129  0.47356589  1  0.125499  0  0.114367  0.133427  0  1.005123  0
H  H16  1  0.18727122  0.98101860  0.04113696  1  0.145505  0  0.121355  0.102148  0  0.987466  0
H  H17  1  0.31273910  0.51898655  0.54113892  1  0.145225  0  0.121381  0.10218  0  0.98746  0
H  H18  1  0.81273812  0.01899145  0.95886397  1  0.14535  0  0.121367  0.102165  0  0.987468  0
H  H19  1  0.68726719  0.48101218  0.45885925  1  0.145283  0  0.121397  0.102209  0  0.987496  0
H  H20  1  0.91029718  0.33095170  0.13606957  1  0.087649  0  0.114175  0.12768  0  0.988804  0
H  H21  1  0.58970589  0.16905233  0.63606167  1  0.088075  0  0.114152  0.127571  0  0.988893  0
H  H22  1  0.08970504  0.66905102  0.86393204  1  0.087696  0  0.1142  0.127723  0  0.988781  0
H  H23  1  0.41029367  0.83094793  0.36392824  1  0.087668  0  0.114199  0.127731  0  0.988776  0
H  H24  1  0.73242647  0.15550582  0.13265911  1  0.082611  0  0.116702  0.087346  0  1.002585  0
H  H25  1  0.76758035  0.34449742  0.63265937  1  0.082604  0  0.11673  0.087384  0  1.002572  0
H  H26  1  0.26757985  0.84449694  0.86734181  1  0.082607  0  0.116721  0.08735  0  1.00258  0
H  H27  1  0.23242216  0.65550208  0.36733674  1  0.082613  0  0.116706  0.087361  0  1.002563  0
H  H28  1  0.51791046  0.30434376  0.02947365  1  0.114752  0  0.119378  0.096604  0  1.008172  0
H  H29  1  0.98209425  0.19565694  0.52948100  1  0.114762  0  0.119368  0.096598  0  1.00818  0
H  H30  1  0.48208959  0.69565570  0.97052659  1  0.114724  0  0.119375  0.096616  0  1.008154  0
H  H31  1  0.01791107  0.80434339  0.47052268  1  0.114804  0  0.119405  0.096644  0  1.008121  0
H  H32  1  0.68406687  0.48593102  0.03072405  1  0.113074  0  0.109452  0.122142  0  1.035545  0
H  H33  1  0.81593638  0.01407210  0.53071980  1  0.113021  0  0.109441  0.122173  0  1.035486  0
H  H34  1  0.31593467  0.51407008  0.96927825  1  0.11308  0  0.10943  0.122166  0  1.035485  0
H  H35  1  0.18406796  0.98592983  0.46927699  1  0.113125  0  0.109478  0.122196  0  1.035488  0
H  H36  1  0.64714963  0.93498252  0.32390255  1  0.111939  0  0.111776  0.124689  0  1.0129  0
H  H37  1  0.85284694  0.56501712  0.82390277  1  0.111953  0  0.111784  0.124738  0  1.012949  0
H  H38  1  0.35285008  0.06501613  0.67610044  1  0.111874  0  0.111811  0.124814  0  1.012816  0
H  H39  1  0.14714949  0.43498150  0.17609747  1  0.111981  0  0.111782  0.124701  0  1.012906  0
H  H40  1  0.79654340  0.70793017  0.13145500  1  0.132411  0  0.105856  0.112396  0  1.035143  0
H  H41  1  0.70345533  0.79207186  0.63145830  1  0.132485  0  0.105868  0.112375  0  1.035096  0
H  H42  1  0.20346195  0.29207419  0.86854523  1  0.132403  0  0.105864  0.112403  0  1.035127  0
H  H43  1  0.29655151  0.20793413  0.36854331  1  0.132461  0  0.105877  0.112397  0  1.035058  0
H  H44  1  0.68954624  0.81282615  0.05770333  1  0.100124  0  0.105817  0.122435  0  1.028705  0
H  H45  1  0.81045668  0.68717851  0.55770622  1  0.100153  0  0.105858  0.122494  0  1.028721  0
H  H46  1  0.31045680  0.18717657  0.94229760  1  0.100196  0  0.105832  0.122479  0  1.028668  0
H  H47  1  0.18954834  0.31282504  0.44229608  1  0.099843  0  0.105821  0.122448  0  1.028702  0
C  C48  1  0.28857169  0.81784484  0.14670201  1  0.437298  0  0.045512  0.093986  0  3.972059  0
C  C49  1  0.21142985  0.68215630  0.64670402  1  0.437512  0  0.04551  0.093914  0  3.972114  0
C  C50  1  0.71142410  0.18215619  0.85329754  1  0.437215  0  0.045517  0.093922  0  3.972099  0
C  C51  1  0.78857132  0.31783996  0.35329346  1  0.437309  0  0.045496  0.093971  0  3.971964  0
C  C52  1  0.19284944  0.71898747  0.14303293  1  0.02671  0  -0.071959  -0.161233  0  3.892379  0
C  C53  1  0.30715242  0.78101444  0.64303702  1  0.027015  0  -0.071991  -0.161155  0  3.89221  0
C  C54  1  0.80714340  0.28101433  0.85696593  1  0.026704  0  -0.072042  -0.161305  0  3.892378  0
C  C55  1  0.69285107  0.21898346  0.35696390  1  0.026821  0  -0.072039  -0.161236  0  3.892211  0
C  C56  1  0.08834239  0.71286765  0.09820316  1  0.102613  0  0.029023  0.184467  0  4.070685  0
C  C57  1  0.41165905  0.78713548  0.59820815  1  0.102409  0  0.028979  0.18442  0  4.070758  0
C  C58  1  0.91165508  0.28713743  0.90179364  1  0.102408  0  0.029049  0.184496  0  4.070631  0
C  C59  1  0.58834182  0.21286399  0.40179278  1  0.102479  0  0.029058  0.184439  0  4.070589  0
C  C60  1  0.08522805  0.80903118  0.06118563  1  0.015837  0  -0.07074  -0.166016  0  3.886916  0
C  C61  1  0.41477761  0.69097248  0.56119078  1  0.01593  0  -0.070557  -0.165785  0  3.886584  0
C  C62  1  0.91477289  0.19097636  0.93881047  1  0.016023  0  -0.070501  -0.165697  0  3.886477  0
C  C63  1  0.58522770  0.30902785  0.43881014  1  0.015925  0  -0.070536  -0.16573  0  3.886576  0
C  C64  1  0.18519010  0.90450068  0.06866390  1  0.410577  0  0.048959  0.094516  0  3.948929  0
C  C65  1  0.31481691  0.59550226  0.56866698  1  0.410751  0  0.048854  0.094297  0  3.948755  0
C  C66  1  0.81481230  0.09550446  0.93133633  1  0.410773  0  0.048872  0.094336  0  3.948892  0
C  C67  1  0.68518807  0.40449726  0.43133256  1  0.410639  0  0.048816  0.094304  0  3.948975  0
C  C68  1  0.99145158  0.61227140  0.09041308  1  0.160783  0  -0.011899  -0.0377  0  4.012688  0
C  C69  1  0.50854440  0.88772621  0.59041590  1  0.159859  0  -0.011937  -0.037867  0  4.012605  0
C  C70  1  0.00854324  0.38773123  0.90958578  1  0.160193  0  -0.011994  -0.0378  0  4.012658  0
C  C71  1  0.49145001  0.11226754  0.40958227  1  0.159974  0  -0.011976  -0.037872  0  4.012858  0
C  C72  1  0.90937027  0.52426953  0.08557966  1  -0.432144  0  -0.020634  -0.075803  0  4.019965  0
C  C73  1  0.59063528  0.97573541  0.58557002  1  -0.431194  0  -0.020586  -0.075677  0  4.019676  0
C  C74  1  0.09063079  0.47573237  0.91442539  1  -0.431608  0  -0.020581  -0.075772  0  4.019866  0
C  C75  1  0.40936892  0.02426814  0.41441506  1  -0.431225  0  -0.020595  -0.075613  0  4.019918  0
C  C76  1  0.81224700  0.42340265  0.08297718  1  0.061036  0  0.023848  0.178375  0  4.083965  0
C  C77  1  0.68775145  0.07659845  0.58296824  1  0.061375  0  0.023764  0.178256  0  4.084093  0
C  C78  1  0.18775275  0.57660004  0.91702719  1  0.061003  0  0.023792  0.17832  0  4.084069  0
C  C79  1  0.31224464  0.92339936  0.41701960  1  0.061043  0  0.023818  0.178254  0  4.084132  0
C  C80  1  0.82476210  0.32801143  0.11200655  1  0.045726  0  -0.07323  -0.171503  0  3.921366  0
C  C81  1  0.67524082  0.17199239  0.61200019  1  0.045328  0  -0.073162  -0.171297  0  3.921297  0
C  C82  1  0.17524045  0.67199209  0.88799713  1  0.045663  0  -0.073222  -0.171523  0  3.921356  0
C  C83  1  0.32475971  0.82800628  0.38799110  1  0.045781  0  -0.073185  -0.1715  0  3.92137  0
C  C84  1  0.72661661  0.23074652  0.10966849  1  0.481789  0  0.046437  0.09017  0  3.979024  0
C  C85  1  0.77338611  0.26925486  0.60966558  1  0.481922  0  0.046416  0.090109  0  3.979064  0
C  C86  1  0.27338609  0.76925540  0.89033450  1  0.481854  0  0.046426  0.090217  0  3.978953  0
C  C87  1  0.22661327  0.73074298  0.39032983  1  0.481756  0  0.046399  0.090138  0  3.979041  0
C  C88  1  0.60653791  0.31365765  0.05180286  1  0.5095  0  0.050299  0.099055  0  3.938041  0
C  C89  1  0.89346596  0.18634485  0.55180381  1  0.509402  0  0.050272  0.099045  0  3.938135  0
C  C90  1  0.39346363  0.68634344  0.94819945  1  0.509468  0  0.050301  0.099084  0  3.937936  0
C  C91  1  0.10653723  0.81365626  0.44819504  1  0.50903  0  0.050286  0.099068  0  3.938018  0
C  C92  1  0.69945189  0.41461899  0.05221705  1  -0.002783  0  -0.073077  -0.158198  0  3.872243  0
C  C93  1  0.80055067  0.08538431  0.55221247  1  -0.00291  0  -0.072996  -0.158197  0  3.872203  0
C  C94  1  0.30054801  0.58538209  0.94778595  1  -0.002684  0  -0.07302  -0.158208  0  3.872133  0
C  C95  1  0.19945136  0.91461599  0.44778157  1  -0.002774  0  -0.073099  -0.158246  0  3.872285  0
C  C96  1  0.59394285  0.94273835  0.14539569  1  1.534964  0  0.194707  0.55679  0  4.251856  0
C  C97  1  0.90605313  0.55725893  0.64539457  1  1.535068  0  0.194716  0.556875  0  4.252005  0
C  C98  1  0.40605257  0.05725783  0.85460799  1  1.535134  0  0.194627  0.556641  0  4.252158  0
C  C99  1  0.09394229  0.44273725  0.35460429  1  1.534986  0  0.194714  0.556786  0  4.251955  0
C  C100  1  0.66118745  0.88023505  0.18615783  1  -0.021309  0  -0.018337  -0.019537  0  3.972775  0
C  C101  1  0.83880762  0.61976177  0.68615764  1  -0.02127  0  -0.018369  -0.019552  0  3.972441  0
C  C102  1  0.33880879  0.11976114  0.81384517  1  -0.021415  0  -0.018341  -0.01951  0  3.972656  0
C  C103  1  0.16119243  0.38023770  0.31384329  1  -0.021294  0  -0.018376  -0.019644  0  3.972606  0
C  C104  1  0.68035258  0.88579500  0.28145593  1  0.059876  0  -0.083957  -0.162218  0  3.971655  0
C  C105  1  0.81964007  0.61419939  0.78145706  1  0.05987  0  -0.083946  -0.162257  0  3.971465  0
C  C106  1  0.31964497  0.11420040  0.71854568  1  0.05996  0  -0.084029  -0.162411  0  3.971543  0
C  C107  1  0.18035882  0.38579925  0.21854387  1  0.059855  0  -0.084013  -0.162218  0  3.971498  0
C  C108  1  0.74307036  0.82934995  0.31987348  1  0.120181  0  0.079638  0.049982  0  3.96564  0
C  C109  1  0.75691857  0.67064312  0.81987551  1  0.119973  0  0.079654  0.050018  0  3.965654  0
C  C110  1  0.25692820  0.17064788  0.68012744  1  0.120223  0  0.079632  0.049979  0  3.965601  0
C  C111  1  0.24307670  0.32935468  0.18012473  1  0.120116  0  0.079618  0.049866  0  3.965665  0
C  C112  1  0.78576641  0.76414281  0.26803260  1  0.041742  0  -0.001382  -0.046437  0  3.92214  0
C  C113  1  0.71422485  0.73585226  0.76803423  1  0.04234  0  -0.001452  -0.046644  0  3.922298  0
C  C114  1  0.21423480  0.23585747  0.73196901  1  0.041746  0  -0.001337  -0.04635  0  3.922097  0
C  C115  1  0.28577355  0.26414719  0.23196601  1  0.042169  0  -0.001394  -0.046336  0  3.922114  0
C  C116  1  0.76510422  0.75915402  0.17295140  1  -0.025691  0  -0.075918  -0.07712  0  3.926439  0
C  C117  1  0.73489341  0.74084513  0.67295446  1  -0.025947  0  -0.075871  -0.076939  0  3.926331  0
C  C118  1  0.23489848  0.24084789  0.82705022  1  -0.025705  0  -0.075921  -0.077094  0  3.926407  0
C  C119  1  0.26511194  0.25915923  0.32704715  1  -0.026099  0  -0.075938  -0.077156  0  3.926339  0
C  C120  1  0.70430203  0.81681956  0.13197855  1  -0.015423  0  -0.077343  -0.085296  0  3.913879  0
C  C121  1  0.79569554  0.68318165  0.63198139  1  -0.015557  0  -0.077418  -0.085474  0  3.913941  0
C  C122  1  0.29569835  0.18318071  0.86802307  1  -0.015555  0  -0.077359  -0.085381  0  3.913896  0
C  C123  1  0.20430865  0.31682189  0.36802091  1  -0.015095  0  -0.077329  -0.085274  0  3.913811  0
C  C124  1  0.84386361  0.69600969  0.31281531  1  1.59451  0  0.186973  0.55462  0  4.26553  0
C  C125  1  0.65612807  0.80398416  0.81281653  1  1.594497  0  0.187037  0.554877  0  4.265002  0
C  C126  1  0.15613576  0.30398815  0.68718562  1  1.594558  0  0.186949  0.554572  0  4.265704  0
C  C127  1  0.34386653  0.19601202  0.18718440  1  1.594495  0  0.187033  0.554724  0  4.265464  0
N  N128  1  0.28574485  0.90899245  0.10992616  1  -1.199827  0  -0.329151  -0.23412  0  3.509694  0
N  N129  1  0.21425928  0.59100920  0.60992630  1  -1.200015  0  -0.329148  -0.234053  0  3.509525  0
N  N130  1  0.71425471  0.09100782  0.89007752  1  -1.199628  0  -0.329117  -0.23402  0  3.509595  0
N  N131  1  0.78574488  0.40899031  0.39007188  1  -1.199828  0  -0.329171  -0.234157  0  3.50958  0
N  N132  1  0.61931103  0.22306537  0.08024833  1  -1.22452  0  -0.327304  -0.233187  0  3.510109  0
N  N133  1  0.88069432  0.27693659  0.58025046  1  -1.224681  0  -0.327347  -0.23322  0  3.510156  0
N  N134  1  0.38069216  0.77693574  0.91975466  1  -1.2246  0  -0.327346  -0.233277  0  3.510097  0
N  N135  1  0.11930853  0.72306372  0.41974909  1  -1.224253  0  -0.327324  -0.233223  0  3.510186  0
N  N136  1  0.76719821  0.84434675  0.41909856  1  0.375959  0  0.060975  0.527659  0  4.215544  0
N  N137  1  0.73279576  0.65564804  0.91909978  1  0.375733  0  0.061114  0.527716  0  4.215974  0
N  N138  1  0.23280117  0.15565109  0.58090305  1  0.375933  0  0.060996  0.527674  0  4.2156  0
N  N139  1  0.26720280  0.34434979  0.08090046  1  0.375907  0  0.061108  0.527735  0  4.215898  0
O  O140  1  0.55636648  0.99555173  0.20204899  1  -1.159509  0  -0.33226  -0.562311  0  2.227657  0
O  O141  1  0.94362951  0.50444523  0.70204627  1  -1.159522  0  -0.332255  -0.562334  0  2.227783  0
O  O142  1  0.44362663  0.00444281  0.79795538  1  -1.159511  0  -0.332201  -0.562213  0  2.227788  0
O  O143  1  0.05636789  0.49555178  0.29795190  1  -1.159438  0  -0.33226  -0.562281  0  2.227734  0
O  O144  1  0.57653332  0.94065152  0.05927974  1  -1.178443  0  -0.333945  -0.58848  0  2.314199  0
O  O145  1  0.92346229  0.55934340  0.55927866  1  -1.17851  0  -0.333993  -0.588538  0  2.314144  0
O  O146  1  0.42346393  0.05934710  0.94072394  1  -1.178612  0  -0.333916  -0.588391  0  2.314207  0
O  O147  1  0.07653048  0.44065034  0.44072088  1  -1.178512  0  -0.333923  -0.588453  0  2.314146  0
O  O148  1  0.68022685  0.81590425  0.47135161  1  -0.467084  0  -0.1119  -0.333718  0  2.004048  0
O  O149  1  0.81976989  0.68409103  0.97134899  1  -0.466919  0  -0.111957  -0.333754  0  2.004368  0
O  O150  1  0.31977234  0.18409117  0.52865001  1  -0.467013  0  -0.111934  -0.333776  0  2.00415  0
O  O151  1  0.18022964  0.31590520  0.02864918  1  -0.466974  0  -0.111975  -0.333796  0  2.004354  0
O  O152  1  0.87184166  0.89111738  0.44395564  1  -0.445232  0  -0.119844  -0.325319  0  1.928367  0
O  O153  1  0.62815347  0.60888006  0.94395918  1  -0.445248  0  -0.119879  -0.325301  0  1.928385  0
O  O154  1  0.12815723  0.10888127  0.55604597  1  -0.445254  0  -0.119807  -0.325245  0  1.928336  0
O  O155  1  0.37184576  0.39111939  0.05604243  1  -0.445327  0  -0.119853  -0.325265  0  1.928331  0
O  O156  1  0.81439594  0.66485105  0.39556399  1  -1.170693  0  -0.337798  -0.579323  0  2.195925  0
O  O157  1  0.68559541  0.83514351  0.89556681  1  -1.170678  0  -0.337843  -0.579426  0  2.195745  0
O  O158  1  0.18559929  0.33514271  0.60443556  1  -1.170719  0  -0.3378  -0.579329  0  2.195975  0
O  O159  1  0.31439952  0.16485348  0.10443411  1  -1.170709  0  -0.337792  -0.579356  0  2.195974  0
O  O160  1  0.91717425  0.67166033  0.26581662  1  -1.153964  0  -0.322165  -0.538976  0  2.200185  0
O  O161  1  0.58281599  0.82833228  0.76581786  1  -1.154048  0  -0.322185  -0.539025  0  2.199862  0
O  O162  1  0.08282711  0.32833834  0.73418637  1  -1.153884  0  -0.322178  -0.538994  0  2.200213  0
O  O163  1  0.41717711  0.17166226  0.23418307  1  -1.153916  0  -0.322192  -0.539016  0  2.200156  0
