# generated using pymatgen
data_CuH17C19N5O6
_symmetry_space_group_name_H-M   'P 1'
_cell_length_a   8.11993539
_cell_length_b   11.09886471
_cell_length_c   11.56070739
_cell_angle_alpha   75.87731812
_cell_angle_beta   71.16002961
_cell_angle_gamma   76.01986246
_symmetry_Int_Tables_number   1
_chemical_formula_structural   CuH17C19N5O6
_chemical_formula_sum   'Cu2 H34 C38 N10 O12'
_cell_volume   941.09071212
_cell_formula_units_Z   2
loop_
 _symmetry_equiv_pos_site_id
 _symmetry_equiv_pos_as_xyz
  1  'x, y, z'
loop_
 _atom_site_type_symbol
 _atom_site_label
 _atom_site_symmetry_multiplicity
 _atom_site_fract_x
 _atom_site_fract_y
 _atom_site_fract_z
 _atom_site_occupancy
 _atom_site_hle17_ddec_charge
 _atom_site_hle17_ddec_spin_density
 _atom_site_hle17_ddec_sum_bond_order
 _atom_site_hle17_magmom
 _atom_site_hse06_10hf_ddec_charge
 _atom_site_hse06_10hf_ddec_spin_density
 _atom_site_hse06_10hf_ddec_sum_bond_order
 _atom_site_hse06_10hf_magmom
 _atom_site_hse06_ddec_charge
 _atom_site_hse06_ddec_spin_density
 _atom_site_hse06_ddec_sum_bond_order
 _atom_site_hse06_magmom
 _atom_site_pbe_cm5_charge
 _atom_site_pbe_ddec_charge
 _atom_site_pbe_ddec_spin_density
 _atom_site_pbe_ddec_sum_bond_order
 _atom_site_pbe_magmom
Cu  Cu0  1  0.25526834  0.20002359  0.29270319  1  0.8336  -0.69708  1.800787  -0.516  0.80715  -0.780481  2.183741  -0.629  0.897642  -0.846813  2.117235  -0.716  0.726892  0.752889  -0.734577  2.22974  -0.573
Cu  Cu1  1  0.74472142  0.79998434  0.70729550  1  0.833612  -0.697099  1.800816  -0.516  0.807171  -0.780527  2.183793  -0.629  0.897632  -0.846827  2.117261  -0.716  0.726872  0.752883  -0.734577  2.229743  -0.573
H  H2  1  0.19306301  0.15012916  0.68276387  1  0.127953  2.6e-05  0.961779  0.0  0.136496  2.5e-05  1.020481  0.0  0.13978  1.4e-05  1.018983  0.0  0.109155  0.13405  3.5e-05  1.021673  0.0
H  H3  1  0.80694907  0.84986167  0.31723711  1  0.12794  2.7e-05  0.961748  0.0  0.136487  2.5e-05  1.020459  0.0  0.139772  1.4e-05  1.01896  0.0  0.109142  0.134039  3.5e-05  1.021661  0.0
H  H4  1  0.91623260  0.30863145  0.73329989  1  0.086767  3e-06  0.975397  0.0  0.08988  -9e-06  1.05088  0.0  0.093024  -7e-06  1.049255  0.0  0.095489  0.087596  -1.3e-05  1.052118  0.0
H  H5  1  0.08377984  0.69136318  0.26669321  1  0.086721  3e-06  0.975406  0.0  0.089829  -9e-06  1.050889  0.0  0.092973  -6e-06  1.049262  0.0  0.095459  0.087542  -1.3e-05  1.052138  0.0
H  H6  1  0.90618066  0.49279007  0.82391694  1  0.107114  0.0001  0.988381  0.0  0.114739  0.000147  1.055047  0.0  0.117899  0.000137  1.052772  0.0  0.101352  0.112272  0.000143  1.057022  0.0
H  H7  1  0.09383108  0.50720741  0.17607134  1  0.107137  0.000101  0.988583  0.0  0.114722  0.000147  1.055299  0.0  0.117892  0.000137  1.053013  0.0  0.101336  0.112253  0.000143  1.05728  0.0
H  H8  1  0.16872464  0.52406367  0.87093441  1  0.120162  5e-06  0.931426  0.0  0.131142  -6e-06  0.986062  0.0  0.134397  -6e-06  0.984643  0.0  0.112363  0.128758  -6e-06  0.987274  0.0
H  H9  1  0.83128650  0.47593097  0.12905899  1  0.120069  5e-06  0.931496  0.0  0.131123  -6e-06  0.98604  0.0  0.134381  -6e-06  0.984617  0.0  0.112356  0.128737  -6e-06  0.987256  0.0
H  H10  1  0.66409326  0.41884649  0.98757757  1  0.127012  0.000261  0.937556  0.0  0.137986  7.1e-05  0.996956  0.0  0.140588  8.2e-05  0.994455  0.0  0.123182  0.136097  6e-05  0.998878  0.0
H  H11  1  0.33591249  0.58114908  0.01242464  1  0.127052  0.000261  0.937551  0.0  0.137995  7.2e-05  0.996987  0.0  0.140599  8.2e-05  0.994485  0.0  0.123174  0.136099  6e-05  0.998917  0.0
H  H12  1  0.71171353  0.26650491  0.94384875  1  0.089641  0.000367  0.952995  0.0  0.093418  5.4e-05  1.029455  0.0  0.095413  4.7e-05  1.027961  0.0  0.106808  0.092091  4.6e-05  1.030512  0.0
H  H13  1  0.28828422  0.73348599  0.05615464  1  0.089564  0.000369  0.953156  0.0  0.093358  5.5e-05  1.029602  0.0  0.095354  4.7e-05  1.028116  0.0  0.106781  0.092026  4.6e-05  1.030668  0.0
H  H14  1  0.40972959  0.03767055  0.10435236  1  0.080236  -0.000648  0.961203  -0.001  0.085848  -0.000603  1.030702  -0.001  0.08778  -0.00042  1.02898  -0.001  0.116572  0.084168  -0.00075  1.032293  -0.001
H  H15  1  0.59025133  0.96232036  0.89567045  1  0.080211  -0.000656  0.961278  -0.001  0.085738  -0.000603  1.030848  -0.001  0.087761  -0.00042  1.029022  -0.001  0.116548  0.084028  -0.00075  1.032462  -0.001
H  H16  1  0.31127917  0.94847508  0.96656702  1  0.107185  -0.00055  0.981385  0.0  0.116821  -0.00051  1.045067  0.0  0.120556  -0.00035  1.043202  0.0  0.106828  0.114031  -0.00065  1.046729  -0.001
H  H17  1  0.68870394  0.05149597  0.03346938  1  0.107108  -0.000547  0.981389  0.0  0.116738  -0.00051  1.045102  0.0  0.120473  -0.00035  1.043236  0.0  0.106808  0.113934  -0.00065  1.046778  -0.001
H  H18  1  0.77574735  0.12105764  0.14132628  1  0.118806  -0.000633  0.97128  0.0  0.127409  -0.0006  1.032628  0.0  0.131705  -0.000407  1.030431  0.0  0.108672  0.124251  -0.000772  1.034457  -0.001
H  H19  1  0.22424394  0.87894934  0.85867314  1  0.118812  -0.000635  0.971231  0.0  0.127459  -0.0006  1.032549  0.0  0.131746  -0.000407  1.03035  0.0  0.10875  0.124296  -0.000772  1.034389  -0.001
H  H20  1  0.90070698  0.20070930  0.27035097  1  0.085414  -0.000601  0.955829  -0.002  0.09362  -0.000515  1.019994  -0.001  0.095733  -0.000344  1.017733  -0.001  0.120033  0.091913  -0.000668  1.021825  -0.001
H  H21  1  0.09927968  0.79932226  0.72963260  1  0.085584  -0.000603  0.955731  -0.002  0.093682  -0.000515  1.019977  -0.001  0.095793  -0.000344  1.017716  -0.001  0.120079  0.091971  -0.000668  1.021815  -0.001
H  H22  1  0.10080273  0.43496452  0.40152685  1  0.07907  -0.000755  0.953897  -0.002  0.087877  -0.000619  1.020042  -0.001  0.089367  -0.000411  1.018507  -0.001  0.117753  0.086573  -0.00079  1.021365  -0.002
H  H23  1  0.89919746  0.56504335  0.59847033  1  0.079182  -0.000755  0.953761  -0.002  0.08797  -0.000618  1.019921  -0.001  0.089468  -0.000411  1.01839  -0.001  0.117776  0.086663  -0.00079  1.021249  -0.002
H  H24  1  0.20236833  0.57461794  0.49157551  1  0.10867  -0.000558  0.96632  0.0  0.118746  -0.00053  1.029784  0.0  0.122273  -0.000377  1.028101  0.0  0.108649  0.116186  -0.000658  1.031094  -0.001
H  H25  1  0.79763254  0.42538709  0.50842303  1  0.108637  -0.000559  0.966374  0.0  0.118733  -0.000529  1.029775  0.0  0.122263  -0.000377  1.028087  0.0  0.108626  0.116157  -0.000658  1.031122  -0.001
H  H26  1  0.70679704  0.31788728  0.43783589  1  0.110553  -0.000708  0.977676  0.0  0.118992  -0.000634  1.0438  0.0  0.122893  -0.000432  1.041847  0.0  0.107561  0.116102  -0.000812  1.045455  -0.001
H  H27  1  0.29319856  0.68211783  0.56215433  1  0.110534  -0.000708  0.977677  0.0  0.118988  -0.000634  1.043783  0.0  0.122894  -0.000432  1.041823  0.0  0.107529  0.116094  -0.000812  1.045443  -0.001
H  H28  1  0.57746299  0.18774103  0.35525476  1  0.105161  -0.00101  0.931682  -0.002  0.115007  -0.000839  0.988144  -0.001  0.116811  -0.000604  0.986082  -0.001  0.127083  0.113366  -0.001022  0.989969  -0.002
H  H29  1  0.42253061  0.81226693  0.64473353  1  0.105185  -0.001015  0.931572  -0.002  0.114958  -0.000839  0.988128  -0.001  0.11676  -0.000604  0.986065  -0.001  0.127064  0.11332  -0.001021  0.989959  -0.002
H  H30  1  0.85884562  0.15977818  0.59019347  1  0.008637  -0.008524  0.937536  -0.011  0.012077  -0.005323  1.016174  -0.007  0.009763  -0.003469  1.012257  -0.004  0.10513  0.013811  -0.006914  1.018801  -0.008
H  H31  1  0.14116016  0.84021737  0.40981219  1  0.008678  -0.008524  0.937494  -0.011  0.012139  -0.005322  1.016098  -0.007  0.009829  -0.003469  1.012178  -0.004  0.105166  0.013872  -0.006914  1.01873  -0.008
H  H32  1  0.42716671  0.95065110  0.34790295  1  0.375222  8e-06  0.949555  0.0  0.33911  2.1e-05  1.024498  0.0  0.350477  2.9e-05  1.008216  0.0  0.272747  0.33144  3e-06  1.035444  0.0
H  H33  1  0.57284437  0.04935482  0.65209478  1  0.375292  8e-06  0.949476  0.0  0.339133  2.1e-05  1.024463  0.0  0.350498  2.9e-05  1.008184  0.0  0.27276  0.331467  3e-06  1.035402  0.0
H  H34  1  0.31189046  0.02202617  0.46150424  1  0.404435  1.7e-05  0.906697  0.0  0.374904  6.6e-05  0.970198  0.0  0.38669  0.000114  0.95297  0.0  0.27784  0.366765  -7e-06  0.982065  0.0
H  H35  1  0.68811431  0.97797885  0.53849168  1  0.404346  1.6e-05  0.906842  0.0  0.374812  6.6e-05  0.970348  0.0  0.386598  0.000114  0.95312  0.0  0.277793  0.366674  -7e-06  0.982213  0.0
C  C36  1  0.32864618  0.35578831  0.79902619  1  0.064174  4e-05  3.805844  0.0  0.049972  1.6e-05  4.058738  0.0  0.054085  1.9e-05  4.079764  0.0  0.103552  0.047371  -9e-06  4.04449  0.0
C  C37  1  0.67136087  0.64420726  0.20097398  1  0.064168  3.9e-05  3.80571  0.0  0.049827  1.3e-05  4.058806  0.0  0.053936  2.1e-05  4.079835  0.0  0.103536  0.047227  -9e-06  4.044537  0.0
C  C38  1  0.33701303  0.25098365  0.74664037  1  0.10319  9.6e-05  3.849687  0.0  0.104109  3.6e-05  4.099512  0.0  0.102991  2.9e-05  4.124114  0.0  0.090019  0.104684  3.2e-05  4.082921  0.0
C  C39  1  0.66299599  0.74900908  0.25336001  1  0.103299  9.6e-05  3.849477  0.0  0.104287  3.4e-05  4.099279  0.0  0.103181  2.9e-05  4.123867  0.0  0.090135  0.104869  3.2e-05  4.082659  0.0
C  C40  1  0.18783861  0.23079164  0.72279942  1  -0.115639  -0.000156  3.707623  0.0  -0.136116  1.1e-05  3.954732  0.0  -0.137315  1.3e-05  3.975806  0.0  -0.087078  -0.135006  -1.6e-05  3.940335  0.0
C  C41  1  0.81217302  0.76920108  0.27720036  1  -0.115624  -0.000148  3.707434  0.0  -0.136143  1e-05  3.954537  0.0  -0.137347  1.5e-05  3.975605  0.0  -0.087066  -0.135035  -1.6e-05  3.940134  0.0
C  C42  1  0.03540792  0.31982970  0.75087059  1  -0.084524  0.000162  3.762875  0.0  -0.099093  9e-05  4.021602  0.0  -0.103664  0.000102  4.045797  0.0  -0.099373  -0.095946  8.9e-05  4.005012  0.0
C  C43  1  0.96460454  0.68016492  0.24912511  1  -0.084312  0.000147  3.762826  0.0  -0.098842  9.1e-05  4.021517  0.0  -0.103412  9.9e-05  4.045716  0.0  -0.099297  -0.095696  8.9e-05  4.004925  0.0
C  C44  1  0.02909413  0.42535196  0.80227682  1  -0.064933  -0.000201  3.733717  0.0  -0.08325  -2e-05  3.98662  0.0  -0.08434  4e-06  4.008766  0.0  -0.090288  -0.082239  -7.4e-05  3.971531  0.0
C  C45  1  0.97091810  0.57464361  0.19771784  1  -0.065122  -0.000193  3.733963  0.0  -0.083434  -2e-05  3.98687  0.0  -0.084535  6e-06  4.009014  0.0  -0.090325  -0.082423  -7.4e-05  3.971776  0.0
C  C46  1  0.17451349  0.44534543  0.82840749  1  -0.111236  -2.2e-05  3.728032  0.0  -0.128154  5.5e-05  3.979794  0.0  -0.131369  7.1e-05  3.998691  0.0  -0.086003  -0.126003  4.4e-05  3.966942  0.0
C  C47  1  0.82549483  0.55465016  0.17158893  1  -0.111062  -3.3e-05  3.727833  0.0  -0.127982  5.5e-05  3.979602  0.0  -0.1312  6.8e-05  3.998505  0.0  -0.085949  -0.125831  4.4e-05  3.966736  0.0
C  C48  1  0.60967830  0.34975830  0.96340312  1  -0.10367  -0.008555  3.565919  -0.009  -0.162869  -0.005104  3.827681  -0.006  -0.160312  -0.003343  3.825705  -0.004  -0.070971  -0.164568  -0.006619  3.828886  -0.007
C  C49  1  0.39032093  0.65023732  0.03659884  1  -0.1036  -0.008556  3.56583  -0.009  -0.162838  -0.005107  3.8276  -0.006  -0.160293  -0.003343  3.825636  -0.004  -0.070962  -0.164535  -0.006621  3.828812  -0.007
C  C50  1  0.44678383  0.31583998  0.06746240  1  0.633003  0.008075  3.915305  0.008  0.585374  0.002808  4.235095  0.003  0.621062  0.003182  4.22828  0.003  0.187894  0.561349  0.002221  4.238717  0.003
C  C51  1  0.55322406  0.68415748  0.93253714  1  0.632801  0.008085  3.915351  0.008  0.585269  0.00281  4.23503  0.003  0.620949  0.003181  4.228223  0.003  0.187875  0.561254  0.002222  4.238644  0.003
C  C52  1  0.27080890  0.05407418  0.10801018  1  0.136882  0.009773  3.69545  0.006  0.105822  0.002478  3.954232  0.001  0.115169  0.003871  3.973041  0.002  0.045355  0.099745  0.001472  3.942236  0.001
C  C53  1  0.72917520  0.94591957  0.89200519  1  0.136787  0.009771  3.69552  0.006  0.105819  0.00248  3.954206  0.001  0.115098  0.003869  3.972985  0.002  0.045374  0.099768  0.001471  3.942212  0.001
C  C54  1  0.21358439  0.00456487  0.03160402  1  -0.156345  -0.007321  3.694724  -0.008  -0.176661  -0.00294  3.944505  -0.004  -0.184749  -0.00267  3.964397  -0.003  -0.081839  -0.171554  -0.003141  3.931561  -0.004
C  C55  1  0.78640115  0.99541755  0.96841797  1  -0.156135  -0.007311  3.694866  -0.008  -0.176508  -0.002941  3.944565  -0.004  -0.184608  -0.002669  3.964488  -0.003  -0.081851  -0.171387  -0.003141  3.931607  -0.004
C  C56  1  0.03276125  0.02627906  0.03971896  1  0.098331  0.009246  3.740048  0.006  0.110351  0.003775  3.967728  0.002  0.115194  0.004133  3.98881  0.002  0.015722  0.107018  0.003552  3.953764  0.002
C  C57  1  0.96722506  0.97371091  0.96029678  1  0.098195  0.00921  3.740033  0.006  0.110371  0.003775  3.967629  0.002  0.115226  0.004131  3.988706  0.002  0.015795  0.107012  0.003552  3.953686  0.002
C  C58  1  0.91839973  0.09931345  0.12734326  1  -0.147144  -0.00804  3.659284  -0.009  -0.161921  -0.003385  3.899076  -0.004  -0.169883  -0.002986  3.917227  -0.004  -0.075461  -0.156979  -0.003678  3.887357  -0.004
C  C59  1  0.08158682  0.90069164  0.87266114  1  -0.147118  -0.008013  3.659178  -0.009  -0.162058  -0.003385  3.898973  -0.004  -0.170013  -0.002985  3.917112  -0.004  -0.075605  -0.157107  -0.003679  3.887264  -0.004
C  C60  1  0.98621030  0.14562736  0.20044766  1  0.15128  0.009648  3.678861  0.006  0.121404  0.002258  3.933388  0.001  0.132547  0.003694  3.94883  0.002  0.055221  0.114063  0.001209  3.923711  0.0
C  C61  1  0.01377328  0.85439004  0.79954680  1  0.150937  0.009622  3.678889  0.006  0.121247  0.002259  3.933264  0.001  0.132393  0.003693  3.948693  0.002  0.055095  0.11391  0.001209  3.923584  0.0
C  C62  1  0.23397430  0.41314167  0.41189256  1  0.132685  0.010347  3.696349  0.007  0.102362  0.002268  3.956472  0.001  0.112449  0.003786  3.973965  0.002  0.049668  0.095819  0.001157  3.9453  0.0
C  C63  1  0.76602481  0.58686527  0.58810422  1  0.132652  0.01037  3.696272  0.007  0.102352  0.002268  3.956411  0.001  0.112426  0.003786  3.973914  0.002  0.049709  0.095813  0.001157  3.945229  0.0
C  C64  1  0.29285994  0.49067531  0.46215469  1  -0.148894  -0.008299  3.683656  -0.009  -0.170963  -0.003411  3.936009  -0.004  -0.178646  -0.003083  3.955801  -0.004  -0.07937  -0.166122  -0.003625  3.923102  -0.004
C  C65  1  0.70714069  0.50933068  0.53784109  1  -0.148831  -0.008308  3.683676  -0.009  -0.170898  -0.00341  3.935977  -0.004  -0.178579  -0.003083  3.955774  -0.004  -0.079332  -0.166048  -0.003625  3.923057  -0.004
C  C66  1  0.46589140  0.45993515  0.47357278  1  0.094665  0.010184  3.737073  0.006  0.103462  0.004061  3.973563  0.002  0.108338  0.004459  3.994104  0.003  0.011473  0.100116  0.003777  3.959965  0.002
C  C67  1  0.53411052  0.54007085  0.52642184  1  0.09483  0.010197  3.737063  0.006  0.103702  0.004058  3.973467  0.002  0.108578  0.004459  3.994008  0.003  0.011604  0.100317  0.003777  3.9599  0.002
C  C68  1  0.57100530  0.34925949  0.43262163  1  -0.153321  -0.008109  3.681411  -0.009  -0.174626  -0.003208  3.933673  -0.004  -0.182527  -0.002881  3.953308  -0.004  -0.08039  -0.169682  -0.003445  3.920993  -0.004
C  C69  1  0.42899270  0.65074653  0.56737129  1  -0.153336  -0.008123  3.681551  -0.009  -0.174662  -0.003207  3.933724  -0.004  -0.182568  -0.002881  3.953361  -0.004  -0.080336  -0.169707  -0.003445  3.921062  -0.004
C  C70  1  0.50212490  0.27593009  0.38451705  1  0.145555  0.01139  3.647213  0.007  0.118263  0.003128  3.896721  0.002  0.127931  0.004613  3.914457  0.003  0.054074  0.111844  0.002049  3.885596  0.001
C  C71  1  0.49786981  0.72407878  0.61547510  1  0.145514  0.01143  3.647223  0.007  0.118319  0.003129  3.896708  0.002  0.127986  0.004611  3.914447  0.003  0.054045  0.111895  0.002049  3.885591  0.001
C  C72  1  0.99539472  0.14313172  0.52755404  1  0.569244  0.010203  3.908987  0.01  0.504825  0.002367  4.228779  0.003  0.54227  0.002851  4.223231  0.003  0.137383  0.479491  0.001769  4.231496  0.003
C  C73  1  0.00460881  0.85686765  0.47244520  1  0.56931  0.010212  3.909058  0.01  0.504885  0.002368  4.22884  0.003  0.542329  0.002851  4.223288  0.003  0.137422  0.479551  0.001768  4.231563  0.003
N  N74  1  0.49747122  0.34048327  0.80613465  1  0.157405  -5.2e-05  3.540077  0.0  0.195884  2.3e-05  3.826958  0.0  0.192157  4.4e-05  3.842284  0.0  -0.034305  0.198075  -1.2e-05  3.816484  0.0
N  N75  1  0.50253581  0.65951231  0.19386467  1  0.157375  -4.8e-05  3.540276  0.0  0.195884  2.7e-05  3.82718  0.0  0.192151  4.6e-05  3.842516  0.0  -0.034352  0.198072  -1.2e-05  3.816706  0.0
N  N76  1  0.60303933  0.23829694  0.76181112  1  -0.117803  -0.000269  2.902229  0.0  -0.117596  -0.000351  3.198596  0.0  -0.113554  -0.000194  3.207881  0.0  -0.078945  -0.119882  -0.000532  3.192189  0.0
N  N77  1  0.39696947  0.76169674  0.23818996  1  -0.117729  -0.000275  2.902365  0.0  -0.117496  -0.000349  3.198689  0.0  -0.113453  -0.000197  3.207978  0.0  -0.078896  -0.119785  -0.000532  3.192282  0.0
N  N78  1  0.50659313  0.18279224  0.72667110  1  -0.232382  -0.000522  3.054227  -0.001  -0.198745  -0.000264  3.331212  0.0  -0.2068  -0.000147  3.34402  0.0  -0.182899  -0.193098  -0.000394  3.322482  0.0
N  N79  1  0.49341851  0.81720047  0.27333041  1  -0.232635  -0.000519  3.054309  0.0  -0.199026  -0.000264  3.331318  0.0  -0.207083  -0.000148  3.344114  0.0  -0.183076  -0.193377  -0.000394  3.322584  0.0
N  N80  1  0.15989063  0.12434121  0.19123276  1  -0.288366  -0.069205  3.317874  -0.089  -0.23955  -0.047615  3.609554  -0.065  -0.269078  -0.038516  3.628834  -0.057  -0.340852  -0.222414  -0.052889  3.598926  -0.069
N  N81  1  0.84009457  0.87566955  0.80876978  1  -0.28818  -0.069183  3.317842  -0.089  -0.239359  -0.047612  3.609331  -0.065  -0.268878  -0.038512  3.628622  -0.057  -0.340693  -0.222218  -0.052888  3.598676  -0.069
N  N82  1  0.33624294  0.30756499  0.37351827  1  -0.276561  -0.074956  3.310648  -0.096  -0.227385  -0.051287  3.597856  -0.07  -0.257269  -0.04141  3.619222  -0.061  -0.341222  -0.209994  -0.056937  3.585739  -0.074
N  N83  1  0.66375179  0.69244387  0.62647647  1  -0.276623  -0.074974  3.310748  -0.096  -0.227524  -0.051286  3.598017  -0.07  -0.2574  -0.041409  3.619373  -0.061  -0.341286  -0.210123  -0.056937  3.585878  -0.074
O  O84  1  0.56551775  0.41693794  0.84904776  1  -0.168665  -0.002506  2.148782  -0.003  -0.118159  -0.001401  2.383612  -0.002  -0.128922  -0.000811  2.386304  -0.001  -0.075415  -0.110411  -0.00204  2.381624  -0.003
O  O85  1  0.43448799  0.58305763  0.15095358  1  -0.16868  -0.00251  2.148707  -0.003  -0.11815  -0.001402  2.383516  -0.002  -0.128906  -0.000811  2.386212  -0.001  -0.075398  -0.110398  -0.002041  2.381526  -0.003
O  O86  1  0.48084141  0.21796234  0.14895421  1  -0.600703  -0.087603  2.040941  -0.119  -0.569396  -0.05646  2.315644  -0.084  -0.61313  -0.042211  2.311183  -0.068  -0.322338  -0.540033  -0.065744  2.318301  -0.093
O  O87  1  0.51914905  0.78204274  0.85104844  1  -0.600585  -0.087621  2.04056  -0.119  -0.569375  -0.056464  2.315276  -0.084  -0.6131  -0.042216  2.310802  -0.068  -0.322296  -0.54  -0.065751  2.317904  -0.093
O  O88  1  0.29857080  0.38200387  0.06945456  1  -0.599701  -0.000252  1.974481  -0.003  -0.570352  0.000462  2.220431  -0.002  -0.595008  0.00166  2.211361  0.0  -0.313129  -0.553126  -0.000755  2.226299  -0.003
O  O89  1  0.70142245  0.61800028  0.93054075  1  -0.599558  -0.000256  1.974848  -0.003  -0.570242  0.000464  2.220758  -0.002  -0.594889  0.001661  2.211682  0.0  -0.313105  -0.553014  -0.000752  2.226615  -0.003
O  O90  1  0.40955810  0.02770441  0.38284571  1  -0.83761  0.001985  1.923045  0.001  -0.791874  0.001279  2.114113  0.0  -0.81297  0.001707  2.077132  0.0  -0.610791  -0.776841  0.000792  2.139352  0.0
O  O91  1  0.59044860  0.97230343  0.61714912  1  -0.837666  0.001987  1.923085  0.001  -0.791841  0.001278  2.114197  0.0  -0.812931  0.001708  2.077214  0.0  -0.610772  -0.776803  0.000793  2.139411  0.0
O  O92  1  0.01753234  0.21879565  0.42143177  1  -0.589744  -0.093402  2.090933  -0.129  -0.564842  -0.05892  2.388842  -0.09  -0.60804  -0.043547  2.379606  -0.072  -0.335601  -0.53606  -0.069153  2.394945  -0.099
O  O93  1  0.98246357  0.78120845  0.57857158  1  -0.589811  -0.093397  2.091053  -0.129  -0.564877  -0.058914  2.388936  -0.09  -0.60808  -0.043545  2.379717  -0.072  -0.3356  -0.536085  -0.069152  2.395026  -0.099
O  O94  1  0.10752388  0.05803366  0.56599611  1  -0.564827  -0.001392  2.014472  -0.003  -0.511569  -0.000448  2.238355  -0.002  -0.539482  0.000786  2.23183  0.0  -0.308269  -0.49202  -0.001748  2.242096  -0.004
O  O95  1  0.89248356  0.94196007  0.43399575  1  -0.564909  -0.001392  2.014573  -0.003  -0.511675  -0.000447  2.238481  -0.002  -0.539583  0.000786  2.231952  0.0  -0.308341  -0.492128  -0.001747  2.24224  -0.004
