# generated using pymatgen
data_Zn2H11C38N8O5F6
_symmetry_space_group_name_H-M   'P 1'
_cell_length_a   19.59672362
_cell_length_b   19.75872866
_cell_length_c   19.64592222
_cell_angle_alpha   112.60038032
_cell_angle_beta   116.17601761
_cell_angle_gamma   97.01048123
_symmetry_Int_Tables_number   1
_chemical_formula_structural   Zn2H11C38N8O5F6
_chemical_formula_sum   'Zn4 H22 C76 N16 O10 F12'
_cell_volume   5899.43471585
_cell_formula_units_Z   2
loop_
 _symmetry_equiv_pos_site_id
 _symmetry_equiv_pos_as_xyz
  1  'x, y, z'
loop_
 _atom_site_type_symbol
 _atom_site_label
 _atom_site_symmetry_multiplicity
 _atom_site_fract_x
 _atom_site_fract_y
 _atom_site_fract_z
 _atom_site_occupancy
 _atom_site_pbe_bader_charge
 _atom_site_pbe_bader_spin_density
 _atom_site_pbe_cm5_charge
 _atom_site_pbe_ddec_charge
 _atom_site_pbe_ddec_spin_density
 _atom_site_pbe_ddec_sum_bond_order
 _atom_site_pbe_magmom
Zn  Zn0  1  0.37152309  0.49951813  0.36984367  1  1.241293  0  0.729195  0.632922  0  2.516268  0
Zn  Zn1  1  0.62312240  0.49248623  0.61849002  1  1.242455  0  0.726406  0.654867  0  2.378198  0
Zn  Zn2  1  0.49870913  0.38339810  0.39749301  1  1.204771  0  0.754127  0.644167  0  2.454735  0
Zn  Zn3  1  0.49282112  0.60147214  0.59056544  1  1.208712  0  0.75742  0.665679  0  2.400145  0
H  H4  1  0.96270332  0.12593687  0.02912793  1  0.132367  0  0.125797  0.155845  0  0.959312  0
H  H5  1  0.00499020  0.86959218  0.95503820  1  0.126737  0  0.124732  0.154036  0  0.961969  0
H  H6  1  0.64592184  0.52477030  0.81255368  1  0.118693  0  0.128155  0.120785  0  0.974109  0
H  H7  1  0.48061464  0.62174407  0.35686707  1  0.094819  0  0.130181  0.123289  0  0.975383  0
H  H8  1  0.40277891  0.49672111  0.63544457  1  0.119544  0  0.126673  0.121366  0  0.995892  0
H  H9  1  0.62644287  0.30994782  0.34592089  1  0.13923  0  0.13279  0.126962  0  0.97097  0
H  H10  1  0.54420746  0.37643224  0.66708950  1  0.089572  0  0.130012  0.121355  0  0.976531  0
H  H11  1  0.29942875  0.64063171  0.34672281  1  0.105285  0  0.133297  0.128506  0  0.968094  0
H  H12  1  0.23237317  0.37587333  0.35611932  1  0.103689  0  0.121722  0.109504  0  1.000323  0
H  H13  1  0.78860185  0.47521773  0.62162098  1  0.114904  0  0.122093  0.117172  0  1.000158  0
H  H14  1  0.50689168  0.67715280  0.78174111  1  0.104128  0  0.129967  0.125105  0  0.978506  0
H  H15  1  0.62549602  0.47299513  0.37850327  1  0.131473  0  0.123346  0.114401  0  1.007469  0
H  H16  1  0.15366314  0.35661538  0.16240513  1  0.115996  0  0.13006  0.081628  0  0.930717  0
H  H17  1  0.83655486  0.65612735  0.80573419  1  0.094838  0  0.129643  0.081639  0  0.931586  0
H  H18  1  0.93520069  0.36388754  0.28821854  1  0.077352  0  0.110037  0.047503  0  0.943478  0
H  H19  1  0.09339462  0.39783605  0.69918862  1  0.068969  0  0.110073  0.049041  0  0.94516  0
H  H20  1  0.71573776  0.54211746  0.25221016  1  0.081354  0  0.099509  0.037947  0  0.973976  0
H  H21  1  0.49841932  0.69377275  0.99438753  1  0.066937  0  0.100186  0.039364  0  0.974343  0
H  H22  1  0.24252081  0.82087581  0.34676202  1  0.057033  0  0.099506  0.040046  0  0.974355  0
H  H23  1  0.45119234  0.20555424  0.68778264  1  0.072992  0  0.099914  0.040172  0  0.972454  0
H  H24  1  0.01612552  0.18559726  0.37453295  1  0.081755  0  0.118479  0.058605  0  0.929358  0
H  H25  1  0.99941246  0.54768686  0.59689918  1  0.071238  0  0.112342  0.04975  0  0.934049  0
C  C26  1  0.27036498  0.33910839  0.22067590  1  0.500208  0  0.07699  0.0341  0  4.074206  0
C  C27  1  0.72529624  0.65022130  0.70094008  1  0.417374  0  0.07812  0.039961  0  4.047512  0
C  C28  1  0.57822508  0.60771884  0.83199169  1  0.071529  0  -0.028572  0.031437  0  4.211251  0
C  C29  1  0.57128801  0.56197267  0.35426774  1  0.069436  0  -0.025707  0.036416  0  4.176698  0
C  C30  1  0.43690733  0.28999562  0.53221156  1  0.185518  0  -0.030762  -0.079377  0  4.205568  0
C  C31  1  0.36980396  0.73380631  0.48861774  1  0.151938  0  -0.032143  -0.080945  0  4.213088  0
C  C32  1  0.29177644  0.41977618  0.49997024  1  0.062675  0  -0.024683  0.032124  0  4.179554  0
C  C33  1  0.73735637  0.38826909  0.48088687  1  0.091037  0  -0.029391  0.02584  0  4.210954  0
C  C34  1  0.98327042  0.31140978  0.49709219  1  0.65107  0  0.126885  0.233863  0  3.709568  0
C  C35  1  0.04503922  0.42860915  0.48248104  1  0.621445  0  0.125691  0.237994  0  3.708326  0
C  C36  1  0.00270539  0.30073165  0.42536011  1  -0.041926  0  0.004729  -0.064119  0  3.636425  0
C  C37  1  0.02565631  0.43914782  0.55463193  1  -0.031526  0  -0.000489  -0.074553  0  3.662373  0
C  C38  1  0.22681476  0.39234045  0.50688063  1  4.3e-05  0  -0.030018  -0.044275  0  4.131318  0
C  C39  1  0.80534209  0.37905607  0.47632592  1  -0.480465  0  -0.034438  -0.053862  0  4.163732  0
C  C40  1  0.06761839  0.37957469  0.57117919  1  -0.032839  0  -0.001991  -0.067672  0  3.661859  0
C  C41  1  0.96176026  0.36139777  0.40901108  1  -0.043163  0  -0.001897  -0.072427  0  3.656401  0
C  C42  1  0.08985562  0.37056278  0.50098698  1  0.107016  0  0.022737  0.068757  0  3.790663  0
C  C43  1  0.93931131  0.37007421  0.47952919  1  0.078373  0  0.018923  0.064103  0  3.8093  0
C  C44  1  0.16488051  0.37477675  0.50684314  1  -0.280736  0  -0.063936  -0.135949  0  4.123505  0
C  C45  1  0.86573242  0.37322522  0.47433344  1  0.210959  0  -0.065402  -0.135268  0  4.151512  0
C  C46  1  0.66231370  0.58302594  0.15938929  1  0.070291  0  -0.016876  -0.116951  0  3.963031  0
C  C47  1  0.55767501  0.65981185  0.09261271  1  0.052037  0  -0.015444  -0.113843  0  3.958963  0
C  C48  1  0.61044942  0.55839773  0.79059094  1  0.459545  0  0.022196  -0.039314  0  3.955144  0
C  C49  1  0.50881073  0.57969981  0.36715694  1  0.499498  0  0.02771  -0.026027  0  3.915852  0
C  C50  1  0.61827153  0.61336011  0.19816320  1  0.14197  0  0.001025  0.021633  0  4.114649  0
C  C51  1  0.59939798  0.62695732  0.05194494  1  0.11505  0  0.001123  0.021138  0  4.126291  0
C  C52  1  0.56878715  0.65252337  0.16441651  1  0.463659  0  0.120435  0.229175  0  3.988228  0
C  C53  1  0.65153591  0.59069735  0.08786901  1  0.478416  0  0.120848  0.229593  0  3.9871  0
C  C54  1  0.61711197  0.60153742  0.26407458  1  0.0321  0  -0.05454  -0.123747  0  4.175429  0
C  C55  1  0.58957433  0.62717529  0.97665188  1  0.208595  0  -0.054609  -0.122722  0  4.188406  0
C  C56  1  0.58383701  0.62072979  0.90978393  1  -0.481045  0  -0.031433  -0.056792  0  4.138234  0
C  C57  1  0.60149839  0.58673716  0.31170754  1  -0.322198  0  -0.031352  -0.057386  0  4.1219  0
C  C58  1  0.30599947  0.02365467  0.44591968  1  0.492045  0  0.120036  0.227433  0  3.991212  0
C  C59  1  0.39212109  0.00317445  0.58734299  1  0.501002  0  0.120297  0.228065  0  3.992018  0
C  C60  1  0.36065570  0.09055976  0.52790772  1  0.124649  0  0.00159  0.018616  0  4.113071  0
C  C61  1  0.34197836  0.93625633  0.50428759  1  0.136674  0  0.002029  0.019526  0  4.119916  0
C  C62  1  0.40254075  0.07954022  0.60130809  1  0.073358  0  -0.015798  -0.114498  0  3.956349  0
C  C63  1  0.29546062  0.94717814  0.43191526  1  0.052534  0  -0.016439  -0.114374  0  3.95568  0
C  C64  1  0.37841779  0.16475803  0.53394576  1  -0.360331  0  -0.045509  -0.110227  0  4.149415  0
C  C65  1  0.34321885  0.86234325  0.49567417  1  0.014378  0  -0.048756  -0.116403  0  4.168091  0
C  C66  1  0.35406987  0.80197493  0.49287581  1  -0.298747  0  -0.030471  -0.033475  0  4.142142  0
C  C67  1  0.40240025  0.22525713  0.53463267  1  0.060464  0  -0.030958  -0.035388  0  4.126244  0
C  C68  1  0.90699173  0.00094323  0.95517759  1  0.519445  0  0.108454  0.245492  0  4.045271  0
C  C69  1  0.06061608  0.99447255  0.02933642  1  0.440163  0  0.10832  0.243939  0  4.043775  0
C  C70  1  0.41671674  0.29745182  0.45788895  1  1.06924  0  0.217817  0.340701  0  4.064267  0
C  C71  1  0.42214620  0.72287660  0.55738348  1  1.089565  0  0.216182  0.339424  0  4.09031  0
C  C72  1  0.91577975  0.92690087  0.92941200  1  0.073456  0  -0.002486  0.050536  0  4.140965  0
C  C73  1  0.05221625  0.06859596  0.04968387  1  0.161136  0  -0.000399  0.055898  0  4.131366  0
C  C74  1  0.99508011  0.92519410  0.97092265  1  0.076881  0  -0.083177  -0.228505  0  3.949097  0
C  C75  1  0.97257648  0.07031168  0.01327718  1  0.049413  0  -0.082852  -0.228757  0  3.943045  0
C  C76  1  0.84910552  0.85798577  0.86078250  1  0.092345  0  -0.028354  -0.065618  0  4.10853  0
C  C77  1  0.12136933  0.13675965  0.09997113  1  0.06178  0  -0.02867  -0.066376  0  4.103233  0
C  C78  1  0.18277579  0.19358662  0.13882614  1  -0.339249  0  -0.041137  -0.067534  0  4.160922  0
C  C79  1  0.79360466  0.79846692  0.79671425  1  -0.370077  0  -0.040581  -0.069082  0  4.157951  0
C  C80  1  0.37135286  0.47323475  0.56547787  1  0.484052  0  0.023869  -0.030071  0  3.902685  0
C  C81  1  0.65451409  0.35239079  0.41426067  1  0.448772  0  0.0247  -0.041044  0  3.94525  0
C  C82  1  0.50757945  0.35703548  0.59801864  1  0.50562  0  0.031923  -0.010849  0  3.935209  0
C  C83  1  0.34187370  0.65995010  0.41491719  1  0.495537  0  0.032494  -0.016433  0  3.940709  0
C  C84  1  0.28436884  0.41165107  0.42224504  1  0.453575  0  0.024458  -0.025958  0  3.934298  0
C  C85  1  0.73742808  0.43753806  0.55536828  1  0.444937  0  0.019605  -0.036519  0  3.948595  0
C  C86  1  0.53963194  0.63684763  0.77570215  1  0.432423  0  0.018464  -0.054196  0  3.95808  0
C  C87  1  0.58291825  0.50346409  0.37800369  1  0.443808  0  0.023386  -0.03013  0  3.909122  0
C  C88  1  0.33463815  0.25635765  0.22992109  1  1.065014  0  0.219306  0.33197  0  4.064326  0
C  C89  1  0.65273336  0.71952486  0.66166828  1  1.075445  0  0.216906  0.324332  0  4.045395  0
C  C90  1  0.25533371  0.25702314  0.18863586  1  0.167616  0  -0.011912  -0.071296  0  4.158165  0
C  C91  1  0.73032649  0.72955247  0.72515078  1  0.140063  0  -0.009535  -0.062326  0  4.152471  0
C  C92  1  0.21943203  0.38559734  0.21162229  1  0.803468  0  0.108266  0.249147  0  3.923234  0
C  C93  1  0.77550080  0.61733731  0.74777021  1  0.87239  0  0.107302  0.248288  0  3.916805  0
C  C94  1  0.90543629  0.34858609  0.31991900  1  1.009641  0  0.108872  0.296037  0  3.950551  0
C  C95  1  0.12030116  0.38716580  0.65820376  1  0.994057  0  0.107038  0.295158  0  3.956437  0
C  C96  1  0.71674331  0.54426592  0.19669536  1  0.965732  0  0.097853  0.294414  0  3.960107  0
C  C97  1  0.50270625  0.69787494  0.05451166  1  0.980801  0  0.099028  0.293936  0  3.95655  0
C  C98  1  0.23952591  0.87639912  0.34531513  1  0.979182  0  0.09705  0.2907  0  3.960548  0
C  C99  1  0.45595362  0.15016033  0.68865412  1  0.958737  0  0.097331  0.289583  0  3.963588  0
C  C100  1  0.99457623  0.22873331  0.35532120  1  0.967797  0  0.113065  0.293307  0  3.942144  0
C  C101  1  0.03558663  0.51418673  0.62226237  1  0.971104  0  0.111174  0.297126  0  3.956734  0
N  N102  1  0.35097138  0.38003883  0.27624267  1  -0.699897  0  -0.239564  -0.187362  0  3.447681  0
N  N103  1  0.65103045  0.60092691  0.62899263  1  -0.702081  0  -0.248722  -0.175443  0  3.541445  0
N  N104  1  0.59212985  0.55788928  0.71631107  1  -0.766704  0  -0.25424  -0.197118  0  3.486285  0
N  N105  1  0.48431146  0.53371485  0.39351234  1  -0.81818  0  -0.277787  -0.196487  0  3.638912  0
N  N106  1  0.47007405  0.36021304  0.47560290  1  -0.803045  0  -0.27786  -0.287863  0  3.550954  0
N  N107  1  0.42593595  0.65125361  0.52870045  1  -0.818609  0  -0.282005  -0.29288  0  3.562904  0
N  N108  1  0.40681169  0.49587206  0.52870341  1  -0.814104  0  -0.277937  -0.193147  0  3.599828  0
N  N109  1  0.60997041  0.37862419  0.44743246  1  -0.809578  0  -0.279378  -0.181622  0  3.601887  0
N  N110  1  0.52655970  0.39740479  0.56364173  1  -0.792784  0  -0.271737  -0.170773  0  3.617826  0
N  N111  1  0.37525192  0.61170049  0.43907976  1  -0.784838  0  -0.262482  -0.160597  0  3.521709  0
N  N112  1  0.35307181  0.45784570  0.44080564  1  -0.785282  0  -0.28084  -0.188284  0  3.64615  0
N  N113  1  0.66121660  0.43165260  0.53462089  1  -0.798023  0  -0.263977  -0.191953  0  3.52598  0
N  N114  1  0.54877477  0.60682397  0.70734219  1  -0.808915  0  -0.276469  -0.188824  0  3.600363  0
N  N115  1  0.52978817  0.48659664  0.40023857  1  -0.782745  0  -0.274195  -0.185192  0  3.581631  0
N  N116  1  0.39040770  0.32941576  0.28247199  1  -0.754057  0  -0.247246  -0.232805  0  3.526675  0
N  N117  1  0.60553434  0.64309059  0.60567001  1  -0.713868  0  -0.244325  -0.24802  0  3.456826  0
O  O118  1  0.24835548  0.45864670  0.25949359  1  -1.077236  0  -0.2564  -0.337242  0  2.236761  0
O  O119  1  0.75019547  0.54659418  0.72659103  1  -1.082932  0  -0.254022  -0.336721  0  2.244634  0
O  O120  1  0.83176262  0.32382557  0.28441862  1  -1.056509  0  -0.251938  -0.331672  0  2.084033  0
O  O121  1  0.18680738  0.38030684  0.68259865  1  -1.056081  0  -0.256032  -0.337833  0  2.085676  0
O  O122  1  0.75972019  0.51723103  0.17227263  1  -1.047039  0  -0.263405  -0.344387  0  2.079953  0
O  O123  1  0.46489365  0.73080756  0.08316827  1  -1.043309  0  -0.263356  -0.343672  0  2.079481  0
O  O124  1  0.19339289  0.87558214  0.27791742  1  -1.053985  0  -0.263558  -0.344399  0  2.080398  0
O  O125  1  0.50104179  0.15076663  0.75622425  1  -1.042405  0  -0.260355  -0.339345  0  2.08347  0
O  O126  1  0.96854945  0.21797949  0.28140388  1  -1.045401  0  -0.246827  -0.335942  0  2.078162  0
O  O127  1  0.07960147  0.53868940  0.70043885  1  -1.049403  0  -0.248946  -0.33831  0  2.082427  0
F  F128  1  0.95192432  0.25104468  0.50435712  1  -0.626979  0  -0.105705  -0.14846  0  1.295377  0
F  F129  1  0.07765977  0.48939473  0.47649196  1  -0.626832  0  -0.106376  -0.148812  0  1.290486  0
F  F130  1  0.69116447  0.56117810  0.04907885  1  -0.620023  0  -0.081621  -0.109609  0  1.378854  0
F  F131  1  0.52855052  0.68157747  0.20261422  1  -0.617729  0  -0.082814  -0.111322  0  1.379582  0
F  F132  1  0.26522020  0.03540668  0.37805801  1  -0.612057  0  -0.079678  -0.106839  0  1.377924  0
F  F133  1  0.43275757  0.99129170  0.65508804  1  -0.615274  0  -0.078035  -0.105061  0  1.379823  0
F  F134  1  0.83114501  0.00377611  0.91906926  1  -0.619978  0  -0.096276  -0.132806  0  1.321426  0
F  F135  1  0.13631638  0.99160031  0.06623236  1  -0.621457  0  -0.093177  -0.128632  0  1.32514  0
F  F136  1  0.35328493  0.24885111  0.37704600  1  -0.635199  0  -0.071444  -0.119955  0  1.403342  0
F  F137  1  0.46499036  0.77391136  0.64277165  1  -0.632772  0  -0.079189  -0.125637  0  1.350431  0
F  F138  1  0.35768584  0.19474216  0.22360983  1  -0.61688  0  -0.071406  -0.112499  0  1.355476  0
F  F139  1  0.62306732  0.77513102  0.65388484  1  -0.61973  0  -0.069849  -0.109608  0  1.366311  0
