# generated using pymatgen
data_ZnH10C21Br2(NO2)4
_symmetry_space_group_name_H-M   'P 1'
_cell_length_a   16.34652860
_cell_length_b   17.27249396
_cell_length_c   17.54977984
_cell_angle_alpha   89.74105808
_cell_angle_beta   82.42008936
_cell_angle_gamma   91.36499725
_symmetry_Int_Tables_number   1
_chemical_formula_structural   ZnH10C21Br2(NO2)4
_chemical_formula_sum   'Zn2 H20 C42 Br4 N8 O16'
_cell_volume   4910.25917570
_cell_formula_units_Z   2
loop_
 _symmetry_equiv_pos_site_id
 _symmetry_equiv_pos_as_xyz
  1  'x, y, z'
loop_
 _atom_site_type_symbol
 _atom_site_label
 _atom_site_symmetry_multiplicity
 _atom_site_fract_x
 _atom_site_fract_y
 _atom_site_fract_z
 _atom_site_occupancy
 _atom_site_pbe_bader_charge
 _atom_site_pbe_bader_spin_density
 _atom_site_pbe_cm5_charge
 _atom_site_pbe_ddec_charge
 _atom_site_pbe_ddec_spin_density
 _atom_site_pbe_ddec_sum_bond_order
 _atom_site_pbe_magmom
Zn  Zn0  1  0.40881845  0.49031293  0.50989299  1  1.291229  0  0.679435  0.856852  0  2.370056  0
Zn  Zn1  1  0.58726921  0.51191177  0.49523683  1  1.300547  0  0.67483  0.854814  0  2.364045  0
H  H2  1  0.70829670  0.42437689  0.55459808  1  0.180603  0  0.124188  0.103145  0  1.020112  0
H  H3  1  0.85885457  0.41575802  0.55403154  1  0.098009  0  0.117297  0.125183  0  0.988561  0
H  H4  1  0.88684614  0.61886268  0.40560869  1  0.111932  0  0.11472  0.134847  0  0.984594  0
H  H5  1  0.10809314  0.39822915  0.61340384  1  0.098383  0  0.115686  0.134557  0  0.98393  0
H  H6  1  0.14034137  0.56861344  0.42878078  1  0.078147  0  0.1169  0.124171  0  0.989351  0
H  H7  1  0.29038586  0.56545543  0.43518157  1  0.152043  0  0.129086  0.10814  0  0.984467  0
H  H8  1  0.00867605  0.56520808  0.43937813  1  0.084891  0  0.111153  0.109083  0  0.9908  0
H  H9  1  0.98852785  0.43529639  0.56187527  1  0.076647  0  0.111604  0.109088  0  0.98919  0
H  H10  1  0.60102383  0.44476548  0.73460971  1  0.098803  0  0.10819  0.116837  0  0.990602  0
H  H11  1  0.59488813  0.44236640  0.87623085  1  0.041351  0  0.102546  0.102714  0  1.004854  0
H  H12  1  0.37403987  0.57700283  0.89323914  1  0.076971  0  0.101144  0.112912  0  1.004896  0
H  H13  1  0.64406326  0.44969593  0.11200479  1  0.097948  0  0.101496  0.113122  0  1.002943  0
H  H14  1  0.39106010  0.52116054  0.12754039  1  0.052758  0  0.103387  0.103259  0  1.004451  0
H  H15  1  0.38374166  0.52267049  0.26909178  1  0.078591  0  0.107626  0.111346  0  0.990609  0
H  H16  1  0.41738291  0.53694473  0.00676286  1  0.080177  0  0.101857  0.099782  0  1.004176  0
H  H17  1  0.58724017  0.46180959  0.99776119  1  0.045067  0  0.101766  0.099411  0  1.002889  0
H  H18  1  0.60426029  0.75078413  0.50771400  1  0.133664  0  0.109278  0.118147  0  1.008451  0
H  H19  1  0.60428772  0.89678625  0.50267387  1  0.122321  0  0.116964  0.120622  0  0.998028  0
H  H20  1  0.65283595  0.11454082  0.51345933  1  0.117309  0  0.128029  0.145018  0  0.965933  0
H  H21  1  0.40049114  0.10362476  0.46569716  1  0.154021  0  0.129181  0.150275  0  0.97573  0
C  C22  1  0.49849518  0.50374815  0.64738296  1  1.58279  0  0.213915  0.60769  0  4.153637  0
C  C23  1  0.51759364  0.35117188  0.49665327  1  1.682804  0  0.214006  0.596574  0  4.207228  0
C  C24  1  0.49955698  0.49744801  0.35703766  1  1.572767  0  0.21533  0.608853  0  4.153841  0
C  C25  1  0.48002381  0.65035738  0.50624388  1  1.632202  0  0.21492  0.593806  0  4.1818  0
C  C26  1  0.75053066  0.46622907  0.52241377  1  0.404748  0  0.058555  0.125584  0  3.890524  0
C  C27  1  0.83489142  0.46248670  0.52225477  1  0.014392  0  -0.075495  -0.172762  0  3.91072  0
C  C28  1  0.88729062  0.51831344  0.48063083  1  -0.038808  0  0.014676  0.16967  0  4.022046  0
C  C29  1  0.84994460  0.57439208  0.43942793  1  0.068748  0  -0.084267  -0.22843  0  3.919246  0
C  C30  1  0.76435959  0.57353956  0.44249921  1  0.466465  0  0.123022  0.252597  0  3.989587  0
C  C31  1  0.97666755  0.52163695  0.47851184  1  0.006383  0  -0.071723  -0.110376  0  3.943156  0
C  C32  1  0.02068782  0.47776949  0.52152990  1  -0.063619  0  -0.068641  -0.104508  0  3.937951  0
C  C33  1  0.14584659  0.43625177  0.57255810  1  0.090371  0  -0.079507  -0.220784  0  3.907384  0
C  C34  1  0.10995048  0.48221199  0.52045220  1  -0.017565  0  0.015414  0.169702  0  4.018437  0
C  C35  1  0.16325790  0.53038289  0.47018613  1  -0.002923  0  -0.076313  -0.174748  0  3.918692  0
C  C36  1  0.24720620  0.52918490  0.47313712  1  0.458697  0  0.06007  0.124747  0  3.905943  0
C  C37  1  0.23118352  0.43948057  0.57233443  1  0.475132  0  0.126126  0.258429  0  3.976353  0
C  C38  1  0.49135691  0.50972074  0.73299675  1  0.00026  0  -0.020846  -0.08151  0  3.927566  0
C  C39  1  0.55136388  0.47337160  0.77057560  1  0.01146  0  -0.081912  -0.077024  0  3.988955  0
C  C40  1  0.54779067  0.47246679  0.84984947  1  -0.041777  0  -0.092868  -0.140401  0  3.976209  0
C  C41  1  0.48317043  0.50934023  0.89606820  1  -0.02018  0  -0.008175  0.132519  0  4.047533  0
C  C42  1  0.42390304  0.54698667  0.85896389  1  -0.004764  0  -0.09831  -0.196893  0  3.961483  0
C  C43  1  0.42761884  0.54756015  0.77920217  1  -0.050415  0  -0.009308  0.107466  0  3.938323  0
C  C44  1  0.47425364  0.51103543  0.97964597  1  -0.083194  0  -0.087453  -0.126483  0  3.991714  0
C  C45  1  0.52905263  0.48534396  0.02477401  1  -0.027923  0  -0.087216  -0.12433  0  3.989265  0
C  C46  1  0.58694728  0.46742826  0.14593000  1  -0.031929  0  -0.096385  -0.193638  0  3.956045  0
C  C47  1  0.51937895  0.48731650  0.10839388  1  0.002536  0  -0.007347  0.130454  0  4.045605  0
C  C48  1  0.44553684  0.50736341  0.15420413  1  -0.055126  0  -0.091152  -0.138072  0  3.974074  0
C  C49  1  0.44109334  0.50838307  0.23350715  1  0.007355  0  -0.078795  -0.073518  0  3.989967  0
C  C50  1  0.50933702  0.49124451  0.27135086  1  0.094026  0  -0.018411  -0.071642  0  3.926499  0
C  C51  1  0.58236977  0.46993445  0.22569947  1  -0.141648  0  -0.008179  0.108897  0  3.935731  0
C  C52  1  0.47434845  0.73752994  0.50719668  1  0.062422  0  0.009458  -0.03365  0  3.873572  0
C  C53  1  0.54754523  0.78214439  0.50581662  1  -0.039221  0  -0.067512  -0.058159  0  3.93709  0
C  C54  1  0.54782468  0.86218284  0.50222412  1  0.013206  0  -0.068164  -0.119129  0  3.929149  0
C  C55  1  0.47395971  0.90085171  0.49792328  1  0.431886  0  0.103419  0.13922  0  4.01859  0
C  C56  1  0.40040575  0.85668711  0.49895617  1  0.274711  0  0.096865  -0.02192  0  3.865205  0
C  C57  1  0.40030302  0.77628716  0.50552663  1  0.207108  0  0.096611  0.026363  0  3.885298  0
C  C58  1  0.59677344  0.14381752  0.50378560  1  0.06918  0  -0.062564  -0.185446  0  3.897677  0
C  C59  1  0.52666286  0.10022494  0.49094489  1  0.342129  0  0.102127  0.201109  0  4.03953  0
C  C60  1  0.45460341  0.13753026  0.47694055  1  0.105037  0  -0.060954  -0.179221  0  3.873245  0
C  C61  1  0.45481875  0.21762090  0.47646113  1  0.120659  0  0.097202  0.092543  0  3.904211  0
C  C62  1  0.52209246  0.26401951  0.49292045  1  0.062821  0  0.014701  -0.086837  0  3.854446  0
C  C63  1  0.59221187  0.22391525  0.50664045  1  0.216996  0  0.093828  0.08393  0  3.91835  0
Br  Br64  1  0.71652540  0.65012126  0.38626337  1  0.004952  0  0.074607  -0.022805  0  1.417715  0
Br  Br65  1  0.27685377  0.37897358  0.64498504  1  0.030797  0  0.082381  -0.002433  0  1.425363  0
Br  Br66  1  0.34532252  0.60619731  0.73927699  1  -0.038286  0  0.009244  -0.064269  0  1.436882  0
Br  Br67  1  0.67786007  0.43759576  0.26794499  1  -0.059003  0  0.002611  -0.07656  0  1.399799  0
N  N68  1  0.71481280  0.52126423  0.48328758  1  -1.241827  0  -0.320287  -0.25133  0  3.481917  0
N  N69  1  0.28162633  0.48393545  0.52304109  1  -1.218533  0  -0.318648  -0.247971  0  3.479989  0
N  N70  1  0.46651359  0.98187277  0.49646322  1  -0.486359  0  -0.136798  -0.105989  0  3.26838  0
N  N71  1  0.53462425  0.01913801  0.49221066  1  -0.438745  0  -0.136877  -0.121975  0  3.243473  0
N  N72  1  0.31971934  0.73367104  0.51072545  1  0.440678  0  0.061688  0.521914  0  4.254998  0
N  N73  1  0.32267200  0.89717802  0.49340480  1  0.440023  0  0.060846  0.516963  0  4.262845  0
N  N74  1  0.66544667  0.26585577  0.52866721  1  0.413636  0  0.062254  0.522043  0  4.225238  0
N  N75  1  0.38008207  0.25378320  0.45374502  1  0.420417  0  0.059948  0.520566  0  4.227357  0
O  O76  1  0.43266525  0.51107847  0.61714860  1  -1.168102  0  -0.317107  -0.558454  0  2.490185  0
O  O77  1  0.56967024  0.49065181  0.61092958  1  -1.162809  0  -0.319073  -0.545147  0  2.306493  0
O  O78  1  0.58404620  0.38946730  0.47742336  1  -1.15188  0  -0.304547  -0.533489  0  2.318222  0
O  O79  1  0.44652844  0.37637225  0.51949214  1  -1.154475  0  -0.305708  -0.540116  0  2.378204  0
O  O80  1  0.56164539  0.52289878  0.38678612  1  -1.169665  0  -0.321457  -0.565882  0  2.456549  0
O  O81  1  0.42918839  0.47856621  0.39334621  1  -1.150866  0  -0.312189  -0.534018  0  2.312757  0
O  O82  1  0.41768842  0.61203255  0.48995522  1  -1.155663  0  -0.306326  -0.537519  0  2.328162  0
O  O83  1  0.54839979  0.62423399  0.52025969  1  -1.162395  0  -0.311452  -0.542216  0  2.344491  0
O  O84  1  0.29163958  0.70657137  0.57397016  1  -0.409788  0  -0.108666  -0.2923  0  1.918055  0
O  O85  1  0.28627180  0.73174149  0.45143152  1  -0.442675  0  -0.130928  -0.32481  0  1.8705  0
O  O86  1  0.31769556  0.93186400  0.43271580  1  -0.420876  0  -0.117088  -0.305686  0  1.874062  0
O  O87  1  0.26937627  0.89257163  0.55031535  1  -0.427646  0  -0.123522  -0.306602  0  1.853099  0
O  O88  1  0.65669562  0.29916284  0.59140301  1  -0.438369  0  -0.120819  -0.316391  0  1.896804  0
O  O89  1  0.73050075  0.26126540  0.48445267  1  -0.431424  0  -0.125659  -0.319091  0  1.856768  0
O  O90  1  0.38917696  0.29007653  0.39237958  1  -0.416376  0  -0.119153  -0.300728  0  1.877345  0
O  O91  1  0.31449387  0.24098927  0.49604374  1  -0.434349  0  -0.132387  -0.3297  0  1.890872  0
