# generated using pymatgen
data_Dy2Cu3H38C42(N3O17)2
_symmetry_space_group_name_H-M   'P 1'
_cell_length_a   11.39067181
_cell_length_b   13.11956516
_cell_length_c   19.01343161
_cell_angle_alpha   89.99993856
_cell_angle_beta   92.97756083
_cell_angle_gamma   89.99991989
_symmetry_Int_Tables_number   1
_chemical_formula_structural   Dy2Cu3H38C42(N3O17)2
_chemical_formula_sum   'Dy4 Cu6 H76 C84 N12 O68'
_cell_volume   2837.54379777
_cell_formula_units_Z   2
loop_
 _symmetry_equiv_pos_site_id
 _symmetry_equiv_pos_as_xyz
  1  'x, y, z'
loop_
 _atom_site_type_symbol
 _atom_site_label
 _atom_site_symmetry_multiplicity
 _atom_site_fract_x
 _atom_site_fract_y
 _atom_site_fract_z
 _atom_site_occupancy
 _atom_site_pbe_bader_charge
 _atom_site_pbe_bader_spin_density
 _atom_site_pbe_cm5_charge
 _atom_site_pbe_ddec_charge
 _atom_site_pbe_ddec_spin_density
 _atom_site_pbe_ddec_sum_bond_order
 _atom_site_pbe_magmom
Dy  Dy0  1  0.36468385  0.06689594  0.14376802  1  2.198  0.00023  1.508228  2.144946  0.000178  2.090534  0.0
Dy  Dy1  1  0.13531734  0.56689496  0.35623189  1  2.197992  0.00023  1.508163  2.144916  0.000178  2.090494  0.0
Dy  Dy2  1  0.63531787  0.93310763  0.85623187  1  2.197972  0.00023  1.50821  2.144943  0.000178  2.090613  0.0
Dy  Dy3  1  0.86468348  0.43310632  0.64376848  1  2.197967  0.00023  1.508198  2.144916  0.000178  2.090533  0.0
Cu  Cu4  1  0.84466756  0.90682590  0.17368450  1  1.101333  0.587904  0.758609  0.805181  0.744243  2.226105  0.586
Cu  Cu5  1  0.65533005  0.40682762  0.32631555  1  1.101321  0.587902  0.758586  0.805246  0.744244  2.225941  0.586
Cu  Cu6  1  0.15533148  0.09316928  0.82631632  1  1.101259  0.587908  0.758578  0.805147  0.744259  2.2261  0.586
Cu  Cu7  1  0.34466730  0.59317214  0.67368361  1  1.101338  0.587908  0.758595  0.805169  0.744251  2.226126  0.586
Cu  Cu8  1  0.00000078  0.50000057  0.99999895  1  1.082847  0.579992  0.756744  0.770759  0.739859  2.312048  0.578
Cu  Cu9  1  0.49999904  0.00000465  0.50000110  1  1.082859  0.579996  0.756728  0.770683  0.739862  2.312138  0.578
H  H10  1  0.41827885  0.85058878  0.17549614  1  0.621138  -1.3e-05  0.328578  0.416132  -1.7e-05  0.874091  0.0
H  H11  1  0.08172129  0.35058602  0.32449563  1  0.620985  -1.2e-05  0.328582  0.416201  -1.7e-05  0.874003  0.0
H  H12  1  0.58172146  0.14941403  0.82449475  1  0.620973  -1.2e-05  0.328583  0.416211  -1.7e-05  0.873994  0.0
H  H13  1  0.91827697  0.64941602  0.67550253  1  0.621007  -1.2e-05  0.328539  0.416171  -1.7e-05  0.874039  0.0
H  H14  1  0.53754793  0.90462023  0.15553205  1  0.632309  0.000453  0.296836  0.38833  0.000566  0.953232  0.0
H  H15  1  0.96245337  0.40461698  0.34446344  1  0.632317  0.000454  0.296866  0.388384  0.000566  0.953179  0.0
H  H16  1  0.46245309  0.09538333  0.84446307  1  0.632348  0.000453  0.296871  0.388405  0.000566  0.953152  0.0
H  H17  1  0.03754751  0.59538354  0.65553536  1  0.632272  0.000454  0.296872  0.388418  0.000566  0.953148  0.0
H  H18  1  0.31420548  0.03168226  0.99413828  1  0.644449  1.9e-05  0.2956  0.398996  5.6e-05  0.940295  0.0
H  H19  1  0.18579601  0.53167947  0.50586286  1  0.644365  1.9e-05  0.295604  0.399049  5.6e-05  0.940223  0.0
H  H20  1  0.68579527  0.96832587  0.00586419  1  0.644143  1.9e-05  0.295596  0.399013  5.6e-05  0.940272  0.0
H  H21  1  0.81420569  0.46831800  0.49413755  1  0.644449  1.9e-05  0.295606  0.399028  5.6e-05  0.940255  0.0
H  H22  1  0.42543783  0.95401611  0.01100129  1  0.643872  2e-05  0.330856  0.431328  1.5e-05  0.859824  0.0
H  H23  1  0.07454043  0.45402682  0.48900573  1  0.644188  2e-05  0.330872  0.431303  1.5e-05  0.859873  0.0
H  H24  1  0.57453355  0.04596840  0.98900934  1  0.644485  2e-05  0.33081  0.431191  1.5e-05  0.860031  0.0
H  H25  1  0.92544797  0.54598055  0.51099725  1  0.644028  2e-05  0.330891  0.431334  1.5e-05  0.859822  0.0
H  H26  1  0.48816856  0.25652871  0.09553124  1  0.669982  2.4e-05  0.293477  0.412905  3.7e-05  0.920614  0.0
H  H27  1  0.01183683  0.75653086  0.40446557  1  0.670078  2.4e-05  0.293509  0.412958  3.7e-05  0.920545  0.0
H  H28  1  0.51183686  0.74346800  0.90446408  1  0.670047  2.4e-05  0.293512  0.412974  3.7e-05  0.920515  0.0
H  H29  1  0.98816134  0.24347042  0.59553521  1  0.670092  2.4e-05  0.293524  0.412982  3.7e-05  0.920507  0.0
H  H30  1  0.35368088  0.26204805  0.06209002  1  0.676973  -6e-06  0.299609  0.414161  -3.2e-05  0.919408  0.0
H  H31  1  0.14632536  0.76204922  0.43790734  1  0.67741  -6e-06  0.299598  0.414198  -3.2e-05  0.919362  0.0
H  H32  1  0.64632444  0.73795094  0.93790793  1  0.677399  -6e-06  0.299599  0.414183  -3.2e-05  0.919375  0.0
H  H33  1  0.85367464  0.23795282  0.56209141  1  0.677395  -6e-06  0.299595  0.414181  -3.2e-05  0.919384  0.0
H  H34  1  0.30817889  0.25398370  0.18229625  1  0.611575  -4e-06  0.310616  0.397426  -1.2e-05  0.916148  0.0
H  H35  1  0.19182283  0.75397966  0.31770460  1  0.611577  -4e-06  0.310503  0.397162  -1.2e-05  0.91649  0.0
H  H36  1  0.69181925  0.74602139  0.81770505  1  0.611711  -4e-06  0.310539  0.397209  -1.2e-05  0.916432  0.0
H  H37  1  0.80817452  0.24602162  0.68229457  1  0.611586  -4e-06  0.310532  0.397209  -1.2e-05  0.916426  0.0
H  H38  1  0.30449302  0.20801718  0.25961926  1  0.640019  -6.1e-05  0.298904  0.401623  -9.8e-05  0.935998  0.0
H  H39  1  0.19551142  0.70801402  0.24038175  1  0.640052  -6.1e-05  0.298922  0.4017  -9.8e-05  0.935887  0.0
H  H40  1  0.69551128  0.79198638  0.74038233  1  0.640064  -6.1e-05  0.298943  0.401758  -9.8e-05  0.935789  0.0
H  H41  1  0.80448853  0.29198726  0.75961859  1  0.640058  -6.1e-05  0.298884  0.401679  -9.8e-05  0.935909  0.0
H  H42  1  0.25067743  0.94561256  0.24263256  1  0.656501  4e-06  0.329766  0.420478  3e-06  0.871849  0.0
H  H43  1  0.24932317  0.44561503  0.25736600  1  0.656483  4e-06  0.329799  0.420562  3e-06  0.871762  0.0
H  H44  1  0.74932345  0.05438720  0.75736624  1  0.656479  4e-06  0.329789  0.420568  3e-06  0.871753  0.0
H  H45  1  0.75067681  0.55438701  0.74263329  1  0.656493  4e-06  0.329816  0.420574  3e-06  0.871748  0.0
H  H46  1  0.15028457  0.91661856  0.18273572  1  0.670083  0.000585  0.302132  0.414341  0.000696  0.912203  0.0
H  H47  1  0.34971779  0.41662006  0.31726399  1  0.670602  0.000585  0.30212  0.414325  0.000697  0.912209  0.0
H  H48  1  0.84971713  0.08337738  0.81726469  1  0.670117  0.000585  0.302126  0.414345  0.000697  0.91219  0.0
H  H49  1  0.65028219  0.58337970  0.68273530  1  0.670083  0.000585  0.302104  0.414322  0.000697  0.912213  0.0
H  H50  1  0.92110324  0.06404728  0.00831588  1  0.144926  -3.6e-05  0.107775  0.113294  -5.3e-05  1.026884  0.0
H  H51  1  0.57889590  0.56404998  0.49168239  1  0.144981  -3.6e-05  0.107769  0.113279  -5.3e-05  1.026983  0.0
H  H52  1  0.07890034  0.93595171  0.99168146  1  0.144928  -3.6e-05  0.107766  0.113286  -5.3e-05  1.026924  0.0
H  H53  1  0.42109963  0.43595435  0.50831828  1  0.144855  -3.6e-05  0.107742  0.11327  -5.3e-05  1.026888  0.0
H  H54  1  0.05375391  0.05035210  0.19643851  1  0.109292  0.002267  0.125976  0.098434  0.001002  1.0261  0.002
H  H55  1  0.44624735  0.55035615  0.30356037  1  0.109347  0.002267  0.125925  0.098324  0.001002  1.026002  0.002
H  H56  1  0.94624679  0.94964080  0.80356502  1  0.109639  0.002266  0.125938  0.098357  0.001002  1.02599  0.002
H  H57  1  0.55375092  0.44964589  0.69643779  1  0.109365  0.002267  0.125933  0.098343  0.001002  1.026019  0.002
H  H58  1  0.89866278  0.34764041  0.17457057  1  0.0923  6.4e-05  0.109924  0.114923  2.1e-05  1.026216  0.0
H  H59  1  0.60133924  0.84764485  0.32543184  1  0.092224  6.4e-05  0.109925  0.114969  2.1e-05  1.026091  0.0
H  H60  1  0.10133978  0.65235553  0.82543041  1  0.092265  6.4e-05  0.109901  0.114925  2.1e-05  1.02617  0.0
H  H61  1  0.39866152  0.15235719  0.67457011  1  0.092255  6.4e-05  0.109909  0.114942  2.1e-05  1.026151  0.0
H  H62  1  0.74604925  0.17916021  0.99703169  1  0.079726  0.000973  0.114598  0.119122  0.000494  1.001915  0.0
H  H63  1  0.75395179  0.67916267  0.50296515  1  0.079718  0.000973  0.114583  0.11908  0.000494  1.001961  0.0
H  H64  1  0.25394911  0.82083650  0.00296384  1  0.079296  0.000974  0.114603  0.119124  0.000494  1.001963  0.0
H  H65  1  0.24605076  0.32083861  0.49703635  1  0.07971  0.000974  0.114615  0.119156  0.000494  1.001994  0.0
H  H66  1  0.63559139  0.76430837  0.14165963  1  0.115948  0.002465  0.124566  0.096155  0.001123  0.997571  0.002
H  H67  1  0.86440893  0.26431055  0.35834487  1  0.115928  0.002464  0.124637  0.096371  0.001122  0.99751  0.002
H  H68  1  0.36440668  0.23568529  0.85834378  1  0.115914  0.002465  0.12463  0.096346  0.001123  0.997496  0.002
H  H69  1  0.13559273  0.73569454  0.64165660  1  0.115949  0.002465  0.124548  0.096114  0.001123  0.997656  0.002
H  H70  1  0.07717574  0.23840557  0.19325295  1  0.146616  0.000933  0.112127  0.128915  0.000504  1.018655  0.001
H  H71  1  0.42282690  0.73840889  0.30674742  1  0.146568  0.000933  0.112144  0.128919  0.000504  1.018698  0.001
H  H72  1  0.92282408  0.76158808  0.80675053  1  0.146465  0.000933  0.112139  0.128928  0.000504  1.018705  0.001
H  H73  1  0.57717399  0.26159315  0.69325138  1  0.146581  0.000933  0.112124  0.12893  0.000504  1.018696  0.001
H  H74  1  0.77760975  0.36825945  0.99277619  1  0.154594  0.00208  0.132914  0.118369  0.000942  0.962782  0.002
H  H75  1  0.72238824  0.86825889  0.50722301  1  0.15461  0.00208  0.132928  0.118387  0.000942  0.962758  0.002
H  H76  1  0.22239207  0.63173955  0.00722108  1  0.154608  0.00208  0.132909  0.118341  0.000942  0.96275  0.002
H  H77  1  0.27760723  0.13174010  0.49277923  1  0.15462  0.002081  0.132914  0.118338  0.000942  0.962773  0.002
H  H78  1  0.61608246  0.57217320  0.14368216  1  0.13984  0.001191  0.124666  0.135291  0.000629  0.955287  0.001
H  H79  1  0.88391561  0.07217536  0.35632080  1  0.139876  0.001191  0.124669  0.135255  0.000629  0.955285  0.001
H  H80  1  0.38391305  0.42781969  0.85631903  1  0.139944  0.001191  0.124681  0.13529  0.000629  0.955263  0.001
H  H81  1  0.11608957  0.92782897  0.64368082  1  0.139729  0.001191  0.124678  0.135325  0.000629  0.955288  0.001
H  H82  1  0.79375533  0.46828701  0.16583274  1  0.09382  3.1e-05  0.111987  0.115674  -2.2e-05  1.025362  0.0
H  H83  1  0.70624482  0.96828903  0.33416739  1  0.093818  3.1e-05  0.111978  0.115708  -2.2e-05  1.025374  0.0
H  H84  1  0.20624378  0.53170512  0.83416651  1  0.093516  3.1e-05  0.112046  0.115772  -2.2e-05  1.0253  0.0
H  H85  1  0.29376040  0.03171378  0.66583318  1  0.093831  3.1e-05  0.111985  0.115702  -2.2e-05  1.025391  0.0
C  C86  1  0.66431521  0.05033803  0.16122563  1  1.579  -0.000891  0.229923  0.582665  -0.000823  4.158355  -0.001
C  C87  1  0.83568735  0.55033911  0.33877596  1  1.578933  -0.000891  0.229938  0.58274  -0.000823  4.158325  -0.001
C  C88  1  0.33568825  0.94965715  0.83877486  1  1.578898  -0.000891  0.229979  0.5828  -0.000823  4.158136  -0.001
C  C89  1  0.16430822  0.44965988  0.66122366  1  1.578945  -0.000891  0.229997  0.582929  -0.000822  4.158181  -0.001
C  C90  1  0.15230725  0.12074932  0.01769067  1  1.611584  0.001532  0.229971  0.635324  0.0011  4.181542  0.001
C  C91  1  0.34769203  0.62075094  0.48231069  1  1.611785  0.001532  0.229985  0.635383  0.0011  4.181491  0.001
C  C92  1  0.84769529  0.87925882  0.98231083  1  1.611218  0.001532  0.229991  0.635448  0.0011  4.181352  0.001
C  C93  1  0.65230878  0.37925415  0.51769021  1  1.611647  0.001532  0.229945  0.635287  0.0011  4.181473  0.001
C  C94  1  0.77399292  0.11274399  0.16891455  1  0.515651  -4.3e-05  0.10528  0.047191  -0.000677  3.941521  0.0
C  C95  1  0.72600959  0.61274522  0.33108542  1  0.51566  -4.3e-05  0.105261  0.047118  -0.000677  3.941488  0.0
C  C96  1  0.22600788  0.88725196  0.83108635  1  0.515626  -4.3e-05  0.105251  0.04706  -0.000677  3.941672  0.0
C  C97  1  0.27398860  0.38725682  0.66891484  1  0.515705  -4.4e-05  0.105216  0.047072  -0.000678  3.941542  0.0
C  C98  1  0.04593684  0.18883549  0.00749951  1  -0.064729  0.002512  0.00453  -0.058851  0.001746  3.908215  0.001
C  C99  1  0.45406067  0.68884077  0.49249910  1  -0.064674  0.002512  0.004601  -0.058814  0.001746  3.908219  0.001
C  C100  1  0.95406408  0.81116883  0.99249824  1  -0.064732  0.002512  0.004519  -0.058978  0.001746  3.908238  0.001
C  C101  1  0.54593752  0.31116813  0.50750116  1  -0.064249  0.002512  0.004524  -0.058872  0.001746  3.908131  0.001
C  C102  1  0.77825318  0.21955393  0.16640292  1  -0.059902  0.003424  0.010146  -0.039053  0.002337  3.864322  0.003
C  C103  1  0.72174991  0.71955592  0.33360015  1  -0.060544  0.003424  0.010137  -0.038988  0.002337  3.86418  0.003
C  C104  1  0.22174951  0.78044202  0.83359491  1  -0.060736  0.003425  0.010191  -0.038927  0.002337  3.864324  0.003
C  C105  1  0.27824803  0.28044535  0.66640640  1  -0.059811  0.003425  0.010158  -0.039085  0.002337  3.864307  0.003
C  C106  1  0.05506647  0.29472162  0.00330901  1  0.510374  -0.000142  0.107935  0.058587  -0.001065  3.949196  0.0
C  C107  1  0.44493271  0.79472614  0.49668749  1  0.509775  -0.000142  0.107941  0.058676  -0.001064  3.949167  0.0
C  C108  1  0.94493703  0.70528270  0.99669043  1  0.510613  -0.000142  0.108064  0.058788  -0.001065  3.949039  0.0
C  C109  1  0.55506290  0.20528276  0.50331108  1  0.510572  -0.000142  0.108026  0.058602  -0.001065  3.949194  0.0
C  C110  1  0.93291241  0.14616433  0.00434121  1  -0.003323  -0.003134  -0.066287  -0.056881  -0.003644  3.904657  -0.002
C  C111  1  0.56708400  0.64616627  0.49565583  1  -0.003388  -0.003133  -0.066359  -0.056958  -0.003643  3.904807  -0.002
C  C112  1  0.06709026  0.85383619  0.99565714  1  -0.003359  -0.003134  -0.066298  -0.056842  -0.003644  3.90476  -0.002
C  C113  1  0.43291166  0.35383882  0.50434168  1  -0.003832  -0.003134  -0.066282  -0.056828  -0.003644  3.904569  -0.002
C  C114  1  0.97760316  0.09976628  0.18916180  1  0.491939  -0.001614  0.058475  0.107618  -0.002093  3.910041  -0.001
C  C115  1  0.52239762  0.59977161  0.31083810  1  0.491047  -0.001611  0.058525  0.107765  -0.002094  3.910041  -0.001
C  C116  1  0.02239759  0.90022738  0.81084067  1  0.491044  -0.001613  0.058524  0.107725  -0.002093  3.910044  -0.001
C  C117  1  0.47760053  0.40022967  0.68916321  1  0.491505  -0.001613  0.058573  0.107774  -0.002094  3.909885  -0.001
C  C118  1  0.88944856  0.26516664  0.17696911  1  -0.036596  -0.003579  -0.062465  -0.059109  -0.00411  3.916356  -0.002
C  C119  1  0.61055452  0.76517032  0.32303235  1  -0.035736  -0.003579  -0.062435  -0.059179  -0.00411  3.916211  -0.002
C  C120  1  0.11055122  0.73482930  0.82303542  1  -0.03593  -0.00358  -0.062403  -0.05913  -0.004111  3.916208  -0.002
C  C121  1  0.38944367  0.23483096  0.67696791  1  -0.036554  -0.00358  -0.062444  -0.059137  -0.004111  3.916317  -0.002
C  C122  1  0.67250699  0.28884975  0.15069219  1  1.682104  0.00106  0.201187  0.588061  0.000807  4.262548  0.001
C  C123  1  0.82749523  0.78885388  0.34930763  1  1.681625  0.00106  0.201117  0.588003  0.000807  4.262667  0.001
C  C124  1  0.32749571  0.71114239  0.84930511  1  1.682019  0.001059  0.201185  0.588085  0.000807  4.262747  0.001
C  C125  1  0.17250633  0.21114283  0.65069645  1  1.681605  0.00106  0.201335  0.588433  0.000807  4.262294  0.001
C  C126  1  0.17010996  0.35141855  0.00242438  1  1.598246  -0.001233  0.209491  0.544711  -0.000932  4.223282  -0.001
C  C127  1  0.32988988  0.85142245  0.49757526  1  1.598102  -0.00123  0.209411  0.544623  -0.000932  4.223326  -0.001
C  C128  1  0.82989163  0.64858577  0.99757918  1  1.598287  -0.001233  0.209521  0.544785  -0.000933  4.223152  -0.001
C  C129  1  0.67011018  0.14858645  0.50242192  1  1.598114  -0.001233  0.209584  0.544874  -0.000932  4.223024  -0.001
C  C130  1  0.83499279  0.20938066  0.99822562  1  0.042611  0.005726  -0.06883  -0.093907  0.003877  3.94169  0.005
C  C131  1  0.66500638  0.70937714  0.50177269  1  0.042583  0.005726  -0.068735  -0.093761  0.003877  3.9416  0.005
C  C132  1  0.16500891  0.79061833  0.00177479  1  0.04299  0.005726  -0.068828  -0.093926  0.003878  3.941781  0.005
C  C133  1  0.33499181  0.29062185  0.49822757  1  0.042556  0.005727  -0.068819  -0.093956  0.003878  3.941758  0.005
C  C134  1  0.91548816  0.70417814  0.16836375  1  0.476091  2.7e-05  0.108903  0.06035  -0.000752  3.95196  0.0
C  C135  1  0.58451066  0.20417841  0.33163651  1  0.476047  2.8e-05  0.108939  0.060435  -0.000751  3.952017  0.0
C  C136  1  0.08450905  0.29581552  0.83163909  1  0.476187  2.9e-05  0.108966  0.060453  -0.000751  3.951745  0.0
C  C137  1  0.41549024  0.79582287  0.66836177  1  0.476062  2.8e-05  0.108955  0.060385  -0.000751  3.951932  0.0
C  C138  1  0.71129925  0.71478686  0.15104399  1  0.519805  -0.000826  0.05911  0.111414  -0.001234  3.924585  0.0
C  C139  1  0.78870033  0.21479067  0.34895893  1  0.520167  -0.000826  0.059024  0.111031  -0.001234  3.924833  0.0
C  C140  1  0.28869708  0.28520451  0.84895881  1  0.520007  -0.000826  0.059077  0.111125  -0.001235  3.924839  0.0
C  C141  1  0.21130313  0.78521137  0.65104157  1  0.519859  -0.000826  0.05915  0.11142  -0.001235  3.924794  0.0
C  C142  1  0.02619039  0.76598485  0.16923949  1  1.609355  -0.001097  0.219586  0.542784  -0.001175  4.199178  -0.001
C  C143  1  0.47381225  0.26598769  0.33075982  1  1.609395  -0.001098  0.219475  0.542539  -0.001175  4.19932  -0.001
C  C144  1  0.97380774  0.23400881  0.83076234  1  1.609441  -0.001097  0.219563  0.542686  -0.001173  4.199308  -0.001
C  C145  1  0.52619043  0.73401282  0.66923801  1  1.609446  -0.001097  0.21954  0.54271  -0.001174  4.199159  -0.001
C  C146  1  0.98931038  0.20566765  0.18759621  1  0.012141  0.005853  -0.071731  -0.100907  0.003937  3.934218  0.005
C  C147  1  0.51069187  0.70567223  0.31240630  1  0.01261  0.005851  -0.071755  -0.100945  0.003937  3.934402  0.005
C  C148  1  0.01068771  0.79432677  0.81240667  1  0.01259  0.005852  -0.07177  -0.100958  0.003937  3.934269  0.005
C  C149  1  0.48930719  0.29432829  0.68759399  1  0.01225  0.005853  -0.071764  -0.100977  0.003937  3.93422  0.005
C  C150  1  0.85077706  0.31475381  0.99576267  1  0.439623  -0.001256  0.066679  0.121998  -0.001777  3.879263  -0.001
C  C151  1  0.64922455  0.81475107  0.50423620  1  0.439644  -0.001255  0.06658  0.121889  -0.001777  3.879251  -0.001
C  C152  1  0.14922566  0.68524518  0.00423411  1  0.439518  -0.001255  0.066614  0.121943  -0.001777  3.879323  -0.001
C  C153  1  0.35077272  0.18524792  0.49576507  1  0.43962  -0.001256  0.06659  0.121889  -0.001777  3.879278  -0.001
C  C154  1  0.91276678  0.59774473  0.17232477  1  -0.005915  0.003117  0.008254  -0.064581  0.002093  3.880573  0.002
C  C155  1  0.58722877  0.09774577  0.32767384  1  -0.005982  0.003117  0.008353  -0.064514  0.002092  3.880573  0.002
C  C156  1  0.08722869  0.40224893  0.82767746  1  -0.006074  0.003117  0.008279  -0.064475  0.002092  3.880366  0.002
C  C157  1  0.41277392  0.90225551  0.67232399  1  -0.005498  0.003118  0.008345  -0.064442  0.002093  3.88048  0.002
C  C158  1  0.70129495  0.60893808  0.15230342  1  -0.031489  0.006035  -0.062448  -0.084465  0.004058  3.913762  0.005
C  C159  1  0.79870240  0.10894035  0.34769368  1  -0.031388  0.006035  -0.062424  -0.084295  0.004058  3.913743  0.005
C  C160  1  0.29870246  0.39105405  0.84769417  1  -0.031137  0.006034  -0.062433  -0.084329  0.004059  3.91368  0.005
C  C161  1  0.20129945  0.89106092  0.65230305  1  -0.031035  0.006034  -0.062469  -0.084485  0.004058  3.913705  0.005
C  C162  1  0.80219343  0.55074020  0.16376925  1  0.005  -0.003282  -0.055285  -0.03867  -0.003838  3.894856  -0.002
C  C163  1  0.69780317  0.05074261  0.33622681  1  0.00505  -0.003281  -0.055318  -0.038841  -0.003838  3.89494  -0.002
C  C164  1  0.19780382  0.44925270  0.83623254  1  0.005301  -0.003281  -0.055408  -0.03896  -0.003838  3.894812  -0.002
C  C165  1  0.30219881  0.94925867  0.66376625  1  0.004324  -0.003282  -0.055342  -0.038837  -0.003838  3.894896  -0.002
C  C166  1  0.02059929  0.53010431  0.18280659  1  1.645218  0.001162  0.217727  0.640384  0.000754  4.211086  0.001
C  C167  1  0.47940018  0.03010641  0.31719380  1  1.645823  0.001162  0.217614  0.640357  0.000754  4.211176  0.001
C  C168  1  0.97939971  0.46989011  0.81719529  1  1.645846  0.001162  0.21766  0.640386  0.000754  4.210984  0.001
C  C169  1  0.52060684  0.96989335  0.68280580  1  1.645479  0.001162  0.217678  0.64039  0.000754  4.211124  0.001
N  N170  1  0.87240258  0.05521914  0.18024255  1  -1.215969  0.08004  -0.346476  -0.257046  0.052514  3.659417  0.069
N  N171  1  0.62759911  0.55522204  0.31975847  1  -1.215643  0.080041  -0.346448  -0.25706  0.052515  3.659432  0.069
N  N172  1  0.12759820  0.94477680  0.81975887  1  -1.215798  0.080043  -0.346496  -0.257032  0.052516  3.659545  0.069
N  N173  1  0.37239904  0.44477924  0.68024284  1  -1.21568  0.080045  -0.34646  -0.257023  0.052518  3.659444  0.069
N  N174  1  0.81598673  0.76013509  0.16000496  1  -1.211105  0.085475  -0.348805  -0.24781  0.055997  3.669585  0.073
N  N175  1  0.68401102  0.26013675  0.33999784  1  -1.211511  0.085475  -0.348884  -0.247766  0.055997  3.669658  0.073
N  N176  1  0.18401044  0.23985857  0.83999893  1  -1.211532  0.085476  -0.348907  -0.247823  0.055998  3.669705  0.073
N  N177  1  0.31598984  0.73986529  0.66000148  1  -1.21114  0.085472  -0.348876  -0.2478  0.055995  3.669715  0.073
N  N178  1  0.95877048  0.35482672  0.99805218  1  -1.196479  0.0791  -0.348044  -0.239379  0.052115  3.657649  0.068
N  N179  1  0.54123190  0.85482640  0.50194775  1  -1.195936  0.079103  -0.348007  -0.239404  0.052117  3.657576  0.068
N  N180  1  0.04123394  0.64517608  0.00194626  1  -1.196421  0.079099  -0.348028  -0.239371  0.052116  3.657722  0.068
N  N181  1  0.45876449  0.14517717  0.49805347  1  -1.196476  0.079106  -0.347973  -0.239171  0.05212  3.65766  0.068
O  O182  1  0.45292208  0.89390653  0.14060199  1  -1.239752  0.001498  -0.620189  -0.832159  0.000899  2.031802  0.001
O  O183  1  0.04707881  0.39390147  0.35939136  1  -1.239607  0.001498  -0.620225  -0.832299  0.0009  2.03161  0.001
O  O184  1  0.54707903  0.10609856  0.85939103  1  -1.239624  0.001498  -0.620216  -0.832314  0.000899  2.031572  0.001
O  O185  1  0.95292121  0.60609981  0.64060688  1  -1.239546  0.001498  -0.620181  -0.832301  0.0009  2.031549  0.001
O  O186  1  0.38764435  0.01665350  0.02545733  1  -1.277535  0.000161  -0.643345  -0.872451  8.1e-05  2.071607  0.0
O  O187  1  0.11236051  0.51664703  0.47454068  1  -1.277842  0.000161  -0.643387  -0.872513  8.1e-05  2.071621  0.0
O  O188  1  0.61236186  0.98335388  0.97454013  1  -1.277908  0.000161  -0.643331  -0.872369  8.1e-05  2.071822  0.0
O  O189  1  0.88764392  0.48334968  0.52545723  1  -1.277693  0.000161  -0.643397  -0.872512  8.1e-05  2.071586  0.0
O  O190  1  0.40459896  0.23154851  0.10127827  1  -1.327897  0.000463  -0.653451  -0.89493  0.000285  2.052106  0.0
O  O191  1  0.09540740  0.73155208  0.39871754  1  -1.328472  0.000463  -0.653482  -0.894984  0.000286  2.051962  0.0
O  O192  1  0.59540642  0.76844820  0.89871810  1  -1.328438  0.000463  -0.653474  -0.894989  0.000285  2.051925  0.0
O  O193  1  0.90459259  0.26844919  0.60128174  1  -1.328433  0.000463  -0.653483  -0.894981  0.000285  2.051954  0.0
O  O194  1  0.27120187  0.20073117  0.21010631  1  -1.232725  -3.8e-05  -0.626923  -0.826508  -7.1e-05  2.041513  0.0
O  O195  1  0.22880431  0.70072637  0.28989530  1  -1.232773  -3.8e-05  -0.626808  -0.82628  -7.1e-05  2.04169  0.0
O  O196  1  0.72880239  0.79927392  0.78989632  1  -1.232892  -3.8e-05  -0.626857  -0.826379  -7.1e-05  2.041626  0.0
O  O197  1  0.77119478  0.29927491  0.71010447  1  -1.232789  -3.8e-05  -0.626795  -0.826301  -7.1e-05  2.04166  0.0
O  O198  1  0.22687226  0.95260827  0.19284548  1  -1.308129  0.00149  -0.633567  -0.859062  0.00087  2.069777  0.001
O  O199  1  0.27312921  0.45260911  0.30715310  1  -1.30864  0.00149  -0.633578  -0.859129  0.00087  2.069808  0.001
O  O200  1  0.77312953  0.04738996  0.80715283  1  -1.308131  0.00149  -0.633585  -0.859165  0.00087  2.069824  0.001
O  O201  1  0.72687075  0.54739140  0.69284671  1  -1.308121  0.00149  -0.633591  -0.859142  0.00087  2.06978  0.001
O  O202  1  0.56665944  0.09247516  0.14880981  1  -1.177967  0.014268  -0.373436  -0.611801  0.008893  2.376706  0.012
O  O203  1  0.93334221  0.59247459  0.35119066  1  -1.177948  0.014266  -0.373384  -0.611732  0.008892  2.376696  0.012
O  O204  1  0.43334139  0.90752535  0.85119057  1  -1.17798  0.014267  -0.373411  -0.611791  0.008893  2.376765  0.012
O  O205  1  0.06665682  0.40752669  0.64881068  1  -1.178055  0.014263  -0.373443  -0.611857  0.00889  2.376794  0.012
O  O206  1  0.19108450  0.10813984  0.08117176  1  -1.186547  0.001517  -0.405464  -0.663047  0.000937  2.274774  0.001
O  O207  1  0.30891654  0.60813931  0.41883022  1  -1.186633  0.001517  -0.405476  -0.663077  0.000937  2.274721  0.001
O  O208  1  0.80891626  0.89186830  0.91883019  1  -1.186472  0.001517  -0.40544  -0.663012  0.000937  2.27463  0.001
O  O209  1  0.69108251  0.39186425  0.58117060  1  -1.186509  0.001517  -0.40544  -0.662974  0.000937  2.274701  0.001
O  O210  1  0.42015260  0.03577283  0.25798529  1  -1.217454  0.001673  -0.441184  -0.735533  0.00108  2.370727  0.001
O  O211  1  0.07984958  0.53577210  0.24201311  1  -1.217343  0.001673  -0.441208  -0.735524  0.001081  2.370729  0.001
O  O212  1  0.57984642  0.96422921  0.74201605  1  -1.217518  0.001672  -0.441164  -0.735481  0.00108  2.370767  0.001
O  O213  1  0.92015212  0.46422842  0.75798731  1  -1.217414  0.001672  -0.441154  -0.735485  0.00108  2.370726  0.001
O  O214  1  0.67634572  0.95268576  0.16839825  1  -1.129853  0.083091  -0.304931  -0.529086  0.052721  2.350565  0.076
O  O215  1  0.82365183  0.45268650  0.33160124  1  -1.129777  0.083094  -0.304966  -0.529181  0.052723  2.350469  0.076
O  O216  1  0.32364807  0.04731019  0.83160181  1  -1.129692  0.083101  -0.304985  -0.529146  0.052727  2.350278  0.076
O  O217  1  0.17634901  0.54731402  0.66839860  1  -1.129773  0.083095  -0.304959  -0.529179  0.052724  2.350392  0.076
O  O218  1  0.19027734  0.07491779  0.96471178  1  -1.169583  0.001513  -0.304689  -0.576282  0.000506  2.243296  0.002
O  O219  1  0.30971878  0.57492318  0.53528962  1  -1.169617  0.001513  -0.304687  -0.576302  0.000506  2.243284  0.002
O  O220  1  0.80972250  0.92508120  0.03529118  1  -1.169278  0.001513  -0.304693  -0.576341  0.000506  2.243336  0.002
O  O221  1  0.69028031  0.42508115  0.46471015  1  -1.169709  0.001513  -0.304668  -0.576277  0.000506  2.243326  0.002
O  O222  1  0.01308017  0.86433720  0.17281543  1  -1.126055  0.094082  -0.312438  -0.537449  0.059308  2.355063  0.086
O  O223  1  0.48692051  0.36434003  0.32718477  1  -1.126145  0.094081  -0.312355  -0.53728  0.059308  2.355052  0.086
O  O224  1  0.98691971  0.13565722  0.82718648  1  -1.126272  0.094075  -0.312384  -0.537342  0.059304  2.355173  0.086
O  O225  1  0.51308126  0.63565972  0.67281407  1  -1.126143  0.09408  -0.312408  -0.537393  0.059307  2.355064  0.086
O  O226  1  0.64728562  0.35029993  0.19861970  1  -1.178776  0.003587  -0.337942  -0.600029  0.001721  2.185595  0.004
O  O227  1  0.85271480  0.85030182  0.30137842  1  -1.178349  0.003588  -0.337927  -0.600003  0.001722  2.185654  0.004
O  O228  1  0.35271627  0.64969449  0.80137599  1  -1.178503  0.003587  -0.337965  -0.600063  0.001721  2.185768  0.004
O  O229  1  0.14728324  0.14969565  0.69862551  1  -1.178581  0.003586  -0.338017  -0.600202  0.001721  2.185595  0.004
O  O230  1  0.62388664  0.28110261  0.08940889  1  -1.172147  0.00231  -0.329143  -0.560817  0.001433  2.139994  0.002
O  O231  1  0.87611741  0.78110507  0.41058944  1  -1.172152  0.00231  -0.329111  -0.560828  0.001433  2.140006  0.002
O  O232  1  0.37611700  0.71889485  0.91058687  1  -1.172036  0.00231  -0.329143  -0.560858  0.001433  2.140098  0.002
O  O233  1  0.12388324  0.21889316  0.58941566  1  -1.171957  0.00231  -0.329239  -0.561014  0.001433  2.139878  0.002
O  O234  1  0.16308789  0.44890807  0.99882447  1  -1.070066  0.105562  -0.316007  -0.510074  0.066576  2.32232  0.096
O  O235  1  0.33691476  0.94890967  0.50117379  1  -1.069919  0.105546  -0.316019  -0.510045  0.066568  2.32251  0.096
O  O236  1  0.83691297  0.55109473  0.00117485  1  -1.069938  0.105567  -0.316044  -0.510203  0.066579  2.32231  0.096
O  O237  1  0.66308433  0.05109694  0.49882598  1  -1.069918  0.105563  -0.316121  -0.51021  0.066577  2.322275  0.096
O  O238  1  0.26376267  0.30126287  0.00214747  1  -1.175746  0.017163  -0.297351  -0.511778  0.010517  2.214843  0.014
O  O239  1  0.23623208  0.80126536  0.49784935  1  -1.175697  0.017165  -0.297259  -0.511765  0.010518  2.214743  0.014
O  O240  1  0.73623728  0.69873917  0.99785287  1  -1.176003  0.017165  -0.29738  -0.511805  0.010519  2.214802  0.014
O  O241  1  0.76376622  0.19874049  0.50214775  1  -1.175826  0.017164  -0.29732  -0.511801  0.010518  2.214741  0.014
O  O242  1  0.12391278  0.72397730  0.16517616  1  -1.160589  0.02344  -0.291552  -0.497503  0.014607  2.195762  0.02
O  O243  1  0.37608727  0.22398026  0.33482358  1  -1.160549  0.023441  -0.291517  -0.497424  0.014607  2.195664  0.02
O  O244  1  0.87608717  0.27601788  0.83482417  1  -1.160604  0.023434  -0.291544  -0.497509  0.014603  2.195793  0.02
O  O245  1  0.62391359  0.77601873  0.66517574  1  -1.160631  0.023439  -0.29156  -0.497537  0.014606  2.195693  0.02
O  O246  1  0.96050307  0.53176180  0.86512000  1  -1.147719  0.001127  -0.311317  -0.553422  0.000203  2.159783  0.002
O  O247  1  0.53950067  0.03176472  0.63488180  1  -1.147349  0.001127  -0.311344  -0.55341  0.000203  2.159885  0.002
O  O248  1  0.03949859  0.46823643  0.13488146  1  -1.147209  0.001127  -0.311321  -0.55337  0.000203  2.159882  0.002
O  O249  1  0.46050373  0.96823656  0.36511715  1  -1.1477  0.001126  -0.311258  -0.553313  0.000203  2.159918  0.002
