# generated using pymatgen
data_CoH11C19(NO3)2
_symmetry_space_group_name_H-M   'P 1'
_cell_length_a   10.93309951
_cell_length_b   16.48942256
_cell_length_c   16.48745525
_cell_angle_alpha   120.00041870
_cell_angle_beta   89.99994792
_cell_angle_gamma   90.00005736
_symmetry_Int_Tables_number   1
_chemical_formula_structural   CoH11C19(NO3)2
_chemical_formula_sum   'Co3 H33 C57 N6 O18'
_cell_volume   2574.13415826
_cell_formula_units_Z   3
loop_
 _symmetry_equiv_pos_site_id
 _symmetry_equiv_pos_as_xyz
  1  'x, y, z'
loop_
 _atom_site_type_symbol
 _atom_site_label
 _atom_site_symmetry_multiplicity
 _atom_site_fract_x
 _atom_site_fract_y
 _atom_site_fract_z
 _atom_site_occupancy
 _atom_site_pbe_bader_charge
 _atom_site_pbe_bader_spin_density
 _atom_site_pbe_cm5_charge
 _atom_site_pbe_ddec_charge
 _atom_site_pbe_ddec_spin_density
 _atom_site_pbe_ddec_sum_bond_order
 _atom_site_pbe_magmom
Co  Co0  1  0.00000095  0.32243471  0.99997857  1  1.259711  0  0.75403  0.806755  0  3.088087  0
Co  Co1  1  0.00000047  0.00008388  0.32261512  1  1.260838  0  0.754824  0.808374  0  3.0888  0
Co  Co2  1  0.00000014  0.67754506  0.67744647  1  1.257134  0  0.754956  0.807844  0  3.091145  0
H  H3  1  0.99999789  0.50169915  0.78842547  1  0.1442  0  0.106458  0.117886  0  1.017759  0
H  H4  1  0.99999939  0.21141061  0.71321907  1  0.132531  0  0.106699  0.118694  0  1.017462  0
H  H5  1  0.99999888  0.28661162  0.49812981  1  0.134482  0  0.106879  0.118813  0  1.017321  0
H  H6  1  0.00000127  0.49832678  0.28695395  1  0.136649  0  0.106378  0.11809  0  1.017556  0
H  H7  1  0.00000079  0.71347437  0.21178559  1  0.141435  0  0.10634  0.117515  0  1.017585  0
H  H8  1  0.00000233  0.78854962  0.50205111  1  0.138876  0  0.106491  0.118005  0  1.017682  0
H  H9  1  0.00000094  0.15109910  0.15122765  1  0.144026  0  0.120054  0.135239  0  0.977329  0
H  H10  1  0.99999996  0.84861640  0.99995875  1  0.136575  0  0.120109  0.135309  0  0.977559  0
H  H11  1  0.00000035  0.99986091  0.84868714  1  0.137453  0  0.1199  0.135139  0  0.976797  0
H  H12  1  0.59152955  0.25009819  0.84793043  1  0.097078  0  0.114884  0.119105  0  0.99871  0
H  H13  1  0.40850963  0.15203483  0.40242487  1  0.087015  0  0.114853  0.119231  0  0.999091  0
H  H14  1  0.59131527  0.59775824  0.74927229  1  0.052679  0  0.115092  0.119175  0  0.999163  0
H  H15  1  0.40847167  0.25009853  0.84793008  1  0.088025  0  0.114885  0.119125  0  0.998704  0
H  H16  1  0.59149068  0.15203457  0.40242391  1  0.09618  0  0.114835  0.119221  0  0.999088  0
H  H17  1  0.40868453  0.59775824  0.74927229  1  0.061741  0  0.115084  0.119158  0  0.999176  0
H  H18  1  0.59157181  0.74983734  0.59758507  1  0.090919  0  0.114973  0.119487  0  0.998085  0
H  H19  1  0.40863200  0.40205493  0.15170015  1  0.089849  0  0.114991  0.119094  0  0.998793  0
H  H20  1  0.59140962  0.84832408  0.25071052  1  0.058674  0  0.11497  0.119011  0  0.999426  0
H  H21  1  0.40842886  0.74983734  0.59758507  1  0.08187  0  0.114973  0.119493  0  0.998084  0
H  H22  1  0.59136884  0.40205493  0.15170015  1  0.099098  0  0.115001  0.119112  0  0.998789  0
H  H23  1  0.40859138  0.84832408  0.25071052  1  0.049618  0  0.114966  0.119005  0  0.999422  0
H  H24  1  0.81743163  0.25223448  0.85509381  1  0.164931  0  0.135781  0.121639  0  0.975931  0
H  H25  1  0.18261669  0.14491073  0.39732896  1  0.165038  0  0.135797  0.117699  0  0.981375  0
H  H26  1  0.81720913  0.60270857  0.74727996  1  0.167124  0  0.13608  0.117706  0  0.980665  0
H  H27  1  0.18256958  0.25223448  0.85509381  1  0.164938  0  0.135776  0.11781  0  0.981088  0
H  H28  1  0.81738362  0.14491073  0.39732896  1  0.165032  0  0.13579  0.117696  0  0.981385  0
H  H29  1  0.18279069  0.60270822  0.74728032  1  0.16709  0  0.136072  0.117694  0  0.980644  0
H  H30  1  0.81747388  0.74778079  0.60274444  1  0.161623  0  0.135784  0.121541  0  0.975685  0
H  H31  1  0.18273632  0.39714488  0.14470415  1  0.167746  0  0.135843  0.121633  0  0.975658  0
H  H32  1  0.81730074  0.85535741  0.25273409  1  0.168364  0  0.13592  0.117633  0  0.981215  0
H  H33  1  0.18252585  0.74778018  0.60274384  1  0.161636  0  0.135754  0.121512  0  0.975692  0
H  H34  1  0.81726453  0.39714488  0.14470415  1  0.167745  0  0.135832  0.121624  0  0.975652  0
H  H35  1  0.18270028  0.85535706  0.25273444  1  0.168375  0  0.135903  0.11758  0  0.981244  0
C  C36  1  0.00000059  0.08538408  0.99997042  1  -0.024494  0  -0.012297  -0.033231  0  3.964111  0
C  C37  1  0.00000048  0.99986453  0.08548303  1  -0.062537  0  -0.011198  -0.030416  0  3.963626  0
C  C38  1  0.00000013  0.91439310  0.91448211  1  -0.060583  0  -0.01092  -0.030023  0  3.963432  0
C  C39  1  0.99999680  0.36005523  0.76137019  1  -0.043354  0  -0.025071  -0.03663  0  4.016646  0
C  C40  1  0.99999593  0.23852549  0.59865910  1  0.024582  0  -0.025075  -0.035608  0  4.017852  0
C  C41  1  0.99999611  0.40121326  0.63977385  1  0.001437  0  -0.0258  -0.037509  0  4.019016  0
C  C42  1  0.00000590  0.63997049  0.40148857  1  0.001535  0  -0.025344  -0.036184  0  4.017949  0
C  C43  1  0.00000698  0.59881394  0.23876456  1  0.02265  0  -0.025032  -0.035978  0  4.014596  0
C  C44  1  0.00000523  0.76155484  0.36040819  1  -0.043199  0  -0.026322  -0.037965  0  4.018603  0
C  C45  1  0.99999603  0.42826796  0.73411092  1  -0.130738  0  -0.085386  -0.119431  0  3.964547  0
C  C46  1  0.99999675  0.26573711  0.69410788  1  -0.07387  0  -0.085615  -0.121283  0  3.965364  0
C  C47  1  0.99999606  0.30576566  0.57158360  1  -0.050348  0  -0.085711  -0.121181  0  3.966509  0
C  C48  1  0.00000685  0.57175027  0.30603862  1  -0.04564  0  -0.085098  -0.120706  0  3.965089  0
C  C49  1  0.00000526  0.69429899  0.26606976  1  -0.079946  0  -0.084647  -0.118624  0  3.963809  0
C  C50  1  0.00000601  0.73428290  0.42859332  1  -0.126554  0  -0.085269  -0.119992  0  3.964338  0
C  C51  1  0.00000093  0.08496565  0.08507928  1  -0.020583  0  -0.057002  -0.081856  0  3.859583  0
C  C52  1  0.00000006  0.91476768  0.99998205  1  0.030685  0  -0.057428  -0.082879  0  3.860264  0
C  C53  1  0.00000026  0.99988413  0.91485364  1  0.027736  0  -0.056679  -0.081516  0  3.858959  0
C  C54  1  0.63559661  0.28380747  0.91623846  1  -0.024811  0  -0.076216  -0.168142  0  3.943412  0
C  C55  1  0.36442693  0.08374540  0.36782694  1  -0.08003  0  -0.076234  -0.168155  0  3.942301  0
C  C56  1  0.63548674  0.63239933  0.71565199  1  -0.0153  0  -0.076311  -0.167576  0  3.942152  0
C  C57  1  0.36440453  0.28380747  0.91623846  1  -0.02481  0  -0.076201  -0.167898  0  3.942073  0
C  C58  1  0.63557328  0.08374540  0.36782694  1  -0.080025  0  -0.076223  -0.168159  0  3.942301  0
C  C59  1  0.36451326  0.63239898  0.71565235  1  -0.01555  0  -0.076311  -0.167569  0  3.942117  0
C  C60  1  0.63561686  0.71611269  0.63218067  1  -0.039243  0  -0.076194  -0.1684  0  3.942772  0
C  C61  1  0.36448811  0.36744518  0.08342488  1  -0.078513  0  -0.076397  -0.167699  0  3.94339  0
C  C62  1  0.63553349  0.91659303  0.28433567  1  0.015948  0  -0.076339  -0.167819  0  3.943056  0
C  C63  1  0.36438270  0.71611269  0.63218067  1  -0.039263  0  -0.076204  -0.16844  0  3.942826  0
C  C64  1  0.63551190  0.36744518  0.08342488  1  -0.078508  0  -0.076407  -0.167719  0  3.943303  0
C  C65  1  0.36446672  0.91659303  0.28433567  1  0.015947  0  -0.076338  -0.167813  0  3.943075  0
C  C66  1  0.00000027  0.17635546  0.00000734  1  1.485404  0  0.206034  0.521724  0  4.14104  0
C  C67  1  0.00000040  0.99986206  0.17643289  1  1.479654  0  0.204419  0.519304  0  4.144286  0
C  C68  1  0.99999924  0.82344924  0.82356187  1  1.474749  0  0.204232  0.5188  0  4.144648  0
C  C69  1  0.76235480  0.28376185  0.91855718  1  0.49236  0  0.061539  0.096059  0  3.898683  0
C  C70  1  0.23767605  0.08145028  0.36541674  1  0.495992  0  0.061519  0.098878  0  3.89937  0
C  C71  1  0.76223396  0.63474064  0.71580056  1  0.494258  0  0.061187  0.099096  0  3.899489  0
C  C72  1  0.23764632  0.28376185  0.91855718  1  0.492516  0  0.061529  0.098472  0  3.898902  0
C  C73  1  0.76232416  0.08145028  0.36541674  1  0.49599  0  0.061528  0.098877  0  3.899374  0
C  C74  1  0.23776604  0.63474029  0.71580091  1  0.494246  0  0.061189  0.09912  0  3.899499  0
C  C75  1  0.76237505  0.71620677  0.63462273  1  0.493371  0  0.061501  0.096432  0  3.89791  0
C  C76  1  0.23773632  0.36513896  0.08120392  1  0.492219  0  0.061127  0.095485  0  3.899731  0
C  C77  1  0.76228346  0.91883628  0.28421035  1  0.491322  0  0.061507  0.099096  0  3.900017  0
C  C78  1  0.23762633  0.71620642  0.63462308  1  0.493367  0  0.061544  0.096499  0  3.89795  0
C  C79  1  0.76226461  0.36513992  0.08120417  1  0.492224  0  0.061147  0.095529  0  3.899652  0
C  C80  1  0.23771767  0.91883628  0.28421035  1  0.491325  0  0.061511  0.099145  0  3.900005  0
C  C81  1  0.56762041  0.32605729  0.99981162  1  0.036151  0  0.012193  0.098611  0  3.986153  0
C  C82  1  0.43238197  0.00017899  0.32654302  1  -0.114593  0  0.012075  0.098922  0  3.985718  0
C  C83  1  0.56762047  0.67380970  0.67343981  1  0.03042  0  0.011889  0.098193  0  3.985815  0
C  C84  1  0.43238062  0.32605729  0.99981162  1  -0.116265  0  0.012201  0.098645  0  3.986276  0
C  C85  1  0.56761901  0.00017899  0.32654302  1  0.037885  0  0.012091  0.098976  0  3.985707  0
C  C86  1  0.43237977  0.67380970  0.67343981  1  -0.1219  0  0.011908  0.098239  0  3.985781  0
C  C87  1  0.00000307  0.39709898  0.86556878  1  1.52859  0  0.203264  0.541683  0  4.228608  0
C  C88  1  0.00000313  0.13438267  0.53152149  1  1.534791  0  0.203133  0.541473  0  4.229116  0
C  C89  1  0.00000720  0.46815660  0.60245503  1  1.513699  0  0.203309  0.540378  0  4.231584  0
C  C90  1  0.99998202  0.60300626  0.46864595  1  1.519497  0  0.203058  0.540628  0  4.230066  0
C  C91  1  0.99999883  0.53174386  0.13450629  1  1.527068  0  0.202853  0.540212  0  4.229104  0
C  C92  1  0.99999623  0.86579815  0.39769771  1  1.524401  0  0.203449  0.540851  0  4.229175  0
N  N93  1  0.82505518  0.32402254  0.99990527  1  -1.157646  0  -0.325899  -0.165809  0  3.625023  0
N  N94  1  0.17494994  0.00013035  0.32431703  1  -1.160811  0  -0.326142  -0.166341  0  3.622209  0
N  N95  1  0.82504975  0.67593585  0.67571367  1  -1.156231  0  -0.326128  -0.166675  0  3.623665  0
N  N96  1  0.17494493  0.32402254  0.99990527  1  -1.157788  0  -0.325897  -0.165451  0  3.623425  0
N  N97  1  0.82505013  0.00013035  0.32431703  1  -1.160814  0  -0.326144  -0.166329  0  3.622215  0
N  N98  1  0.17495140  0.67593551  0.67571402  1  -1.156203  0  -0.326126  -0.166711  0  3.623715  0
O  O99  1  0.99999841  0.33070355  0.88856852  1  -1.050206  0  -0.301151  -0.533028  0  2.416147  0
O  O100  1  0.99999778  0.11145900  0.44214694  1  -1.054941  0  -0.301247  -0.532655  0  2.417359  0
O  O101  1  0.99999631  0.55760766  0.66867403  1  -1.046659  0  -0.301344  -0.531978  0  2.414091  0
O  O102  1  0.00000848  0.66948522  0.55798963  1  -1.049445  0  -0.301038  -0.533087  0  2.420078  0
O  O103  1  0.00000326  0.44229938  0.11135396  1  -1.05163  0  -0.300519  -0.533094  0  2.41403  0
O  O104  1  0.00000180  0.88898561  0.33143640  1  -1.049251  0  -0.301604  -0.532826  0  2.41445  0
O  O105  1  0.00000028  0.25576457  0.07649572  1  -1.063187  0  -0.277228  -0.463654  0  2.175306  0
O  O106  1  0.00000028  0.92342332  0.17944159  1  -1.053402  0  -0.276588  -0.462808  0  2.175199  0
O  O107  1  0.99999935  0.82050451  0.74411954  1  -1.056165  0  -0.276788  -0.463056  0  2.178023  0
O  O108  1  0.99999913  0.74402781  0.82060655  1  -1.054697  0  -0.276543  -0.462641  0  2.175624  0
O  O109  1  0.99999992  0.17934741  0.92353832  1  -1.055205  0  -0.277117  -0.463478  0  2.175977  0
O  O110  1  0.99999976  0.07635527  0.25585203  1  -1.063927  0  -0.277001  -0.463334  0  2.177348  0
O  O111  1  0.00001411  0.48220360  0.91614782  1  -1.104394  0  -0.284324  -0.450459  0  2.21433  0
O  O112  1  0.00001399  0.08378965  0.56603468  1  -1.08823  0  -0.28417  -0.450275  0  2.21528  0
O  O113  1  0.00003104  0.43326937  0.51729553  1  -1.061898  0  -0.284265  -0.449323  0  2.217369  0
O  O114  1  0.99993346  0.51792109  0.43423238  1  -1.086495  0  -0.284542  -0.450322  0  2.2153  0
O  O115  1  0.99998706  0.56646850  0.08409012  1  -1.082632  0  -0.284584  -0.449945  0  2.215176  0
O  O116  1  0.99998430  0.91608778  0.48285269  1  -1.105805  0  -0.284237  -0.449291  0  2.215881  0
