# generated using pymatgen
data_Zn4H38C55(NO5)4
_symmetry_space_group_name_H-M   'P 1'
_cell_length_a   9.66231652
_cell_length_b   11.04837872
_cell_length_c   26.32416072
_cell_angle_alpha   92.15743049
_cell_angle_beta   83.87916275
_cell_angle_gamma   89.73389061
_symmetry_Int_Tables_number   1
_chemical_formula_structural   Zn4H38C55(NO5)4
_chemical_formula_sum   'Zn4 H38 C55 N4 O20'
_cell_volume   2792.07452787
_cell_formula_units_Z   1
loop_
 _symmetry_equiv_pos_site_id
 _symmetry_equiv_pos_as_xyz
  1  'x, y, z'
loop_
 _atom_site_type_symbol
 _atom_site_label
 _atom_site_symmetry_multiplicity
 _atom_site_fract_x
 _atom_site_fract_y
 _atom_site_fract_z
 _atom_site_occupancy
 _atom_site_pbe_bader_charge
 _atom_site_pbe_bader_spin_density
 _atom_site_pbe_cm5_charge
 _atom_site_pbe_ddec_charge
 _atom_site_pbe_ddec_spin_density
 _atom_site_pbe_ddec_sum_bond_order
 _atom_site_pbe_magmom
Zn  Zn0  1  0.63713170  0.49039146  0.49668216  1  1.293016  0  0.666979  0.818062  0  2.416916  0
Zn  Zn1  1  0.34983474  0.49764691  0.50586465  1  1.281327  0  0.665008  0.807167  0  2.445368  0
Zn  Zn2  1  0.36258478  0.50756890  0.08665131  1  1.292614  0  0.666205  0.824172  0  2.395611  0
Zn  Zn3  1  0.65029449  0.51017145  0.07475284  1  1.274947  0  0.666574  0.807585  0  2.440276  0
H  H4  1  0.09229620  0.63637129  0.55967314  1  0.145351  0  0.139662  0.120822  0  0.955834  0
H  H5  1  0.15924466  0.35970619  0.44896227  1  0.152205  0  0.134867  0.118804  0  0.987733  0
H  H6  1  0.83067768  0.62865698  0.55118702  1  0.167342  0  0.13797  0.121429  0  0.969059  0
H  H7  1  0.72197372  0.88595319  0.49776328  1  0.098219  0  0.101126  0.104334  0  1.00716  0
H  H8  1  0.27678863  0.87378118  0.50933419  1  0.09412  0  0.099004  0.104148  0  1.019589  0
H  H9  1  0.70879681  0.11267142  0.49983219  1  0.073834  0  0.099514  0.099933  0  1.025028  0
H  H10  1  0.26100719  0.52188846  0.67390620  1  0.062294  0  0.097109  0.093979  0  1.040079  0
H  H11  1  0.69993179  0.47364542  0.64888860  1  0.039846  0  0.094664  0.086622  0  1.056719  0
H  H12  1  0.73580658  0.46756616  0.90578974  1  0.095128  0  0.108737  0.122467  0  1.005221  0
H  H13  1  0.29729974  0.53057706  0.93311620  1  0.049379  0  0.095726  0.083565  0  1.059768  0
H  H14  1  0.30164144  0.43702644  0.24879899  1  0.051622  0  0.100933  0.103068  0  1.016166  0
H  H15  1  0.71220599  0.58563249  0.23824200  1  0.094926  0  0.100866  0.106822  0  1.011982  0
H  H16  1  0.30109947  0.43140310  0.34385694  1  0.082691  0  0.098572  0.099757  0  1.009883  0
H  H17  1  0.90916984  0.62898913  0.01705553  1  0.131729  0  0.140499  0.122041  0  0.952897  0
H  H18  1  0.84048855  0.38928468  0.13431068  1  0.140527  0  0.134399  0.119697  0  0.98648  0
H  H19  1  0.16976440  0.62762066  0.02791026  1  0.149348  0  0.136129  0.119001  0  0.974976  0
H  H20  1  0.27577410  0.90235027  0.08552651  1  0.082785  0  0.100638  0.104627  0  1.005847  0
H  H21  1  0.72122336  0.88612826  0.07145640  1  0.055466  0  0.099422  0.104467  0  1.020103  0
H  H22  1  0.28765592  0.12871954  0.08343215  1  0.078464  0  0.098807  0.099337  0  1.02333  0
H  H23  1  0.81759893  0.25807230  0.45279814  1  0.116052  0  0.110006  0.169642  0  1.00073  0
H  H24  1  0.81755183  0.36720169  0.40628052  1  0.127976  0  0.111998  0.173324  0  1.002366  0
H  H25  1  0.96933672  0.27286286  0.40791229  1  0.06074  0  0.102719  0.145924  0  0.984386  0
H  H26  1  0.13890272  0.03852256  0.51777534  1  0.03746  0  0.086948  0.117009  0  1.007801  0
H  H27  1  0.20163714  0.17962818  0.54139296  1  0.04209  0  0.093942  0.13898  0  0.99422  0
H  H28  1  0.19915120  0.15332277  0.47523590  1  0.064771  0  0.088776  0.123339  0  1.013462  0
H  H29  1  0.81470796  0.65001471  0.30995245  1  0.026738  0  0.089257  0.121537  0  1.001955  0
H  H30  1  0.72297580  0.65291301  0.37262757  1  0.067832  0  0.095174  0.141535  0  0.993676  0
H  H31  1  0.81718346  0.52252918  0.34915611  1  0.053972  0  0.088523  0.124563  0  1.012922  0
H  H32  1  0.17421525  0.28410613  0.13505052  1  0.107552  0  0.110721  0.169669  0  0.992617  0
H  H33  1  0.18642001  0.41105891  0.17630944  1  0.129559  0  0.107685  0.168531  0  1.015241  0
H  H34  1  0.02846687  0.32420902  0.18059286  1  0.064711  0  0.102905  0.146026  0  0.985529  0
H  H35  1  0.85817170  0.04889280  0.06314803  1  0.014839  0  0.086022  0.116242  0  1.008425  0
H  H36  1  0.79386301  0.18486677  0.03892214  1  0.059648  0  0.095147  0.141171  0  0.989511  0
H  H37  1  0.79800591  0.17303437  0.10511677  1  0.015611  0  0.087878  0.123135  0  1.014256  0
H  H38  1  0.14287094  0.52791035  0.89791204  1  0.622369  0  0.326717  0.349823  0  0.910119  0
H  H39  1  0.10770208  0.50093802  0.72849599  1  0.612578  0  0.328657  0.357764  0  0.906592  0
H  H40  1  0.95760793  0.46632783  0.80026615  1  0.658137  0  0.307454  0.352319  0  0.966548  0
H  H41  1  0.84383453  0.42021120  0.68429220  1  0.589611  0  0.324819  0.355531  0  0.908805  0
C  C42  1  0.50250113  0.73091857  0.50234475  1  1.537283  0  0.21609  0.594482  0  4.159114  0
C  C43  1  0.47708649  0.49973498  0.60122675  1  1.538989  0  0.213887  0.600169  0  4.149683  0
C  C44  1  0.49058777  0.25642778  0.50231888  1  1.561544  0  0.21698  0.59733  0  4.151688  0
C  C45  1  0.49840521  0.49378670  0.40120085  1  1.53463  0  0.216876  0.599266  0  4.154854  0
C  C46  1  0.49620412  0.74518381  0.07996704  1  1.584491  0  0.215452  0.595476  0  4.156879  0
C  C47  1  0.52026500  0.50157263  0.98076732  1  1.535706  0  0.215685  0.600681  0  4.148919  0
C  C48  1  0.50559740  0.27124272  0.08009277  1  1.496828  0  0.216466  0.596603  0  4.150004  0
C  C49  1  0.51080289  0.51412260  0.18076621  1  1.55736  0  0.216609  0.595374  0  4.163208  0
C  C50  1  0.94124874  0.41211923  0.46694962  1  0.557256  0  0.149407  0.297262  0  3.904945  0
C  C51  1  0.04749386  0.57293732  0.53338290  1  0.476353  0  0.070093  0.040013  0  3.898184  0
C  C52  1  0.08416872  0.41874574  0.47183303  1  0.477503  0  0.075597  0.004074  0  3.822877  0
C  C53  1  0.90561358  0.56856811  0.52873558  1  0.496084  0  0.071107  0.06276  0  3.896908  0
C  C54  1  0.48629165  0.12079130  0.50360683  1  -0.134234  0  -0.01514  -0.090553  0  3.896538  0
C  C55  1  0.49913422  0.86654161  0.50315975  1  -0.032039  0  -0.015354  -0.013921  0  3.983228  0
C  C56  1  0.36091754  0.05407202  0.50688956  1  0.036204  0  0.003293  0.168206  0  3.917275  0
C  C57  1  0.62220098  0.93333125  0.50036969  1  -0.038788  0  -0.092177  -0.109729  0  4.012477  0
C  C58  1  0.37130048  0.92769547  0.50677822  1  -0.063287  0  -0.086924  -0.160791  0  3.93343  0
C  C59  1  0.61445859  0.05883651  0.50108342  1  0.067864  0  -0.088304  -0.094112  0  4.014699  0
C  C60  1  0.35764343  0.50828404  0.69103276  1  -0.064533  0  -0.101181  -0.164877  0  3.976977  0
C  C61  1  0.36166535  0.50744774  0.74422226  1  0.044919  0  -0.014935  -0.008241  0  4.074165  0
C  C62  1  0.23901064  0.52030080  0.77979854  1  0.521991  0  0.061599  0.130112  0  4.050391  0
C  C63  1  0.60848372  0.48061691  0.67704203  1  -0.040669  0  -0.102465  -0.168618  0  3.988294  0
C  C64  1  0.61752699  0.47751449  0.72983056  1  0.007752  0  -0.016603  -0.006694  0  4.086953  0
C  C65  1  0.74705517  0.45964999  0.75051194  1  0.42393  0  0.050294  0.104175  0  4.085085  0
C  C66  1  0.63667324  0.48004139  0.89053818  1  0.059391  0  -0.081099  -0.119733  0  3.903229  0
C  C67  1  0.63104845  0.47822340  0.83745739  1  -0.035479  0  -0.007819  0.002712  0  4.013792  0
C  C68  1  0.75535432  0.46092279  0.80257308  1  0.591968  0  0.073815  0.165647  0  4.089318  0
C  C69  1  0.38745856  0.51502465  0.90488220  1  -0.063862  0  -0.09584  -0.155298  0  3.989851  0
C  C70  1  0.37741007  0.51234892  0.85222050  1  0.013491  0  -0.018378  -0.020319  0  4.095541  0
C  C71  1  0.24661869  0.52534841  0.83175196  1  0.476476  0  0.067925  0.145412  0  4.087743  0
C  C72  1  0.48036702  0.49587770  0.65786973  1  0.011369  0  -0.023025  -0.013532  0  4.003857  0
C  C73  1  0.49288815  0.49273247  0.76415088  1  0.060487  0  -0.00775  0.0012  0  3.975442  0
C  C74  1  0.51553971  0.49836496  0.92400460  1  0.018291  0  -0.020444  -0.021987  0  3.995501  0
C  C75  1  0.50051014  0.49391405  0.81755239  1  -0.019159  0  -0.005965  -0.001172  0  3.992217  0
C  C76  1  0.50726836  0.50228522  0.34425563  1  0.039673  0  -0.014278  -0.088322  0  3.909362  0
C  C77  1  0.50841705  0.51031366  0.23775927  1  -0.108322  0  -0.017044  -0.016817  0  3.984406  0
C  C78  1  0.62562853  0.54780044  0.31494599  1  -0.065874  0  -0.000218  0.160699  0  3.931882  0
C  C79  1  0.39141424  0.46722028  0.26744487  1  0.000134  0  -0.092434  -0.109505  0  4.009741  0
C  C80  1  0.62298722  0.55032435  0.26189750  1  0.038416  0  -0.08912  -0.164724  0  3.939195  0
C  C81  1  0.39156864  0.46387460  0.32008848  1  -0.05588  0  -0.090471  -0.095816  0  4.020803  0
C  C82  1  0.05814659  0.43733114  0.11620757  1  0.560175  0  0.150731  0.298329  0  3.901518  0
C  C83  1  0.95332696  0.57491382  0.04524492  1  0.493584  0  0.071296  0.042602  0  3.895122  0
C  C84  1  0.91571593  0.44079437  0.11021938  1  0.500009  0  0.074884  0.004381  0  3.823411  0
C  C85  1  0.09464337  0.57390277  0.05112472  1  0.514883  0  0.069431  0.058904  0  3.899602  0
C  C86  1  0.51028421  0.13522539  0.07865066  1  0.033383  0  -0.015045  -0.090909  0  3.896698  0
C  C87  1  0.49880932  0.88080384  0.07901392  1  -0.060652  0  -0.015123  -0.013614  0  3.97925  0
C  C88  1  0.63605109  0.06723285  0.07464208  1  -0.022793  0  0.004507  0.168132  0  3.916416  0
C  C89  1  0.37535137  0.94879175  0.08243562  1  -0.018124  0  -0.091746  -0.108771  0  4.00925  0
C  C90  1  0.62632106  0.94088714  0.07468427  1  0.030341  0  -0.089383  -0.163143  0  3.935009  0
C  C91  1  0.38238652  0.07423433  0.08174442  1  -0.077528  0  -0.088453  -0.094203  0  4.014144  0
C  C92  1  0.88494655  0.32231300  0.43106880  1  -0.110736  0  -0.232586  -0.471965  0  3.917073  0
C  C93  1  0.21722956  0.10935443  0.51072243  1  -0.075047  0  -0.242907  -0.408223  0  3.989272  0
C  C94  1  0.75156504  0.59635629  0.33788997  1  -0.048002  0  -0.239911  -0.407343  0  3.98116  0
C  C95  1  0.11347056  0.35991192  0.15465746  1  -0.119831  0  -0.23171  -0.470455  0  3.920989  0
C  C96  1  0.77946874  0.12133163  0.07005379  1  -0.005401  0  -0.24191  -0.407004  0  3.987413  0
N  N97  1  0.85374187  0.48874067  0.49606143  1  -1.227322  0  -0.290234  -0.206449  0  3.416602  0
N  N98  1  0.13549289  0.49722158  0.50471385  1  -1.20873  0  -0.294391  -0.133399  0  3.524806  0
N  N99  1  0.14587986  0.50565147  0.08612072  1  -1.230329  0  -0.288861  -0.203171  0  3.411497  0
N  N100  1  0.86499555  0.50808867  0.07522685  1  -1.213378  0  -0.292809  -0.133462  0  3.522492  0
O  O101  1  0.62071923  0.67808371  0.49380573  1  -1.166582  0  -0.319296  -0.555671  0  2.30719  0
O  O102  1  0.38521279  0.67836605  0.51007994  1  -1.168905  0  -0.320278  -0.548397  0  2.345502  0
O  O103  1  0.35937989  0.49072364  0.58367503  1  -1.168178  0  -0.324275  -0.549042  0  2.290494  0
O  O104  1  0.59421174  0.51122490  0.57445233  1  -1.174788  0  -0.323081  -0.561498  0  2.353618  0
O  O105  1  0.37739972  0.31344740  0.49832228  1  -1.165498  0  -0.310751  -0.542617  0  2.368745  0
O  O106  1  0.60857677  0.30642979  0.50483544  1  -1.169809  0  -0.319474  -0.554804  0  2.343272  0
O  O107  1  0.61199156  0.47637159  0.42082869  1  -1.160868  0  -0.31077  -0.545798  0  2.37005  0
O  O108  1  0.37836675  0.50319108  0.42612829  1  -1.174409  0  -0.319565  -0.554855  0  2.319673  0
O  O109  1  0.37870926  0.69457277  0.09010365  1  -1.169091  0  -0.321196  -0.552523  0  2.302076  0
O  O110  1  0.61331033  0.69042164  0.07064188  1  -1.161057  0  -0.319548  -0.549203  0  2.341214  0
O  O111  1  0.63799411  0.48740970  0.99755958  1  -1.157444  0  -0.319195  -0.542268  0  2.291291  0
O  O112  1  0.40441176  0.51848859  0.00841135  1  -1.181464  0  -0.322806  -0.565967  0  2.353734  0
O  O113  1  0.61862191  0.32830903  0.08423708  1  -1.158774  0  -0.310358  -0.543323  0  2.365518  0
O  O114  1  0.38751675  0.32176708  0.07772764  1  -1.170375  0  -0.319924  -0.5539  0  2.332531  0
O  O115  1  0.39466639  0.49943128  0.16230895  1  -1.174778  0  -0.316625  -0.552386  0  2.34942  0
O  O116  1  0.62745001  0.53084618  0.15489074  1  -1.16653  0  -0.316792  -0.554079  0  2.321801  0
O  O117  1  0.12496036  0.54174655  0.86287951  1  -1.126716  0  -0.345738  -0.401457  0  2.312161  0
O  O118  1  0.10802367  0.53010096  0.76388366  1  -1.123346  0  -0.339714  -0.417412  0  2.375637  0
O  O119  1  0.87524341  0.44488900  0.82371072  1  -1.159708  0  -0.35321  -0.429202  0  2.362202  0
O  O120  1  0.86907482  0.44087142  0.71838678  1  -1.119867  0  -0.366151  -0.450696  0  2.308677  0
