# generated using pymatgen
data_Tl2H2C4S(NO)2
_symmetry_space_group_name_H-M   'P 1'
_cell_length_a   3.92756027
_cell_length_b   12.82822263
_cell_length_c   15.10207817
_cell_angle_alpha   90.00033685
_cell_angle_beta   96.06419649
_cell_angle_gamma   89.99917637
_symmetry_Int_Tables_number   1
_chemical_formula_structural   Tl2H2C4S(NO)2
_chemical_formula_sum   'Tl8 H8 C16 S4 N8 O8'
_cell_volume   756.63946629
_cell_formula_units_Z   4
loop_
 _symmetry_equiv_pos_site_id
 _symmetry_equiv_pos_as_xyz
  1  'x, y, z'
loop_
 _atom_site_type_symbol
 _atom_site_label
 _atom_site_symmetry_multiplicity
 _atom_site_fract_x
 _atom_site_fract_y
 _atom_site_fract_z
 _atom_site_occupancy
 _atom_site_hle17_bader_spin_density
 _atom_site_hle17_ddec_charge
 _atom_site_hle17_ddec_spin_density
 _atom_site_hle17_ddec_sum_bond_order
 _atom_site_hle17_magmom
 _atom_site_hse06_10hf_bader_spin_density
 _atom_site_hse06_10hf_ddec_charge
 _atom_site_hse06_10hf_ddec_spin_density
 _atom_site_hse06_10hf_ddec_sum_bond_order
 _atom_site_hse06_10hf_magmom
 _atom_site_hse06_bader_spin_density
 _atom_site_hse06_ddec_charge
 _atom_site_hse06_ddec_spin_density
 _atom_site_hse06_ddec_sum_bond_order
 _atom_site_hse06_magmom
 _atom_site_pbe_bader_spin_density
 _atom_site_pbe_cm5_charge
 _atom_site_pbe_ddec_charge
 _atom_site_pbe_ddec_spin_density
 _atom_site_pbe_ddec_sum_bond_order
 _atom_site_pbe_magmom
Tl  Tl0  1  0.50638678  0.67152927  0.93797207  1  0  0.707063  0  1.029303  0  0  0.595329  0  1.345698  0  0  0.627412  0  1.324559  0  0  0.320503  0.571647  0  1.360895  0
Tl  Tl1  1  0.99361650  0.17152855  0.56202536  1  0  0.706984  0  1.029412  0  0  0.595275  0  1.345781  0  0  0.627342  0  1.324665  0  0  0.320459  0.571594  0  1.360982  0
Tl  Tl2  1  0.49361409  0.32847330  0.06202862  1  0  0.707031  0  1.029339  0  0  0.595334  0  1.345695  0  0  0.627387  0  1.324605  0  0  0.320492  0.571648  0  1.360895  0
Tl  Tl3  1  0.00637929  0.82847324  0.43797385  1  0  0.706977  0  1.029426  0  0  0.595288  0  1.345773  0  0  0.627338  0  1.324681  0  0  0.320471  0.571607  0  1.360971  0
Tl  Tl4  1  0.30135143  0.09808538  0.89876843  1  0  0.730541  0  1.036198  0  0  0.604349  0  1.356034  0  0  0.63659  0  1.335158  0  0  0.336912  0.580697  0  1.370944  0
Tl  Tl5  1  0.19864677  0.59808682  0.60122789  1  0  0.730508  0  1.036242  0  0  0.604312  0  1.356056  0  0  0.636538  0  1.335204  0  0  0.336894  0.580657  0  1.370963  0
Tl  Tl6  1  0.69865467  0.90191485  0.10122911  1  0  0.73054  0  1.036207  0  0  0.604347  0  1.356013  0  0  0.63658  0  1.335166  0  0  0.336896  0.580695  0  1.370925  0
Tl  Tl7  1  0.80133614  0.40191497  0.39877359  1  0  0.730545  0  1.036233  0  0  0.604297  0  1.356108  0  0  0.63658  0  1.335178  0  0  0.336885  0.58064  0  1.371022  0
H  H8  1  0.61890685  0.24438656  0.74523628  1  0  0.323259  0  0.908783  0  0  0.300273  0  0.979576  0  0  0.31034  0  0.970494  0  0  0.304285  0.293182  0  0.986007  0
H  H9  1  0.88109580  0.74438279  0.75475951  1  0  0.32322  0  0.908804  0  0  0.300221  0  0.979617  0  0  0.310289  0  0.970536  0  0  0.304258  0.293127  0  0.986057  0
H  H10  1  0.38109661  0.75561523  0.25476382  1  0  0.323214  0  0.908852  0  0  0.300221  0  0.979664  0  0  0.31029  0  0.970576  0  0  0.304254  0.29313  0  0.986098  0
H  H11  1  0.11889995  0.25561588  0.24524103  1  0  0.323212  0  0.908825  0  0  0.300218  0  0.979627  0  0  0.310286  0  0.970543  0  0  0.304251  0.293126  0  0.986066  0
H  H12  1  0.05269825  0.46908132  0.92839025  1  0  0.095638  0  1.04455  0  0  0.10635  0  1.115713  0  0  0.109049  0  1.117517  0  0  0.088153  0.104513  0  1.114641  0
H  H13  1  0.44731675  0.96908144  0.57160449  1  0  0.095612  0  1.044496  0  0  0.106294  0  1.115732  0  0  0.108995  0  1.117537  0  0  0.088131  0.104458  0  1.114658  0
H  H14  1  0.94731540  0.53091814  0.07161148  1  0  0.095722  0  1.044451  0  0  0.106403  0  1.115678  0  0  0.109105  0  1.117479  0  0  0.088198  0.104566  0  1.114606  0
H  H15  1  0.55267649  0.03091489  0.42839464  1  0  0.095644  0  1.044496  0  0  0.106315  0  1.115744  0  0  0.109018  0  1.117542  0  0  0.088135  0.104476  0  1.114672  0
C  C16  1  0.64319409  0.39526461  0.69536824  1  0  0.493264  0  3.804824  0  0  0.449673  0  4.093717  0  0  0.477417  0  4.101394  0  0  0.239002  0.43106  0  4.087778  0
C  C17  1  0.85680697  0.89525817  0.80462695  1  0  0.493312  0  3.804636  0  0  0.449688  0  4.093582  0  0  0.477427  0  4.101264  0  0  0.239107  0.431075  0  4.087643  0
C  C18  1  0.35679647  0.60473563  0.30463413  1  0  0.493289  0  3.804762  0  0  0.449661  0  4.093709  0  0  0.477401  0  4.101393  0  0  0.239005  0.431051  0  4.087767  0
C  C19  1  0.14319400  0.10473973  0.19537109  1  0  0.493355  0  3.80466  0  0  0.449683  0  4.09368  0  0  0.477424  0  4.101352  0  0  0.239075  0.43107  0  4.087746  0
C  C20  1  0.89103883  0.52274971  0.79385524  1  0  0.584563  0  3.92627  0  0  0.548598  0  4.194535  0  0  0.578256  0  4.19956  0  0  0.191105  0.528777  0  4.190076  0
C  C21  1  0.60899432  0.02274156  0.70613767  1  0  0.584389  0  3.926206  0  0  0.548494  0  4.19435  0  0  0.578148  0  4.19939  0  0  0.19112  0.528675  0  4.189877  0
C  C22  1  0.10895948  0.47725286  0.20614537  1  0  0.584717  0  3.925993  0  0  0.548735  0  4.194278  0  0  0.578392  0  4.199306  0  0  0.191226  0.528913  0  4.189819  0
C  C23  1  0.39101695  0.97725477  0.29385869  1  0  0.584428  0  3.926286  0  0  0.548531  0  4.19444  0  0  0.578186  0  4.19947  0  0  0.191167  0.528709  0  4.189969  0
C  C24  1  0.82261501  0.34460378  0.84757441  1  0  0.59884  0  3.894736  0  0  0.556772  0  4.165451  0  0  0.587207  0  4.169241  0  0  0.203027  0.536449  0  4.161887  0
C  C25  1  0.67739079  0.84460177  0.65242331  1  0  0.598695  0  3.894596  0  0  0.556628  0  4.165324  0  0  0.587065  0  4.169115  0  0  0.203062  0.536305  0  4.161763  0
C  C26  1  0.17738840  0.65539724  0.15242701  1  0  0.598766  0  3.894649  0  0  0.556718  0  4.165333  0  0  0.587151  0  4.169121  0  0  0.20303  0.536395  0  4.161772  0
C  C27  1  0.32260496  0.15539535  0.34757723  1  0  0.598743  0  3.89472  0  0  0.556694  0  4.165412  0  0  0.587129  0  4.169197  0  0  0.20305  0.536369  0  4.161859  0
C  C28  1  0.92869265  0.44827735  0.86291579  1  0  -0.516789  0  3.752962  0  0  -0.528253  0  4.012768  0  0  -0.553637  0  4.034707  0  0  -0.156221  -0.511446  0  3.997746  0
C  C29  1  0.57131868  0.94827882  0.63708461  1  0  -0.516652  0  3.753273  0  0  -0.528114  0  4.01303  0  0  -0.553491  0  4.034955  0  0  -0.156194  -0.511314  0  3.998014  0
C  C30  1  0.07131584  0.55172445  0.13708711  1  0  -0.516823  0  3.752951  0  0  -0.528283  0  4.012783  0  0  -0.553659  0  4.034708  0  0  -0.156255  -0.511477  0  3.997765  0
C  C31  1  0.42867449  0.05171907  0.36291651  1  0  -0.516599  0  3.753193  0  0  -0.528062  0  4.012919  0  0  -0.553441  0  4.034852  0  0  -0.156115  -0.511256  0  3.997905  0
S  S32  1  0.46708303  0.36043128  0.58979465  1  0  -0.602699  0  2.17335  0  0  -0.527676  0  2.51472  0  0  -0.556448  0  2.515239  0  0  -0.162674  -0.506921  0  2.514164  0
S  S33  1  0.03291361  0.86043247  0.91020429  1  0  -0.60279  0  2.173176  0  0  -0.527785  0  2.514607  0  0  -0.556552  0  2.515126  0  0  -0.162738  -0.507032  0  2.51405  0
S  S34  1  0.53291016  0.63957129  0.41020581  1  0  -0.602718  0  2.173363  0  0  -0.52772  0  2.514821  0  0  -0.55649  0  2.515344  0  0  -0.162704  -0.506968  0  2.514262  0
S  S35  1  0.96709759  0.13957088  0.08979406  1  0  -0.602758  0  2.173201  0  0  -0.52776  0  2.514698  0  0  -0.556521  0  2.515215  0  0  -0.162717  -0.507008  0  2.514134  0
N  N36  1  0.68493065  0.32125059  0.76061940  1  0  -0.449507  0  3.25858  0  0  -0.380763  0  3.491129  0  0  -0.404253  0  3.495312  0  0  -0.378535  -0.365086  0  3.488105  0
N  N37  1  0.81506593  0.82125246  0.73937859  1  0  -0.449354  0  3.258876  0  0  -0.380598  0  3.491468  0  0  -0.404085  0  3.495653  0  0  -0.378466  -0.364921  0  3.488444  0
N  N38  1  0.31506762  0.67875121  0.23938253  1  0  -0.449404  0  3.258563  0  0  -0.380659  0  3.49114  0  0  -0.404142  0  3.495319  0  0  -0.378462  -0.364979  0  3.488108  0
N  N39  1  0.18493238  0.17874699  0.26062202  1  0  -0.449365  0  3.258736  0  0  -0.380611  0  3.491349  0  0  -0.404106  0  3.49555  0  0  -0.378433  -0.364915  0  3.488283  0
N  N40  1  0.73672175  0.49372314  0.71084911  1  0  -0.587482  0  3.105458  0  0  -0.510582  0  3.365466  0  0  -0.539271  0  3.376771  0  0  -0.347386  -0.490989  0  3.35709  0
N  N41  1  0.76328766  0.99372559  0.78914816  1  0  -0.587404  0  3.10524  0  0  -0.51051  0  3.365237  0  0  -0.539201  0  3.37655  0  0  -0.347415  -0.490917  0  3.356857  0
N  N42  1  0.26326619  0.50627787  0.28915517  1  0  -0.587578  0  3.105348  0  0  -0.510639  0  3.365356  0  0  -0.53934  0  3.37668  0  0  -0.347454  -0.491047  0  3.356978  0
N  N43  1  0.23672357  0.00627465  0.21084953  1  0  -0.587481  0  3.105285  0  0  -0.510572  0  3.365306  0  0  -0.539257  0  3.376608  0  0  -0.347433  -0.49098  0  3.356927  0
O  O44  1  0.99290531  0.61826547  0.80349913  1  0  -0.679259  0  2.004133  0  0  -0.601134  0  2.233435  0  0  -0.62987  0  2.22806  0  0  -0.319379  -0.580449  0  2.236096  0
O  O45  1  0.50711592  0.11827253  0.69649259  1  0  -0.679223  0  2.003331  0  0  -0.601158  0  2.232664  0  0  -0.629889  0  2.227282  0  0  -0.319425  -0.580481  0  2.235347  0
O  O46  1  0.00708528  0.38173476  0.19650257  1  0  -0.679351  0  2.003944  0  0  -0.60122  0  2.233254  0  0  -0.629955  0  2.227884  0  0  -0.319435  -0.580538  0  2.235915  0
O  O47  1  0.49289800  0.88172771  0.30350120  1  0  -0.679264  0  2.003697  0  0  -0.60118  0  2.232985  0  0  -0.629908  0  2.227603  0  0  -0.31946  -0.580507  0  2.235673  0
O  O48  1  0.84294589  0.27154938  0.90537082  1  0  -0.697403  0  2.035348  0  0  -0.612873  0  2.265231  0  0  -0.642716  0  2.26225  0  0  -0.318779  -0.591366  0  2.26614  0
O  O49  1  0.65705308  0.77154628  0.59462235  1  0  -0.697328  0  2.035256  0  0  -0.612805  0  2.265162  0  0  -0.642638  0  2.262163  0  0  -0.318809  -0.591289  0  2.266051  0
O  O50  1  0.15706271  0.72845085  0.09462877  1  0  -0.697404  0  2.035288  0  0  -0.612858  0  2.265116  0  0  -0.64272  0  2.262176  0  0  -0.31881  -0.591351  0  2.266025  0
O  O51  1  0.34294012  0.22844849  0.40537811  1  0  -0.697438  0  2.035375  0  0  -0.612883  0  2.265198  0  0  -0.642754  0  2.262265  0  0  -0.318855  -0.591375  0  2.266103  0
