# generated using pymatgen
data_ZnH7C10N3O5
_symmetry_space_group_name_H-M   'P 1'
_cell_length_a   7.57350497
_cell_length_b   10.79675508
_cell_length_c   14.50956295
_cell_angle_alpha   90.12406290
_cell_angle_beta   74.85473144
_cell_angle_gamma   69.46536892
_symmetry_Int_Tables_number   1
_chemical_formula_structural   ZnH7C10N3O5
_chemical_formula_sum   'Zn4 H28 C40 N12 O20'
_cell_volume   1066.66898289
_cell_formula_units_Z   4
loop_
 _symmetry_equiv_pos_site_id
 _symmetry_equiv_pos_as_xyz
  1  'x, y, z'
loop_
 _atom_site_type_symbol
 _atom_site_label
 _atom_site_symmetry_multiplicity
 _atom_site_fract_x
 _atom_site_fract_y
 _atom_site_fract_z
 _atom_site_occupancy
 _atom_site_hle17_bader_spin_density
 _atom_site_hle17_ddec_charge
 _atom_site_hle17_ddec_spin_density
 _atom_site_hle17_ddec_sum_bond_order
 _atom_site_hle17_magmom
 _atom_site_hse06_10hf_bader_spin_density
 _atom_site_hse06_10hf_ddec_charge
 _atom_site_hse06_10hf_ddec_spin_density
 _atom_site_hse06_10hf_ddec_sum_bond_order
 _atom_site_hse06_10hf_magmom
 _atom_site_hse06_bader_spin_density
 _atom_site_hse06_ddec_charge
 _atom_site_hse06_ddec_spin_density
 _atom_site_hse06_ddec_sum_bond_order
 _atom_site_hse06_magmom
 _atom_site_pbe_bader_spin_density
 _atom_site_pbe_cm5_charge
 _atom_site_pbe_ddec_charge
 _atom_site_pbe_ddec_spin_density
 _atom_site_pbe_ddec_sum_bond_order
 _atom_site_pbe_magmom
Zn  Zn0  1  0.22684544  0.52774819  0.50696877  1  0  1.079999  0  1.840162  0  0  0.903991  0  2.303725  0  0  0.949556  0  2.249606  0  0  0.706144  0.872001  0  2.341004  0
Zn  Zn1  1  0.76130773  0.97224630  0.99323008  1  0  1.081456  0  1.839561  0  0  0.904868  0  2.30312  0  0  0.950275  0  2.24903  0  0  0.705673  0.87155  0  2.34055  0
Zn  Zn2  1  0.77315231  0.47224738  0.49303057  1  0  1.079982  0  1.84002  0  0  0.903934  0  2.303569  0  0  0.949502  0  2.249446  0  0  0.706109  0.871941  0  2.340831  0
Zn  Zn3  1  0.23869465  0.02775613  0.00676649  1  0  1.081497  0  1.839548  0  0  0.904925  0  2.303093  0  0  0.95033  0  2.249005  0  0  0.705681  0.87161  0  2.340521  0
H  H4  1  0.79971635  0.46911389  0.85574125  1  0  0.096125  0  0.950077  0  0  0.102373  0  1.021183  0  0  0.106753  0  1.016442  0  0  0.101934  0.099158  0  1.024666  0
H  H5  1  0.62465061  0.03091317  0.64427840  1  0  0.097356  0  0.9489  0  0  0.103513  0  1.019878  0  0  0.107998  0  1.015023  0  0  0.102369  0.100233  0  1.023456  0
H  H6  1  0.20027402  0.53089563  0.14425956  1  0  0.096145  0  0.950065  0  0  0.102419  0  1.021127  0  0  0.106788  0  1.01641  0  0  0.10202  0.099234  0  1.024582  0
H  H7  1  0.37534713  0.96908241  0.35572094  1  0  0.097428  0  0.948923  0  0  0.103545  0  1.019932  0  0  0.108032  0  1.015076  0  0  0.102393  0.100265  0  1.023501  0
H  H8  1  0.64311741  0.28668461  0.11172599  1  0  0.123202  0  0.94497  0  0  0.130341  0  1.0082  0  0  0.134478  0  1.004971  0  0  0.11092  0.127416  0  1.010455  0
H  H9  1  0.54224732  0.21319830  0.38816441  1  0  0.122863  0  0.944256  0  0  0.129623  0  1.007986  0  0  0.133735  0  1.004755  0  0  0.110747  0.126662  0  1.0103  0
H  H10  1  0.35688868  0.71331589  0.88827218  1  0  0.123211  0  0.944957  0  0  0.130369  0  1.008155  0  0  0.134503  0  1.004932  0  0  0.110903  0.127443  0  1.010403  0
H  H11  1  0.45776137  0.78679219  0.61183148  1  0  0.122995  0  0.944111  0  0  0.129627  0  1.007994  0  0  0.133736  0  1.004769  0  0  0.110752  0.126676  0  1.010293  0
H  H12  1  0.72069956  0.66150225  0.13186676  1  0  0.133847  0  0.928766  0  0  0.14318  0  0.988263  0  0  0.147534  0  0.984219  0  0  0.117066  0.140065  0  0.991109  0
H  H13  1  0.01463629  0.83832939  0.36825382  1  0  0.13378  0  0.927881  0  0  0.14317  0  0.987454  0  0  0.147484  0  0.983445  0  0  0.116682  0.140049  0  0.990298  0
H  H14  1  0.27929702  0.33850328  0.86813329  1  0  0.133797  0  0.928794  0  0  0.143153  0  0.988268  0  0  0.147508  0  0.984224  0  0  0.117075  0.140043  0  0.991111  0
H  H15  1  0.98537456  0.16166719  0.63174585  1  0  0.133758  0  0.927908  0  0  0.143077  0  0.987554  0  0  0.147388  0  0.983553  0  0  0.1167  0.139961  0  0.990396  0
H  H16  1  0.32193782  0.59170231  0.27407901  1  0  0.129261  0  0.917837  0  0  0.138483  0  0.978368  0  0  0.141964  0  0.973561  0  0  0.153621  0.135686  0  0.982204  0
H  H17  1  0.68791945  0.90818571  0.22606943  1  0  0.130122  0  0.917255  0  0  0.139217  0  0.977873  0  0  0.142662  0  0.973116  0  0  0.153659  0.136439  0  0.981696  0
H  H18  1  0.67805319  0.40829826  0.72592115  1  0  0.12923  0  0.917786  0  0  0.138418  0  0.978375  0  0  0.141886  0  0.973585  0  0  0.153576  0.135669  0  0.982141  0
H  H19  1  0.31207911  0.09181088  0.77393048  1  0  0.130171  0  0.917237  0  0  0.139255  0  0.977861  0  0  0.142708  0  0.973106  0  0  0.153673  0.136474  0  0.981689  0
H  H20  1  0.91413450  0.36783498  0.25730450  1  0  0.123197  0  0.956313  0  0  0.127351  0  1.027646  0  0  0.130659  0  1.023659  0  0  0.145028  0.124846  0  1.03064  0
H  H21  1  0.03973670  0.13188968  0.24259394  1  0  0.123216  0  0.956812  0  0  0.126503  0  1.028999  0  0  0.129832  0  1.024991  0  0  0.144785  0.123967  0  1.032018  0
H  H22  1  0.08585616  0.63216363  0.74269642  1  0  0.123209  0  0.956311  0  0  0.127367  0  1.027633  0  0  0.130677  0  1.023644  0  0  0.145047  0.124854  0  1.030641  0
H  H23  1  0.96026566  0.86810491  0.75740549  1  0  0.123211  0  0.95675  0  0  0.126462  0  1.028973  0  0  0.12979  0  1.024967  0  0  0.144773  0.123925  0  1.031994  0
H  H24  1  0.98886322  0.46544214  0.64998448  1  0  0.42741  0  0.816443  0  0  0.403801  0  0.880944  0  0  0.413209  0  0.869432  0  0  0.317897  0.396921  0  0.889475  0
H  H25  1  0.60362792  0.03480117  0.85030822  1  0  0.428316  0  0.81577  0  0  0.404784  0  0.879969  0  0  0.414161  0  0.86848  0  0  0.318204  0.397648  0  0.888951  0
H  H26  1  0.01113378  0.53455463  0.35002045  1  0  0.427466  0  0.816415  0  0  0.403864  0  0.880893  0  0  0.413268  0  0.869389  0  0  0.317917  0.396987  0  0.889423  0
H  H27  1  0.39636525  0.96520043  0.14969301  1  0  0.428351  0  0.815713  0  0  0.404817  0  0.879907  0  0  0.414193  0  0.868421  0  0  0.318218  0.397684  0  0.888884  0
H  H28  1  0.88923504  0.62339827  0.63915090  1  0  0.424531  0  0.873664  0  0  0.39255  0  0.943027  0  0  0.404066  0  0.92623  0  0  0.291676  0.384357  0  0.954971  0
H  H29  1  0.65120203  0.87675630  0.86095725  1  0  0.425819  0  0.871303  0  0  0.39382  0  0.941311  0  0  0.405375  0  0.924458  0  0  0.29212  0.385419  0  0.953573  0
H  H30  1  0.11077070  0.37660027  0.36084804  1  0  0.424547  0  0.873671  0  0  0.392538  0  0.94304  0  0  0.40405  0  0.926251  0  0  0.29169  0.384347  0  0.954983  0
H  H31  1  0.34878458  0.12324733  0.13904551  1  0  0.425737  0  0.871391  0  0  0.393722  0  0.941448  0  0  0.405278  0  0.924593  0  0  0.292061  0.385318  0  0.953716  0
C  C32  1  0.76808117  0.46916506  0.93342693  1  0  -0.05225  0  3.676594  0  0  -0.089925  0  3.924506  0  0  -0.08645  0  3.943146  0  0  -0.068004  -0.091994  0  3.91224  0
C  C33  1  0.67072475  0.03075354  0.56659322  1  0  -0.053322  0  3.676589  0  0  -0.090909  0  3.924425  0  0  -0.087495  0  3.942988  0  0  -0.068137  -0.092735  0  3.91183  0
C  C34  1  0.23191865  0.53083948  0.06657340  1  0  -0.052374  0  3.676341  0  0  -0.09003  0  3.924307  0  0  -0.086552  0  3.942939  0  0  -0.068032  -0.09212  0  3.912043  0
C  C35  1  0.32928254  0.96924204  0.43340624  1  0  -0.053427  0  3.676715  0  0  -0.090987  0  3.92453  0  0  -0.087578  0  3.943094  0  0  -0.068148  -0.092809  0  3.91193  0
C  C36  1  0.72803364  0.36304493  0.97736458  1  0  -0.049326  0  3.723367  0  0  -0.021622  0  3.955725  0  0  -0.031116  0  3.979751  0  0  -0.01266  -0.015729  0  3.939885  0
C  C37  1  0.56870619  0.13687768  0.52259538  1  0  -0.049119  0  3.724853  0  0  -0.021358  0  3.956744  0  0  -0.030831  0  3.980755  0  0  -0.013116  -0.015581  0  3.940876  0
C  C38  1  0.27197765  0.63695859  0.02263495  1  0  -0.049158  0  3.723163  0  0  -0.021554  0  3.955653  0  0  -0.031051  0  3.979677  0  0  -0.012726  -0.015671  0  3.939833  0
C  C39  1  0.43130246  0.86312297  0.47740729  1  0  -0.049139  0  3.724986  0  0  -0.021276  0  3.956709  0  0  -0.030748  0  3.980724  0  0  -0.013111  -0.015503  0  3.940853  0
C  C40  1  0.68249448  0.36641508  0.07743553  1  0  -0.112887  0  3.697698  0  0  -0.154305  0  3.95747  0  0  -0.152058  0  3.974311  0  0  -0.075586  -0.155109  0  3.945686  0
C  C41  1  0.62683522  0.13341863  0.42251620  1  0  -0.112899  0  3.696501  0  0  -0.153723  0  3.95657  0  0  -0.151504  0  3.973446  0  0  -0.075315  -0.154672  0  3.945023  0
C  C42  1  0.31751400  0.63358345  0.92256305  1  0  -0.113032  0  3.697647  0  0  -0.154429  0  3.957431  0  0  -0.152182  0  3.974272  0  0  -0.075572  -0.155224  0  3.945638  0
C  C43  1  0.37317429  0.86657793  0.57748296  1  0  -0.113074  0  3.696491  0  0  -0.153874  0  3.956575  0  0  -0.151657  0  3.97345  0  0  -0.0753  -0.154825  0  3.945028  0
C  C44  1  0.68278608  0.47284303  0.13089269  1  0  0.152611  0  3.794609  0  0  0.150653  0  4.049289  0  0  0.151255  0  4.072973  0  0  0.086184  0.15005  0  4.033044  0
C  C45  1  0.78700345  0.02690891  0.36911990  1  0  0.153777  0  3.793623  0  0  0.15124  0  4.04916  0  0  0.151863  0  4.072874  0  0  0.086335  0.15066  0  4.033009  0
C  C46  1  0.31721015  0.52716054  0.86910812  1  0  0.152549  0  3.794722  0  0  0.150606  0  4.049373  0  0  0.151208  0  4.073057  0  0  0.086169  0.15  0  4.033132  0
C  C47  1  0.21300355  0.97308467  0.63087894  1  0  0.153798  0  3.793684  0  0  0.151396  0  4.049024  0  0  0.15203  0  4.072721  0  0  0.086306  0.150818  0  4.032883  0
C  C48  1  0.72387827  0.57815784  0.08841746  1  0  -0.102726  0  3.67669  0  0  -0.142082  0  3.929302  0  0  -0.139398  0  3.945717  0  0  -0.069422  -0.143264  0  3.917962  0
C  C49  1  0.89078784  0.92165324  0.41161973  1  0  -0.10315  0  3.674998  0  0  -0.142469  0  3.928276  0  0  -0.139816  0  3.944705  0  0  -0.069589  -0.143762  0  3.917033  0
C  C50  1  0.27611612  0.42184668  0.91158220  1  0  -0.10262  0  3.676677  0  0  -0.141994  0  3.929276  0  0  -0.139309  0  3.945691  0  0  -0.069408  -0.143183  0  3.917944  0
C  C51  1  0.10921866  0.07834131  0.58837847  1  0  -0.103143  0  3.675051  0  0  -0.142425  0  3.928334  0  0  -0.139774  0  3.944754  0  0  -0.069593  -0.143726  0  3.917102  0
C  C52  1  0.76342528  0.57751402  0.98868053  1  0  -0.060923  0  3.745159  0  0  -0.033778  0  3.979498  0  0  -0.044434  0  4.004592  0  0  -0.014399  -0.027124  0  3.963005  0
C  C53  1  0.82970375  0.92238100  0.51135926  1  0  -0.060604  0  3.74091  0  0  -0.03331  0  3.975317  0  0  -0.043991  0  4.000436  0  0  -0.01373  -0.026703  0  3.958709  0
C  C54  1  0.23657016  0.42248851  0.01131901  1  0  -0.06092  0  3.745117  0  0  -0.033827  0  3.97947  0  0  -0.044484  0  4.004563  0  0  -0.014436  -0.02717  0  3.962983  0
C  C55  1  0.17029721  0.07761362  0.48864105  1  0  -0.060473  0  3.740758  0  0  -0.03323  0  3.975238  0  0  -0.043907  0  4.000353  0  0  -0.01377  -0.026622  0  3.958631  0
C  C56  1  0.45049872  0.53369795  0.29617675  1  0  0.2154  0  3.553797  0  0  0.148694  0  3.817327  0  0  0.163564  0  3.826229  0  0  0.186403  0.138926  0  3.81147  0
C  C57  1  0.78066903  0.96612080  0.20389194  1  0  0.214527  0  3.555291  0  0  0.147908  0  3.818559  0  0  0.162746  0  3.827532  0  0  0.186359  0.138043  0  3.812814  0
C  C58  1  0.54949400  0.46630457  0.70382247  1  0  0.215557  0  3.553789  0  0  0.148827  0  3.817351  0  0  0.163711  0  3.826253  0  0  0.186534  0.139017  0  3.811472  0
C  C59  1  0.21933038  0.03387678  0.79610784  1  0  0.214384  0  3.555309  0  0  0.14777  0  3.81859  0  0  0.162598  0  3.827576  0  0  0.186289  0.137908  0  3.812843  0
C  C60  1  0.75665242  0.41965536  0.28743914  1  0  0.174698  0  3.609864  0  0  0.106612  0  3.885607  0  0  0.120584  0  3.89528  0  0  0.170329  0.097315  0  3.879245  0
C  C61  1  0.96420595  0.08009409  0.21249287  1  0  0.175889  0  3.609095  0  0  0.1086  0  3.885113  0  0  0.122533  0  3.894665  0  0  0.171182  0.099352  0  3.878853  0
C  C62  1  0.24333774  0.58034422  0.71256114  1  0  0.174685  0  3.609743  0  0  0.106595  0  3.885495  0  0  0.120568  0  3.895162  0  0  0.17033  0.0973  0  3.879149  0
C  C63  1  0.03579422  0.91989950  0.78750617  1  0  0.175933  0  3.609022  0  0  0.108671  0  3.885061  0  0  0.122609  0  3.894605  0  0  0.171126  0.09942  0  3.878802  0
C  C64  1  0.72181209  0.24563429  0.92288853  1  0  0.657124  0  3.920909  0  0  0.60549  0  4.221196  0  0  0.639494  0  4.214744  0  0  0.201194  0.582266  0  4.224676  0
C  C65  1  0.39071716  0.25438856  0.57701265  1  0  0.654962  0  3.921827  0  0  0.60369  0  4.221846  0  0  0.637712  0  4.215447  0  0  0.200965  0.580602  0  4.225456  0
C  C66  1  0.27819306  0.75436809  0.07710699  1  0  0.657227  0  3.920835  0  0  0.605637  0  4.221125  0  0  0.639646  0  4.214665  0  0  0.201292  0.582416  0  4.224603  0
C  C67  1  0.60929499  0.74561315  0.42299161  1  0  0.655132  0  3.921663  0  0  0.603858  0  4.221641  0  0  0.637874  0  4.215247  0  0  0.201091  0.580766  0  4.225263  0
C  C68  1  0.78318256  0.70060227  0.94670135  1  0  0.671258  0  3.878183  0  0  0.617181  0  4.173461  0  0  0.65194  0  4.167177  0  0  0.212713  0.593442  0  4.176922  0
C  C69  1  0.93066747  0.79938857  0.55340275  1  0  0.67088  0  3.87604  0  0  0.616354  0  4.17187  0  0  0.651154  0  4.165585  0  0  0.213203  0.592741  0  4.175426  0
C  C70  1  0.21681233  0.29940633  0.05330164  1  0  0.67104  0  3.878519  0  0  0.617033  0  4.173672  0  0  0.651794  0  4.167392  0  0  0.212607  0.593296  0  4.17713  0
C  C71  1  0.06933116  0.20060797  0.44659577  1  0  0.670845  0  3.875946  0  0  0.616336  0  4.171752  0  0  0.651135  0  4.165469  0  0  0.213215  0.592713  0  4.175316  0
N  N72  1  0.63233986  0.47587246  0.23357706  1  0  -0.102169  0  3.568355  0  0  -0.012314  0  3.785556  0  0  -0.028728  0  3.809111  0  0  -0.207484  -0.001605  0  3.769617  0
N  N73  1  0.84230812  0.02382367  0.26643137  1  0  -0.102625  0  3.568027  0  0  -0.012793  0  3.785348  0  0  -0.029192  0  3.808862  0  0  -0.207318  -0.002125  0  3.769485  0
N  N74  1  0.36765468  0.52412913  0.76642400  1  0  -0.102152  0  3.568241  0  0  -0.012295  0  3.785462  0  0  -0.028711  0  3.809013  0  0  -0.207515  -0.001579  0  3.769525  0
N  N75  1  0.15769421  0.97617094  0.73356875  1  0  -0.102594  0  3.567994  0  0  -0.012812  0  3.785303  0  0  -0.029215  0  3.808818  0  0  -0.207216  -0.002141  0  3.769436  0
N  N76  1  0.46206618  0.51149277  0.38424405  1  0  -0.243277  0  3.152847  0  0  -0.183634  0  3.448196  0  0  -0.198313  0  3.460563  0  0  -0.224675  -0.173823  0  3.439893  0
N  N77  1  0.85790898  0.98842781  0.11581436  1  0  -0.242604  0  3.155473  0  0  -0.182103  0  3.449911  0  0  -0.19681  0  3.462337  0  0  -0.224129  -0.172339  0  3.441517  0
N  N78  1  0.53792572  0.48850596  0.61576014  1  0  -0.243447  0  3.153047  0  0  -0.183698  0  3.448296  0  0  -0.198375  0  3.460653  0  0  -0.224728  -0.173889  0  3.440004  0
N  N79  1  0.14208095  0.01157477  0.88418661  1  0  -0.242478  0  3.155366  0  0  -0.181972  0  3.44978  0  0  -0.196679  0  3.462209  0  0  -0.224082  -0.172209  0  3.441386  0
N  N80  1  0.65564289  0.44017306  0.37886684  1  0  -0.260263  0  3.167044  0  0  -0.208782  0  3.467312  0  0  -0.22247  0  3.480209  0  0  -0.22966  -0.199464  0  3.458704  0
N  N81  1  0.97489154  0.05969785  0.12110464  1  0  -0.261573  0  3.169719  0  0  -0.210473  0  3.47034  0  0  -0.2242  0  3.483241  0  0  -0.23053  -0.201496  0  3.461727  0
N  N82  1  0.34434695  0.55982454  0.62113351  1  0  -0.260259  0  3.167064  0  0  -0.208817  0  3.467312  0  0  -0.222501  0  3.480199  0  0  -0.229703  -0.199503  0  3.458711  0
N  N83  1  0.02510308  0.94030367  0.87889434  1  0  -0.261638  0  3.169839  0  0  -0.21051  0  3.470411  0  0  -0.224235  0  3.483308  0  0  -0.230528  -0.201531  0  3.461797  0
O  O84  1  0.66861456  0.16438367  0.97903976  1  0  -0.687992  0  2.125625  0  0  -0.610772  0  2.402552  0  0  -0.640931  0  2.390293  0  0  -0.346636  -0.588167  0  2.409668  0
O  O85  1  0.31239198  0.33554410  0.52081120  1  0  -0.685784  0  2.124258  0  0  -0.609298  0  2.401584  0  0  -0.639713  0  2.389473  0  0  -0.346566  -0.58777  0  2.409154  0
O  O86  1  0.33139712  0.83561670  0.02095492  1  0  -0.688063  0  2.125533  0  0  -0.610866  0  2.402415  0  0  -0.641025  0  2.39015  0  0  -0.346712  -0.588259  0  2.409527  0
O  O87  1  0.68762649  0.66445351  0.47918952  1  0  -0.685826  0  2.124201  0  0  -0.609338  0  2.401516  0  0  -0.639742  0  2.389393  0  0  -0.34663  -0.58781  0  2.409091  0
O  O88  1  0.76078733  0.23516868  0.83324765  1  0  -0.628402  0  1.862865  0  0  -0.590943  0  2.083  0  0  -0.613385  0  2.074436  0  0  -0.342466  -0.574723  0  2.088223  0
O  O89  1  0.32967507  0.26507264  0.66667356  1  0  -0.627625  0  1.862868  0  0  -0.589907  0  2.082468  0  0  -0.612415  0  2.073986  0  0  -0.342754  -0.574186  0  2.087924  0
O  O90  1  0.23920594  0.76484068  0.16674865  1  0  -0.628421  0  1.862851  0  0  -0.590991  0  2.083016  0  0  -0.613424  0  2.074428  0  0  -0.342472  -0.57477  0  2.088237  0
O  O91  1  0.67032859  0.73493212  0.33333316  1  0  -0.627763  0  1.862863  0  0  -0.590056  0  2.082454  0  0  -0.612563  0  2.073974  0  0  -0.342828  -0.574331  0  2.087913  0
O  O92  1  0.78158333  0.78718150  0.00796255  1  0  -0.650313  0  2.114617  0  0  -0.578647  0  2.390321  0  0  -0.609084  0  2.379301  0  0  -0.32665  -0.556165  0  2.396396  0
O  O93  1  0.07692579  0.71278870  0.49214223  1  0  -0.649644  0  2.114515  0  0  -0.57729  0  2.389442  0  0  -0.607919  0  2.378548  0  0  -0.327145  -0.55599  0  2.396312  0
O  O94  1  0.21840325  0.21282722  0.99204360  1  0  -0.650312  0  2.114803  0  0  -0.578624  0  2.390401  0  0  -0.609045  0  2.379346  0  0  -0.3266  -0.556141  0  2.396474  0
O  O95  1  0.92308068  0.28720587  0.50785666  1  0  -0.649508  0  2.114503  0  0  -0.577176  0  2.389481  0  0  -0.607804  0  2.378592  0  0  -0.327062  -0.555871  0  2.396344  0
O  O96  1  0.79279693  0.71400797  0.85893625  1  0  -0.639499  0  1.919355  0  0  -0.586229  0  2.140555  0  0  -0.610381  0  2.129811  0  0  -0.329584  -0.568904  0  2.147351  0
O  O97  1  0.86601028  0.78611758  0.64121100  1  0  -0.638931  0  1.919589  0  0  -0.585395  0  2.140634  0  0  -0.609518  0  2.129839  0  0  -0.329905  -0.568527  0  2.147625  0
O  O98  1  0.20720564  0.28600162  0.14106641  1  0  -0.639345  0  1.919427  0  0  -0.586092  0  2.140575  0  0  -0.610247  0  2.129836  0  0  -0.329566  -0.568766  0  2.147372  0
O  O99  1  0.13398478  0.21387796  0.35878731  1  0  -0.639  0  1.919511  0  0  -0.585464  0  2.140559  0  0  -0.609589  0  2.129765  0  0  -0.329963  -0.568589  0  2.147551  0
O  O100  1  0.93004668  0.52965794  0.60918635  1  0  -0.821094  0  1.939437  0  0  -0.760405  0  2.156053  0  0  -0.780571  0  2.124189  0  0  -0.553524  -0.746061  0  2.178427  0
O  O101  1  0.56803882  0.97046347  0.89091133  1  0  -0.822584  0  1.936858  0  0  -0.761503  0  2.152593  0  0  -0.781877  0  2.120858  0  0  -0.554358  -0.747782  0  2.176198  0
O  O102  1  0.06998231  0.47033548  0.39080822  1  0  -0.821199  0  1.939419  0  0  -0.760475  0  2.156031  0  0  -0.780598  0  2.124097  0  0  -0.553588  -0.746153  0  2.178447  0
O  O103  1  0.43194334  0.02954101  0.10908718  1  0  -0.822563  0  1.936901  0  0  -0.761431  0  2.152623  0  0  -0.781802  0  2.120886  0  0  -0.554308  -0.747711  0  2.17623  0
