# generated using pymatgen
data_CuH8AuC6(SN)2
_symmetry_space_group_name_H-M   'P 1'
_cell_length_a   6.75404765
_cell_length_b   9.06658082
_cell_length_c   9.06653799
_cell_angle_alpha   117.74062036
_cell_angle_beta   96.44855795
_cell_angle_gamma   96.44974392
_symmetry_Int_Tables_number   1
_chemical_formula_structural   CuH8AuC6(SN)2
_chemical_formula_sum   'Cu2 H16 Au2 C12 S4 N4'
_cell_volume   479.64907924
_cell_formula_units_Z   2
loop_
 _symmetry_equiv_pos_site_id
 _symmetry_equiv_pos_as_xyz
  1  'x, y, z'
loop_
 _atom_site_type_symbol
 _atom_site_label
 _atom_site_symmetry_multiplicity
 _atom_site_fract_x
 _atom_site_fract_y
 _atom_site_fract_z
 _atom_site_occupancy
 _atom_site_pbe_bader_spin_density
 _atom_site_pbe_cm5_charge
 _atom_site_pbe_ddec_charge
 _atom_site_pbe_ddec_spin_density
 _atom_site_pbe_ddec_sum_bond_order
 _atom_site_pbe_magmom
Cu  Cu0  1  0.24999012  0.62759172  0.37240713  1  0  0.515046  0.29089  0  2.848234  0
Cu  Cu1  1  0.75000189  0.37241092  0.62758860  1  0  0.515017  0.290829  0  2.848017  0
H  H2  1  0.69342330  0.49213694  0.26095392  1  0  0.104274  0.12925  0  0.975184  0
H  H3  1  0.80655622  0.73904240  0.50787316  1  0  0.104279  0.1293  0  0.975134  0
H  H4  1  0.30656628  0.50786821  0.73904392  1  0  0.104259  0.129239  0  0.975274  0
H  H5  1  0.19343063  0.26094986  0.49213376  1  0  0.104278  0.129288  0  0.975197  0
H  H6  1  0.46964724  0.35658761  0.11828558  1  0  0.086776  0.10276  0  1.041625  0
H  H7  1  0.03034372  0.88170877  0.64341509  1  0  0.086775  0.102735  0  1.041567  0
H  H8  1  0.53033824  0.64341247  0.88170842  1  0  0.086797  0.10276  0  1.041645  0
H  H9  1  0.96965357  0.11828347  0.35659486  1  0  0.086784  0.102752  0  1.041652  0
H  H10  1  0.78104795  0.32061573  0.98077311  1  0  0.092971  0.111949  0  1.011173  0
H  H11  1  0.71894614  0.01922506  0.67939627  1  0  0.092947  0.11193  0  1.011271  0
H  H12  1  0.21893781  0.67938562  0.01922152  1  0  0.09294  0.111929  0  1.011268  0
H  H13  1  0.28104450  0.98077110  0.32060619  1  0  0.092962  0.11193  0  1.011237  0
H  H14  1  0.80998970  0.53546908  0.02322436  1  0  0.090456  0.102254  0  1.03148  0
H  H15  1  0.69000334  0.97677316  0.46453953  1  0  0.090511  0.102332  0  1.031379  0
H  H16  1  0.18999726  0.46453105  0.97676647  1  0  0.090477  0.102287  0  1.031427  0
H  H17  1  0.30999867  0.02322046  0.53546374  1  0  0.09048  0.102303  0  1.031386  0
Au  Au18  1  0.00002879  0.99999701  0.00001047  1  0  0.27158  0.002386  0  3.053358  0
Au  Au19  1  0.50001202  0.00000543  0.99999218  1  0  0.27163  0.00238  0  3.053186  0
C  C20  1  0.07970971  0.24687469  0.15259830  1  0  -0.008206  0.056838  0  3.943863  0
C  C21  1  0.42031866  0.84742450  0.75312495  1  0  -0.00838  0.056706  0  3.943289  0
C  C22  1  0.92033064  0.75313030  0.84742227  1  0  -0.00837  0.056627  0  3.943342  0
C  C23  1  0.57970866  0.15258963  0.24687797  1  0  -0.008228  0.056767  0  3.944255  0
C  C24  1  0.58796155  0.46422613  0.14589151  1  0  -0.156835  -0.173354  0  3.888544  0
C  C25  1  0.91202461  0.85411210  0.53578244  1  0  -0.156854  -0.173415  0  3.888712  0
C  C26  1  0.41202914  0.53578418  0.85410226  1  0  -0.156788  -0.173278  0  3.888431  0
C  C27  1  0.08797013  0.14588914  0.46422278  1  0  -0.156848  -0.173428  0  3.888802  0
C  C28  1  0.69964388  0.42461854  0.99934872  1  0  -0.157932  -0.177085  0  3.904977  0
C  C29  1  0.80035631  0.00064747  0.57539593  1  0  -0.157956  -0.177179  0  3.905452  0
C  C30  1  0.30034718  0.57538667  0.00064486  1  0  -0.15796  -0.177218  0  3.905223  0
C  C31  1  0.19963704  0.99934739  0.42460834  1  0  -0.157925  -0.177088  0  3.905137  0
S  S32  1  0.47124311  0.64926328  0.20051204  1  0  -0.026248  0.038604  0  3.112799  0
S  S33  1  0.02874026  0.79948125  0.35073915  1  0  -0.02623  0.038626  0  3.11269  0
S  S34  1  0.52874171  0.35074066  0.79948043  1  0  -0.026244  0.03861  0  3.112571  0
S  S35  1  0.97125339  0.20051484  0.64926903  1  0  -0.026237  0.038634  0  3.112573  0
N  N36  1  0.12960848  0.39260881  0.24779067  1  0  -0.418569  -0.337823  0  3.564251  0
N  N37  1  0.37039500  0.75221735  0.60738097  1  0  -0.418458  -0.3377  0  3.56359  0
N  N38  1  0.87041023  0.60738604  0.75222002  1  0  -0.418435  -0.337606  0  3.563581  0
N  N39  1  0.62961258  0.24777539  0.39259474  1  0  -0.418536  -0.33772  0  3.564661  0
