# generated using pymatgen
data_CuH6C9N4
_symmetry_space_group_name_H-M   'P 1'
_cell_length_a   6.65830918
_cell_length_b   9.36642626
_cell_length_c   13.88345614
_cell_angle_alpha   108.36431110
_cell_angle_beta   92.57120711
_cell_angle_gamma   95.39841092
_symmetry_Int_Tables_number   1
_chemical_formula_structural   CuH6C9N4
_chemical_formula_sum   'Cu4 H24 C36 N16'
_cell_volume   815.54888643
_cell_formula_units_Z   4
loop_
 _symmetry_equiv_pos_site_id
 _symmetry_equiv_pos_as_xyz
  1  'x, y, z'
loop_
 _atom_site_type_symbol
 _atom_site_label
 _atom_site_symmetry_multiplicity
 _atom_site_fract_x
 _atom_site_fract_y
 _atom_site_fract_z
 _atom_site_occupancy
 _atom_site_pbe_bader_spin_density
 _atom_site_pbe_cm5_charge
 _atom_site_pbe_ddec_charge
 _atom_site_pbe_ddec_spin_density
 _atom_site_pbe_ddec_sum_bond_order
 _atom_site_pbe_magmom
Cu  Cu0  1  0.31745253  0.54362589  0.49373521  1  0  0.485987  0.312766  0  2.772565  0
Cu  Cu1  1  0.68252071  0.45636777  0.50626591  1  0  0.485987  0.312746  0  2.772527  0
Cu  Cu2  1  0.32122672  0.04273025  0.49310771  1  0  0.484799  0.310771  0  2.787904  0
Cu  Cu3  1  0.67876067  0.95726791  0.50688528  1  0  0.484848  0.31078  0  2.787977  0
H  H4  1  0.39393244  0.87221325  0.67133457  1  0  0.134664  0.104837  0  1.004556  0
H  H5  1  0.60606640  0.12779057  0.32866633  1  0  0.134667  0.10483  0  1.004547  0
H  H6  1  0.98715078  0.49257300  0.65651039  1  0  0.136748  0.112571  0  1.03548  0
H  H7  1  0.01284156  0.50743761  0.34348822  1  0  0.136776  0.112578  0  1.035517  0
H  H8  1  0.65822822  0.58403324  0.71622790  1  0  0.096108  0.093639  0  1.077404  0
H  H9  1  0.34178274  0.41598076  0.28377756  1  0  0.096114  0.093665  0  1.077348  0
H  H10  1  0.08134650  0.87171763  0.95885370  1  0  0.106366  0.114551  0  1.031759  0
H  H11  1  0.91865674  0.12829524  0.04114848  1  0  0.106417  0.114627  0  1.031792  0
H  H12  1  0.39481660  0.59671080  0.83933719  1  0  0.10069  0.100879  0  1.040677  0
H  H13  1  0.60519122  0.40328283  0.16066676  1  0  0.100649  0.100808  0  1.040774  0
H  H14  1  0.81449401  0.89430805  0.08008103  1  0  0.0989  0.093929  0  1.058411  0
H  H15  1  0.18551937  0.10569236  0.91992447  1  0  0.09892  0.09396  0  1.058463  0
H  H16  1  0.50724816  0.99500935  0.12248315  1  0  0.100364  0.101674  0  1.036946  0
H  H17  1  0.49276529  0.00498199  0.87751539  1  0  0.100397  0.10176  0  1.036818  0
H  H18  1  0.30887412  0.52019608  0.97731358  1  0  0.101154  0.101005  0  1.037568  0
H  H19  1  0.69113038  0.47979529  0.02269271  1  0  0.10114  0.100998  0  1.037543  0
H  H20  1  0.23956884  0.01175726  0.24098271  1  0  0.103981  0.112466  0  1.036463  0
H  H21  1  0.76043598  0.98824654  0.75901326  1  0  0.103999  0.112496  0  1.036544  0
H  H22  1  0.04398547  0.53556382  0.09851068  1  0  0.104883  0.109569  0  1.045695  0
H  H23  1  0.95602361  0.46443773  0.90149714  1  0  0.104875  0.109494  0  1.045685  0
H  H24  1  0.02634385  0.00359653  0.35478503  1  0  0.132347  0.101333  0  1.063403  0
H  H25  1  0.97365483  0.99641634  0.64521058  1  0  0.132381  0.101339  0  1.063397  0
H  H26  1  0.57073731  0.64347754  0.31438283  1  0  0.134017  0.106352  0  1.00638  0
H  H27  1  0.42925406  0.35653647  0.68561720  1  0  0.13407  0.106439  0  1.006601  0
C  C28  1  0.30887552  0.33529213  0.45022023  1  0  -0.063636  -0.134902  0  3.951136  0
C  C29  1  0.69107027  0.66469929  0.54977411  1  0  -0.063471  -0.134484  0  3.950909  0
C  C30  1  0.27557307  0.79957878  0.68982445  1  0  0.149384  0.154221  0  3.94921  0
C  C31  1  0.72442294  0.20042617  0.31017663  1  0  0.149376  0.154138  0  3.949269  0
C  C32  1  0.07039750  0.60471839  0.67895473  1  0  0.16147  0.084448  0  3.890874  0
C  C33  1  0.92959387  0.39529562  0.32104458  1  0  0.161466  0.084414  0  3.890799  0
C  C34  1  0.88493701  0.72639832  0.83115628  1  0  0.094205  0.135369  0  4.008737  0
C  C35  1  0.11507344  0.27361228  0.16884989  1  0  0.094175  0.135267  0  4.008896  0
C  C36  1  0.69267381  0.64789182  0.79674462  1  0  -0.090765  -0.148957  0  3.971092  0
C  C37  1  0.30734006  0.35211198  0.20325657  1  0  -0.090708  -0.148892  0  3.971136  0
C  C38  1  0.92976563  0.81393967  0.93305345  1  0  -0.087329  -0.149217  0  3.981525  0
C  C39  1  0.07023641  0.18606528  0.06694919  1  0  -0.087376  -0.149307  0  3.98164  0
C  C40  1  0.54527048  0.65723971  0.86573556  1  0  -0.088134  -0.110545  0  3.950271  0
C  C41  1  0.45474333  0.34275390  0.13426491  1  0  -0.088157  -0.110544  0  3.950206  0
C  C42  1  0.77970707  0.82507693  0.00068506  1  0  -0.087085  -0.112105  0  3.955524  0
C  C43  1  0.22030429  0.17492008  0.99931969  1  0  -0.087142  -0.112148  0  3.955766  0
C  C44  1  0.58557786  0.74655790  0.96844482  1  0  -0.006468  0.06506  0  3.991307  0
C  C45  1  0.41443455  0.25342665  0.03155442  1  0  -0.006367  0.065257  0  3.991156  0
C  C46  1  0.42785473  0.75642706  0.04085412  1  0  -0.010621  0.0554  0  4.001713  0
C  C47  1  0.57216138  0.24356201  0.95914543  1  0  -0.010665  0.055213  0  4.001791  0
C  C48  1  0.40693106  0.89345323  0.11708101  1  0  -0.086828  -0.105627  0  3.948509  0
C  C49  1  0.59307824  0.10654038  0.88291937  1  0  -0.086847  -0.105626  0  3.948366  0
C  C50  1  0.29439129  0.62810722  0.03499399  1  0  -0.086221  -0.110554  0  3.96808  0
C  C51  1  0.70561938  0.37188527  0.96501122  1  0  -0.086199  -0.110561  0  3.968028  0
C  C52  1  0.25551611  0.90338554  0.18411229  1  0  -0.089739  -0.159735  0  3.971384  0
C  C53  1  0.74449101  0.09661372  0.81588349  1  0  -0.089745  -0.159761  0  3.971499  0
C  C54  1  0.14501500  0.63569568  0.10257465  1  0  -0.089441  -0.152309  0  3.983264  0
C  C55  1  0.85499483  0.36430134  0.89742790  1  0  -0.089406  -0.152061  0  3.983015  0
C  C56  1  0.12386985  0.77381961  0.17611640  1  0  0.09812  0.142958  0  4.00676  0
C  C57  1  0.87613828  0.22617627  0.82388228  1  0  0.098088  0.142781  0  4.00697  0
C  C58  1  0.93195930  0.89602991  0.32546253  1  0  0.160505  0.089931  0  3.886719  0
C  C59  1  0.06804703  0.10397389  0.67453563  1  0  0.160439  0.089911  0  3.886633  0
C  C60  1  0.70361358  0.71029508  0.30252430  1  0  0.15003  0.157438  0  3.947863  0
C  C61  1  0.29640145  0.28971663  0.69747066  1  0  0.149993  0.157318  0  3.947616  0
C  C62  1  0.68994588  0.16610591  0.55271262  1  0  -0.063295  -0.132731  0  3.942246  0
C  C63  1  0.31003938  0.83389791  0.44728081  1  0  -0.063289  -0.132696  0  3.942061  0
N  N64  1  0.28610078  0.70158460  0.43151591  1  0  -0.439094  -0.321205  0  3.513064  0
N  N65  1  0.71388432  0.29841809  0.56848016  1  0  -0.439102  -0.321179  0  3.513311  0
N  N66  1  0.22162517  0.65170810  0.63213314  1  0  -0.368157  -0.273749  0  3.591103  0
N  N67  1  0.77836348  0.34829799  0.36786515  1  0  -0.368132  -0.273645  0  3.590887  0
N  N68  1  0.28556138  0.20277256  0.43358692  1  0  -0.437534  -0.316886  0  3.518697  0
N  N69  1  0.71439455  0.79721658  0.56640426  1  0  -0.437744  -0.317284  0  3.518576  0
N  N70  1  0.16747457  0.84632441  0.76943454  1  0  -0.21828  -0.267531  0  3.119401  0
N  N71  1  0.83252630  0.15368280  0.23056783  1  0  -0.218267  -0.267452  0  3.119633  0
N  N72  1  0.03612849  0.72061731  0.76140715  1  0  -0.118368  0.13726  0  3.744177  0
N  N73  1  0.96387089  0.27938990  0.23859520  1  0  -0.118427  0.137181  0  3.744535  0
N  N74  1  0.96501459  0.78170229  0.24159648  1  0  -0.116632  0.141225  0  3.729943  0
N  N75  1  0.03498626  0.21830492  0.75840230  1  0  -0.116637  0.14128  0  3.730085  0
N  N76  1  0.81849996  0.66192218  0.22603995  1  0  -0.219732  -0.269859  0  3.122829  0
N  N77  1  0.18149941  0.33808503  0.77396168  1  0  -0.219729  -0.269874  0  3.122538  0
N  N78  1  0.76786568  0.85348335  0.36587873  1  0  -0.367386  -0.273776  0  3.585911  0
N  N79  1  0.23213265  0.14652725  0.63411639  1  0  -0.367347  -0.273733  0  3.585767  0
