# generated using pymatgen
data_HoH21C36(NO4)2
_symmetry_space_group_name_H-M   'P 1'
_cell_length_a   10.83579863
_cell_length_b   12.13780328
_cell_length_c   12.24500000
_cell_angle_alpha   94.03272999
_cell_angle_beta   106.58759342
_cell_angle_gamma   101.41138990
_symmetry_Int_Tables_number   1
_chemical_formula_structural   HoH21C36(NO4)2
_chemical_formula_sum   'Ho2 H42 C72 N4 O16'
_cell_volume   1499.11620937
_cell_formula_units_Z   2
loop_
 _symmetry_equiv_pos_site_id
 _symmetry_equiv_pos_as_xyz
  1  'x, y, z'
loop_
 _atom_site_type_symbol
 _atom_site_label
 _atom_site_symmetry_multiplicity
 _atom_site_fract_x
 _atom_site_fract_y
 _atom_site_fract_z
 _atom_site_occupancy
 _atom_site_hle17_bader_spin_density
 _atom_site_hle17_ddec_charge
 _atom_site_hle17_ddec_spin_density
 _atom_site_hle17_ddec_sum_bond_order
 _atom_site_hle17_magmom
 _atom_site_hse06_10hf_bader_spin_density
 _atom_site_hse06_10hf_ddec_charge
 _atom_site_hse06_10hf_ddec_spin_density
 _atom_site_hse06_10hf_ddec_sum_bond_order
 _atom_site_hse06_10hf_magmom
 _atom_site_hse06_bader_spin_density
 _atom_site_hse06_ddec_charge
 _atom_site_hse06_ddec_spin_density
 _atom_site_hse06_ddec_sum_bond_order
 _atom_site_hse06_magmom
 _atom_site_pbe_bader_charge
 _atom_site_pbe_bader_spin_density
 _atom_site_pbe_cm5_charge
 _atom_site_pbe_ddec_charge
 _atom_site_pbe_ddec_spin_density
 _atom_site_pbe_ddec_sum_bond_order
 _atom_site_pbe_magmom
Ho  Ho0  1  0.08846003  0.80935234  0.00054244  1  0  2.123967  0  1.765313  0  0  1.952172  0  2.280527  0  0  2.007016  0  2.234756  0  2.130187  0  1.558532  1.909802  0  2.317702  0
Ho  Ho1  1  0.91153974  0.19064686  0.99945581  1  0  2.123961  0  1.765358  0  0  1.952164  0  2.280572  0  0  2.007009  0  2.23481  0  2.130131  0  1.558541  1.909789  0  2.317757  0
H  H2  1  0.02396256  0.80430270  0.27518371  1  0  0.108548  0  0.9631  0  0  0.116695  0  1.026303  0  0  0.120696  0  1.023554  0  0.090741  0  0.106886  0.113846  0  1.028237  0
H  H3  1  0.97603579  0.19569480  0.72481570  1  0  0.1086  0  0.963086  0  0  0.11675  0  1.026281  0  0  0.120753  0  1.023529  0  0.090475  0  0.106914  0.113904  0  1.02821  0
H  H4  1  0.02153751  0.77490319  0.47424885  1  0  0.092484  0  0.96119  0  0  0.102782  0  1.022087  0  0  0.104912  0  1.022747  0  0.07858  0  0.098922  0.101192  0  1.021827  0
H  H5  1  0.97846107  0.22509516  0.52574986  1  0  0.092501  0  0.961167  0  0  0.102803  0  1.02206  0  0  0.104928  0  1.02273  0  0.078593  0  0.098931  0.101213  0  1.0218  0
H  H6  1  0.98562463  0.14769145  0.33454508  1  0  0.106061  0  0.951503  0  0  0.114019  0  1.017263  0  0  0.117004  0  1.015679  0  0.093728  0  0.107731  0.111884  0  1.018399  0
H  H7  1  0.01437949  0.85230605  0.66545415  1  0  0.106061  0  0.95145  0  0  0.114078  0  1.017149  0  0  0.117053  0  1.015593  0  0.093702  0  0.107707  0.111938  0  1.018297  0
H  H8  1  0.88238872  0.52924728  0.67188174  1  0  0.10794  0  0.95839  0  0  0.116749  0  1.023314  0  0  0.120286  0  1.021044  0  0.10313  0  0.107378  0.11418  0  1.025028  0
H  H9  1  0.11761829  0.47075022  0.32812149  1  0  0.107907  0  0.958402  0  0  0.116731  0  1.023305  0  0  0.120267  0  1.021035  0  0.10345  0  0.107339  0.114161  0  1.02502  0
H  H10  1  0.74761337  0.39248723  0.49791317  1  0  0.092558  0  0.974028  0  0  0.104951  0  1.032512  0  0  0.108053  0  1.030869  0  0.083477  0  0.101696  0.10272  0  1.03378  0
H  H11  1  0.25239240  0.60751281  0.50208992  1  0  0.092539  0  0.973967  0  0  0.104904  0  1.032498  0  0  0.108008  0  1.030854  0  0.083416  0  0.101678  0.102675  0  1.033765  0
H  H12  1  0.27405703  0.70921212  0.69244916  1  0  0.102289  0  0.949702  0  0  0.112393  0  1.012292  0  0  0.1159  0  1.010172  0  0.086032  0  0.106501  0.109866  0  1.0138  0
H  H13  1  0.72594896  0.29078878  0.30755405  1  0  0.102264  0  0.94973  0  0  0.112369  0  1.012319  0  0  0.11588  0  1.010195  0  0.086019  0  0.106484  0.109844  0  1.013825  0
H  H14  1  0.60198026  0.67613544  0.89438526  1  0  0.100406  0  0.973809  0  0  0.106978  0  1.045128  0  0  0.110588  0  1.042139  0  0.079067  0  0.103332  0.104312  0  1.047352  0
H  H15  1  0.39801713  0.32386207  0.10561309  1  0  0.10038  0  0.973821  0  0  0.106946  0  1.04514  0  0  0.110558  0  1.042146  0  0.07907  0  0.103324  0.104281  0  1.04736  0
H  H16  1  0.36167113  0.59444212  0.81600801  1  0  0.095267  0  0.970093  0  0  0.105533  0  1.034575  0  0  0.108112  0  1.033732  0  0.088484  0  0.100887  0.103861  0  1.034912  0
H  H17  1  0.63832751  0.40555284  0.18398966  1  0  0.095301  0  0.970059  0  0  0.105558  0  1.034555  0  0  0.108139  0  1.033707  0  0.088299  0  0.100877  0.103886  0  1.034893  0
H  H18  1  0.83811414  0.54634292  0.17959047  1  0  0.10208  0  0.957592  0  0  0.110843  0  1.019989  0  0  0.113687  0  1.019037  0  0.107624  0  0.102514  0.108728  0  1.020915  0
H  H19  1  0.16188325  0.45365458  0.82040951  1  0  0.10208  0  0.957562  0  0  0.110833  0  1.019972  0  0  0.113674  0  1.019024  0  0.107615  0  0.102499  0.108719  0  1.020898  0
H  H20  1  0.27411129  0.07250167  0.01916679  1  0  0.089893  0  0.932475  0  0  0.097277  0  0.995468  0  0  0.100203  0  0.992737  0  0.121337  0  0.125139  0.095058  0  0.997556  0
H  H21  1  0.72588989  0.92749922  0.98083112  1  0  0.08992  0  0.932459  0  0  0.097295  0  0.995476  0  0  0.100219  0  0.992744  0  0.121343  0  0.125139  0.095075  0  0.997567  0
H  H22  1  0.50863156  0.18660155  0.08913694  1  0  0.10899  0  0.946003  0  0  0.120449  0  1.003884  0  0  0.123288  0  1.003686  0  0.072926  0  0.110218  0.118367  0  1.00428  0
H  H23  1  0.49136888  0.81340019  0.91086574  1  0  0.108979  0  0.946057  0  0  0.120445  0  1.003924  0  0  0.123283  0  1.003729  0  0.072939  0  0.110222  0.118364  0  1.004318  0
H  H24  1  0.68571673  0.09955747  0.20020727  1  0  0.116949  0  0.945411  0  0  0.127336  0  1.005368  0  0  0.130767  0  1.002418  0  0.140207  0  0.114506  0.124764  0  1.007595  0
H  H25  1  0.31428246  0.90044681  0.79979609  1  0  0.116938  0  0.945429  0  0  0.127365  0  1.005334  0  0  0.130799  0  1.00239  0  0.140211  0  0.114523  0.124792  0  1.007561  0
H  H26  1  0.74803505  0.93002616  0.29090798  1  0  0.09822  0  0.976662  0  0  0.107863  0  1.039145  0  0  0.109313  0  1.040877  0  0.08872  0  0.102281  0.106656  0  1.038231  0
H  H27  1  0.25196443  0.06997558  0.70909038  1  0  0.098253  0  0.976642  0  0  0.107881  0  1.039142  0  0  0.10933  0  1.040874  0  0.088692  0  0.102282  0.106674  0  1.038228  0
H  H28  1  0.68271728  0.73091461  0.32491632  1  0  0.098812  0  0.935947  0  0  0.111468  0  0.991658  0  0  0.113976  0  0.991636  0  0.083247  0  0.106946  0.109657  0  0.991778  0
H  H29  1  0.31728508  0.26908713  0.67508032  1  0  0.098813  0  0.935935  0  0  0.111473  0  0.991644  0  0  0.113979  0  0.991626  0  0.083236  0  0.106984  0.109662  0  0.991764  0
H  H30  1  0.50324752  0.55516048  0.30256278  1  0  0.1119  0  0.922932  0  0  0.125508  0  0.976138  0  0  0.128459  0  0.973986  0  0.104467  0  0.115728  0.123377  0  0.977722  0
H  H31  1  0.49675558  0.44484041  0.69743970  1  0  0.111909  0  0.922991  0  0  0.12552  0  0.97619  0  0  0.128471  0  0.974038  0  0.104515  0  0.115727  0.123389  0  0.977775  0
H  H32  1  0.26471554  0.45886793  0.22291118  1  0  0.118089  0  0.952667  0  0  0.124003  0  1.017391  0  0  0.127993  0  1.015124  0  0.138518  0  0.11042  0.121011  0  1.019332  0
H  H33  1  0.73528926  0.54113212  0.77709004  1  0  0.118079  0  0.952659  0  0  0.124023  0  1.017349  0  0  0.128015  0  1.01508  0  0.138752  0  0.110417  0.121022  0  1.019301  0
H  H34  1  0.10557548  0.56288550  0.10909690  1  0  0.096736  0  0.933585  0  0  0.103259  0  0.997702  0  0  0.106555  0  0.994179  0  0.144438  0  0.126104  0.10079  0  1.000367  0
H  H35  1  0.89442910  0.43711369  0.89090175  1  0  0.096709  0  0.933599  0  0  0.103259  0  0.997686  0  0  0.106556  0  0.994163  0  0.14442  0  0.126117  0.10079  0  1.00035  0
H  H36  1  0.22046564  0.22299489  0.17706176  1  0  0.416111  0  0.865214  0  0  0.384602  0  0.945964  0  0  0.39714  0  0.931561  0  0.667132  0  0.315147  0.375766  0  0.956009  0
H  H37  1  0.77951528  0.77699497  0.82293924  1  0  0.41604  0  0.865327  0  0  0.38458  0  0.945986  0  0  0.397114  0  0.931589  0  0.667063  0  0.315186  0.375753  0  0.956014  0
H  H38  1  0.28217891  0.00919504  0.31563862  1  0  0.114388  0  0.956203  0  0  0.119477  0  1.026837  0  0  0.122665  0  1.025108  0  0.122407  0  0.108229  0.117096  0  1.028238  0
H  H39  1  0.71782220  0.99080925  0.68436033  1  0  0.11441  0  0.95622  0  0  0.119489  0  1.026865  0  0  0.122688  0  1.025105  0  0.122386  0  0.108235  0.117108  0  1.028269  0
H  H40  1  0.29524137  0.81908601  0.37325937  1  0  0.09966  0  0.941951  0  0  0.11083  0  1.001313  0  0  0.113296  0  1.00121  0  0.062425  0  0.104589  0.109026  0  1.001565  0
H  H41  1  0.70475645  0.18092760  0.62673857  1  0  0.099633  0  0.941899  0  0  0.110823  0  1.001254  0  0  0.113286  0  1.001153  0  0.062178  0  0.10461  0.109019  0  1.001504  0
H  H42  1  0.58164608  0.30231565  0.50010864  1  0  0.090164  0  0.975876  0  0  0.100646  0  1.037684  0  0  0.103732  0  1.03551  0  0.056757  0  0.100199  0.098382  0  1.039331  0
H  H43  1  0.41834439  0.69769203  0.49989030  1  0  0.090077  0  0.976015  0  0  0.100543  0  1.037847  0  0  0.103627  0  1.035677  0  0.056723  0  0.100157  0.098278  0  1.039494  0
C  C44  1  0.00817679  0.99576982  0.17585547  1  0  0.755677  0  3.825969  0  0  0.709531  0  4.109827  0  0  0.746613  0  4.095457  0  1.598733  0  0.247188  0.683952  0  4.119119  0
C  C45  1  0.99182349  0.00422768  0.82414442  1  0  0.755539  0  3.826096  0  0  0.709411  0  4.109915  0  0  0.74654  0  4.095459  0  1.598713  0  0.24719  0.683827  0  4.119207  0
C  C46  1  0.00532083  0.97866909  0.29468177  1  0  -0.071674  0  3.762131  0  0  -0.051938  0  3.998518  0  0  -0.058859  0  4.019224  0  -0.037712  0  -0.016004  -0.047511  0  3.984946  0
C  C47  1  0.99467848  0.02132841  0.70531788  1  0  -0.071553  0  3.762075  0  0  -0.05182  0  3.998459  0  0  -0.058757  0  4.019152  0  -0.037715  0  -0.015996  -0.047393  0  3.984888  0
C  C48  1  0.01637710  0.87257924  0.33398455  1  0  -0.079979  0  3.744787  0  0  -0.104017  0  3.994384  0  0  -0.104912  0  4.014274  0  -0.061995  0  -0.085866  -0.103318  0  3.980964  0
C  C49  1  0.98362126  0.12741826  0.66601485  1  0  -0.080066  0  3.744768  0  0  -0.104118  0  3.994383  0  0  -0.105011  0  4.01427  0  -0.061859  0  -0.085905  -0.103417  0  3.980959  0
C  C50  1  0.01440291  0.85645569  0.44364318  1  0  -0.111368  0  3.744706  0  0  -0.125502  0  3.986926  0  0  -0.128288  0  4.008157  0  -0.029712  0  -0.087091  -0.123475  0  3.972414  0
C  C51  1  0.98559522  0.14354096  0.55635530  1  0  -0.111345  0  3.744729  0  0  -0.12548  0  3.986948  0  0  -0.128264  0  4.008181  0  -0.029478  0  -0.087067  -0.123453  0  3.972438  0
C  C52  1  0.00494280  0.94614207  0.51972590  1  0  0.055935  0  3.794848  0  0  0.072581  0  4.020419  0  0  0.072206  0  4.044163  0  0.023187  0  -0.005924  0.072837  0  4.004016  0
C  C53  1  0.99505674  0.05385628  0.48027469  1  0  0.055866  0  3.794981  0  0  0.072516  0  4.020537  0  0  0.07214  0  4.044283  0  -0.029176  0  -0.005938  0.072773  0  4.004136  0
C  C54  1  0.99394349  0.06693545  0.36627883  1  0  -0.102886  0  3.693231  0  0  -0.133668  0  3.940846  0  0  -0.132613  0  3.95767  0  -0.048879  0  -0.075462  -0.134064  0  3.92938  0
C  C55  1  0.00605775  0.93306205  0.63372212  1  0  -0.102911  0  3.6931  0  0  -0.133737  0  3.940703  0  0  -0.132684  0  3.957526  0  -0.048929  0  -0.075411  -0.134132  0  3.929236  0
C  C56  1  0.09321749  0.67957000  0.81036389  1  0  0.625056  0  3.951949  0  0  0.583264  0  4.239496  0  0  0.616954  0  4.23207  0  1.547069  0  0.185598  0.560535  0  4.24352  0
C  C57  1  0.90678879  0.32042835  0.18964003  1  0  0.625191  0  3.951776  0  0  0.583387  0  4.239342  0  0  0.617072  0  4.231912  0  1.54687  0  0.185666  0.560655  0  4.243365  0
C  C58  1  0.07882514  0.62316049  0.69366050  1  0  -0.055198  0  3.766204  0  0  -0.033216  0  4.001423  0  0  -0.04034  0  4.023492  0  -0.052435  0  -0.015529  -0.028735  0  3.986569  0
C  C59  1  0.92118233  0.37683871  0.30634378  1  0  -0.055074  0  3.765965  0  0  -0.033118  0  4.001256  0  0  -0.040239  0  4.023324  0  -0.052518  0  -0.015507  -0.028635  0  3.9864  0
C  C60  1  0.96225592  0.54606215  0.63347468  1  0  -0.101315  0  3.676498  0  0  -0.131659  0  3.917381  0  0  -0.130767  0  3.934651  0  -0.026  0  -0.075967  -0.132  0  3.905637  0
C  C61  1  0.03775183  0.45393450  0.36653031  1  0  -0.101255  0  3.676603  0  0  -0.131667  0  3.917423  0  0  -0.130774  0  3.934693  0  -0.026281  0  -0.075906  -0.132008  0  3.905679  0
C  C62  1  0.94638467  0.48880184  0.52404519  1  0  0.053875  0  3.806139  0  0  0.072252  0  4.029256  0  0  0.071683  0  4.05363  0  -0.031888  0  -0.004962  0.072529  0  4.012777  0
C  C63  1  0.05362479  0.51119396  0.47596018  1  0  0.053519  0  3.806415  0  0  0.072192  0  4.029276  0  0  0.071622  0  4.053648  0  -0.087748  0  -0.005068  0.072469  0  4.012798  0
C  C64  1  0.82847317  0.40876516  0.46084398  1  0  -0.108493  0  3.746522  0  0  -0.128623  0  3.993869  0  0  -0.131681  0  4.0145  0  -0.024827  0  -0.08609  -0.126531  0  3.979792  0
C  C65  1  0.17153334  0.59123404  0.53916006  1  0  -0.108431  0  3.746609  0  0  -0.128613  0  3.993906  0  0  -0.13167  0  4.014534  0  -0.024809  0  -0.086116  -0.126522  0  3.979829  0
C  C66  1  0.18386392  0.64691490  0.64487449  1  0  -0.074645  0  3.747113  0  0  -0.100656  0  4.003359  0  0  -0.100923  0  4.023195  0  -0.053039  0  -0.083889  -0.100252  0  3.989686  0
C  C67  1  0.81614207  0.35308599  0.35512790  1  0  -0.074695  0  3.746871  0  0  -0.100702  0  4.003131  0  0  -0.100969  0  4.022966  0  -0.053073  0  -0.083915  -0.1003  0  3.98946  0
C  C68  1  0.85269086  0.69591579  0.02964015  1  0  0.657035  0  3.89049  0  0  0.612766  0  4.170884  0  0  0.647243  0  4.162605  0  1.520817  0  0.202613  0.589408  0  4.175455  0
C  C69  1  0.14730868  0.30408256  0.97035962  1  0  0.657029  0  3.890377  0  0  0.612784  0  4.170754  0  0  0.647267  0  4.162463  0  1.520998  0  0.202644  0.589426  0  4.175326  0
C  C70  1  0.73057455  0.62033327  0.03721108  1  0  -0.06446  0  3.780726  0  0  -0.042111  0  4.01444  0  0  -0.05027  0  4.037722  0  -0.027803  0  -0.01892  -0.036812  0  3.998709  0
C  C71  1  0.26942454  0.37966338  0.96278846  1  0  -0.064336  0  3.780584  0  0  -0.042032  0  4.014317  0  0  -0.0502  0  4.037597  0  -0.027621  0  -0.018894  -0.036736  0  3.99859  0
C  C72  1  0.60898307  0.61944176  0.95986002  1  0  -0.099338  0  3.692045  0  0  -0.132744  0  3.942489  0  0  -0.131613  0  3.960381  0  -0.007872  0  -0.076009  -0.13296  0  3.930014  0
C  C73  1  0.39101528  0.38055574  0.04013857  1  0  -0.099176  0  3.69189  0  0  -0.132514  0  3.942312  0  0  -0.131379  0  3.960203  0  -0.007835  0  -0.075932  -0.132729  0  3.929835  0
C  C74  1  0.49436883  0.53979697  0.95924471  1  0  0.058468  0  3.782463  0  0  0.075762  0  4.008245  0  0  0.075266  0  4.032253  0  -0.054829  0  -0.003326  0.076077  0  3.991902  0
C  C75  1  0.50563099  0.46019883  0.04075251  1  0  0.058276  0  3.782496  0  0  0.075462  0  4.008379  0  0  0.074961  0  4.032389  0  -0.000587  0  -0.003352  0.075779  0  3.992034  0
C  C76  1  0.36900806  0.53478466  0.87871296  1  0  -0.101861  0  3.726943  0  0  -0.122948  0  3.978046  0  0  -0.125871  0  3.999421  0  0.003092  0  -0.085178  -0.120936  0  3.963303  0
C  C77  1  0.63099177  0.46521115  0.12128507  1  0  -0.101914  0  3.726946  0  0  -0.122984  0  3.9781  0  0  -0.125904  0  3.999471  0  0.002318  0  -0.085151  -0.120974  0  3.963357  0
C  C78  1  0.74108466  0.54315180  0.11956138  1  0  -0.069225  0  3.73475  0  0  -0.09328  0  3.985014  0  0  -0.094098  0  4.00658  0  -0.097194  0  -0.085477  -0.092618  0  3.970548  0
C  C79  1  0.25891369  0.45684570  0.88043803  1  0  -0.069313  0  3.734629  0  0  -0.093351  0  3.984912  0  0  -0.094164  0  4.006476  0  -0.098282  0  -0.085444  -0.09269  0  3.97045  0
C  C80  1  0.35390224  0.03574782  0.06714989  1  0  0.163847  0  3.688959  0  0  0.131168  0  3.953579  0  0  0.140344  0  3.968375  0  0.483448  0  0.065705  0.125303  0  3.943126  0
C  C81  1  0.64609797  0.96425307  0.93284859  1  0  0.163851  0  3.688966  0  0  0.131153  0  3.953624  0  0  0.140332  0  3.968411  0  0.48346  0  0.065711  0.125287  0  3.943173  0
C  C82  1  0.48495909  0.10011901  0.10821732  1  0  -0.113744  0  3.711646  0  0  -0.130171  0  3.972242  0  0  -0.13766  0  3.993866  0  0.025684  0  -0.082959  -0.125363  0  3.957661  0
C  C83  1  0.51504090  0.89988103  0.89178105  1  0  -0.113713  0  3.711681  0  0  -0.130134  0  3.972277  0  0  -0.137622  0  3.993907  0  0.025925  0  -0.08298  -0.125328  0  3.957699  0
C  C84  1  0.58312368  0.05154564  0.17034317  1  0  -0.034614  0  3.656204  0  0  -0.058451  0  3.902607  0  0  -0.055239  0  3.91936  0  -0.045908  0  -0.056236  -0.060206  0  3.89111  0
C  C85  1  0.41687773  0.94845610  0.82965731  1  0  -0.034623  0  3.656255  0  0  -0.05848  0  3.902636  0  0  -0.05528  0  3.919404  0  -0.046123  0  -0.05623  -0.060234  0  3.891139  0
C  C86  1  0.54973602  0.93841451  0.19181443  1  0  0.025596  0  3.788931  0  0  0.042195  0  4.01843  0  0  0.039211  0  4.042948  0  -0.04091  0  0.001234  0.043898  0  4.001959  0
C  C87  1  0.45026227  0.06158638  0.80818601  1  0  0.025649  0  3.788892  0  0  0.042259  0  4.018381  0  0  0.039278  0  4.042902  0  -0.041205  0  0.001267  0.043963  0  4.001911  0
C  C88  1  0.64554265  0.88265391  0.25663696  1  0  -0.095296  0  3.736053  0  0  -0.115355  0  3.983856  0  0  -0.118289  0  4.007738  0  0.027975  0  -0.083108  -0.113179  0  3.967784  0
C  C89  1  0.35445706  0.11734868  0.74336315  1  0  -0.095386  0  3.736212  0  0  -0.115444  0  3.984024  0  0  -0.118377  0  4.007902  0  0.028264  0  -0.083162  -0.113266  0  3.967951  0
C  C90  1  0.60942571  0.77299632  0.27530670  1  0  -0.092707  0  3.748927  0  0  -0.115521  0  4.002506  0  0  -0.119201  0  4.026421  0  -0.102077  0  -0.080756  -0.112927  0  3.98623  0
C  C91  1  0.39057547  0.22700457  0.72469285  1  0  -0.092664  0  3.749046  0  0  -0.115474  0  4.002621  0  0  -0.119151  0  4.026536  0  -0.102032  0  -0.080753  -0.112881  0  3.986345  0
C  C92  1  0.47467425  0.71099175  0.23138106  1  0  0.027259  0  3.788569  0  0  0.042484  0  4.021203  0  0  0.039647  0  4.046421  0  0.030659  0  0.000909  0.044217  0  4.004239  0
C  C93  1  0.52532789  0.28900915  0.76861873  1  0  0.027266  0  3.78857  0  0  0.042471  0  4.021224  0  0  0.03963  0  4.046443  0  0.030611  0  0.0009  0.044203  0  4.004261  0
C  C94  1  0.43219288  0.59909732  0.25259491  1  0  -0.037488  0  3.674797  0  0  -0.06175  0  3.921121  0  0  -0.059109  0  3.939486  0  0.052294  0  -0.055812  -0.063275  0  3.908561  0
C  C95  1  0.56780978  0.40090188  0.74740407  1  0  -0.037528  0  3.674849  0  0  -0.06178  0  3.921177  0  0  -0.059136  0  3.939541  0  0.052313  0  -0.055829  -0.063304  0  3.908614  0
C  C96  1  0.29997566  0.54550485  0.20900820  1  0  -0.116581  0  3.722761  0  0  -0.130036  0  3.980211  0  0  -0.137921  0  4.002114  0  -0.097081  0  -0.080929  -0.1249  0  3.965601  0
C  C97  1  0.70002892  0.45449435  0.79099046  1  0  -0.116552  0  3.722829  0  0  -0.130026  0  3.980281  0  0  -0.137912  0  4.002184  0  -0.097358  0  -0.08091  -0.124884  0  3.965675  0
C  C98  1  0.21049653  0.60333433  0.14399617  1  0  0.168984  0  3.673047  0  0  0.137788  0  3.931926  0  0  0.14666  0  3.946971  0  0.460864  0  0.065448  0.132009  0  3.92154  0
C  C99  1  0.78950539  0.39666571  0.85600187  1  0  0.16896  0  3.673086  0  0  0.137731  0  3.931991  0  0  0.146602  0  3.947036  0  0.460813  0  0.065397  0.131952  0  3.921604  0
C  C100  1  0.37712047  0.76346113  0.16560352  1  0  0.141701  0  3.752624  0  0  0.138141  0  3.99017  0  0  0.142808  0  4.010492  0  0.484639  0  0.122361  0.135036  0  3.976214  0
C  C101  1  0.62288071  0.23653976  0.83439602  1  0  0.14171  0  3.752586  0  0  0.138164  0  3.990128  0  0  0.142836  0  4.010443  0  0.484662  0  0.122372  0.13506  0  3.976171  0
C  C102  1  0.41519041  0.87903951  0.14551733  1  0  0.140858  0  3.75397  0  0  0.136058  0  3.99239  0  0  0.14062  0  4.013239  0  0.472516  0  0.121288  0.133074  0  3.978114  0
C  C103  1  0.58481003  0.12096223  0.85448290  1  0  0.140923  0  3.753848  0  0  0.136111  0  3.992282  0  0  0.140671  0  4.013123  0  0.472584  0  0.121369  0.133126  0  3.978005  0
C  C104  1  0.36735971  0.23597822  0.31794348  1  0  0.636919  0  3.851542  0  0  0.591109  0  4.14494  0  0  0.624292  0  4.136141  0  1.521714  0  0.224721  0.568574  0  4.150355  0
C  C105  1  0.63263641  0.76403625  0.68205164  1  0  0.636792  0  3.851512  0  0  0.591169  0  4.144654  0  0  0.624347  0  4.135868  0  1.52228  0  0.224791  0.568629  0  4.150089  0
C  C106  1  0.42642445  0.16206590  0.40014190  1  0  -0.07339  0  3.793321  0  0  -0.050454  0  4.027507  0  0  -0.059285  0  4.052008  0  0.038663  0  -0.021645  -0.044748  0  4.011021  0
C  C107  1  0.57357083  0.83794177  0.59985581  1  0  -0.073472  0  3.793574  0  0  -0.050584  0  4.027681  0  0  -0.059415  0  4.052187  0  0.038533  0  -0.021761  -0.044877  0  4.011197  0
C  C108  1  0.37331774  0.04636622  0.38467983  1  0  -0.090096  0  3.662675  0  0  -0.125972  0  3.914394  0  0  -0.124732  0  3.933347  0  -0.075184  0  -0.075005  -0.126671  0  3.901673  0
C  C109  1  0.62668088  0.95364315  0.61531966  1  0  -0.090086  0  3.662653  0  0  -0.125954  0  3.914356  0  0  -0.124707  0  3.933305  0  -0.075278  0  -0.074906  -0.126657  0  3.901641  0
C  C110  1  0.43874318  0.97535413  0.45582058  1  0  0.058953  0  3.775763  0  0  0.077789  0  3.999651  0  0  0.077536  0  4.022545  0  0.024619  0  -0.002387  0.077957  0  3.984099  0
C  C111  1  0.56125567  0.02465610  0.54418148  1  0  0.058945  0  3.775889  0  0  0.077747  0  3.9998  0  0  0.077489  0  4.022695  0  -0.023436  0  -0.002492  0.077915  0  3.98425  0
C  C112  1  0.38792054  0.85614354  0.44092761  1  0  -0.10412  0  3.740834  0  0  -0.125373  0  3.994424  0  0  -0.128253  0  4.016533  0  -0.033897  0  -0.085819  -0.123514  0  3.979581  0
C  C113  1  0.61207519  0.14386584  0.55907115  1  0  -0.10407  0  3.74093  0  0  -0.125345  0  3.99453  0  0  -0.128222  0  4.016642  0  -0.034  0  -0.085871  -0.123485  0  3.979686  0
C  C114  1  0.54555928  0.21076397  0.48927397  1  0  -0.081748  0  3.780106  0  0  -0.108047  0  4.033305  0  0  -0.109468  0  4.055867  0  -0.061659  0  -0.089436  -0.106921  0  4.017998  0
C  C115  1  0.45443526  0.78924456  0.51072524  1  0  -0.081522  0  3.779996  0  0  -0.107809  0  4.033193  0  0  -0.109229  0  4.055755  0  -0.061888  0  -0.089359  -0.106684  0  4.017886  0
N  N116  1  0.31964336  0.92805228  0.08398047  1  0  -0.438042  0  3.247113  0  0  -0.385428  0  3.518222  0  0  -0.401626  0  3.53597  0  -1.250949  0  -0.384446  -0.373934  0  3.50571  0
N  N117  1  0.68035567  0.07194776  0.91601847  1  0  -0.438162  0  3.247158  0  0  -0.385547  0  3.518287  0  0  -0.401745  0  3.536043  0  -1.251017  0  -0.384525  -0.374047  0  3.505769  0
N  N118  1  0.24706484  0.70934614  0.12281555  1  0  -0.454373  0  3.247475  0  0  -0.401776  0  3.516954  0  0  -0.418039  0  3.534587  0  -1.257843  0  -0.389111  -0.390279  0  3.504601  0
N  N119  1  0.75293707  0.29065390  0.87718412  1  0  -0.454333  0  3.247389  0  0  -0.401734  0  3.516866  0  0  -0.417994  0  3.534494  0  -1.257849  0  -0.389108  -0.390236  0  3.504514  0
O  O120  1  0.07028289  0.93677908  0.13125971  1  0  -0.750779  0  2.099994  0  0  -0.699592  0  2.374474  0  0  -0.725446  0  2.360615  0  -1.199154  0  -0.42082  -0.680637  0  2.38329  0
O  O121  1  0.92971716  0.06321757  0.86874333  1  0  -0.750778  0  2.10006  0  0  -0.699575  0  2.374483  0  0  -0.725464  0  2.360645  0  -1.199097  0  -0.420899  -0.680652  0  2.383373  0
O  O122  1  0.94883458  0.06789567  0.12690106  1  0  -0.7411  0  2.049158  0  0  -0.687631  0  2.315637  0  0  -0.713858  0  2.302987  0  -1.207386  0  -0.416981  -0.668719  0  2.323943  0
O  O123  1  0.05116717  0.93210013  0.87309583  1  0  -0.74102  0  2.049157  0  0  -0.687552  0  2.315614  0  0  -0.713807  0  2.302965  0  -1.207453  0  -0.416923  -0.668643  0  2.323922  0
O  O124  1  0.99705380  0.65508270  0.85265597  1  0  -0.699629  0  1.967598  0  0  -0.650973  0  2.207231  0  0  -0.676277  0  2.1998  0  -1.183862  0  -0.398535  -0.633043  0  2.211819  0
O  O125  1  0.00294982  0.34491649  0.14734325  1  0  -0.699735  0  1.967569  0  0  -0.651084  0  2.207221  0  0  -0.676385  0  2.19979  0  -1.183804  0  -0.398566  -0.633149  0  2.21181  0
O  O126  1  0.19902902  0.75258995  0.86605104  1  0  -0.686102  0  1.981722  0  0  -0.642944  0  2.228332  0  0  -0.667429  0  2.221228  0  -1.183472  0  -0.371261  -0.625461  0  2.232339  0
O  O127  1  0.80097851  0.24740585  0.13395710  1  0  -0.686122  0  1.981659  0  0  -0.642913  0  2.228192  0  0  -0.667434  0  2.22117  0  -1.183338  0  -0.37127  -0.62543  0  2.232203  0
O  O128  1  0.96509143  0.68578344  0.09263748  1  0  -0.691944  0  2.012292  0  0  -0.641297  0  2.252981  0  0  -0.666674  0  2.244331  0  -1.177866  0  -0.378819  -0.623038  0  2.258342  0
O  O129  1  0.03490776  0.31422085  0.90736915  1  0  -0.691955  0  2.012337  0  0  -0.641317  0  2.253025  0  0  -0.666696  0  2.244375  0  -1.178102  0  -0.378828  -0.623051  0  2.258379  0
O  O130  1  0.84716799  0.76973564  0.95899487  1  0  -0.70574  0  2.047801  0  0  -0.646349  0  2.285012  0  0  -0.672321  0  2.275265  0  -1.195233  0  -0.364376  -0.627958  0  2.291136  0
O  O131  1  0.15282975  0.23025592  0.04099989  1  0  -0.705805  0  2.047597  0  0  -0.646402  0  2.28481  0  0  -0.672376  0  2.275058  0  -1.195215  0  -0.364437  -0.628003  0  2.290943  0
O  O132  1  0.24734777  0.18454879  0.24773956  1  0  -0.549597  0  2.125739  0  0  -0.498279  0  2.34974  0  0  -0.520704  0  2.335882  0  -1.181859  0  -0.32612  -0.482624  0  2.358807  0
O  O133  1  0.75264345  0.81544363  0.75226259  1  0  -0.549482  0  2.125969  0  0  -0.498229  0  2.349828  0  0  -0.520659  0  2.336008  0  -1.182087  0  -0.326184  -0.482543  0  2.358815  0
O  O134  1  0.42604079  0.33274664  0.31286198  1  0  -0.563905  0  1.89943  0  0  -0.5228  0  2.107315  0  0  -0.542764  0  2.098844  0  -1.158745  0  -0.300581  -0.508982  0  2.112712  0
O  O135  1  0.57393298  0.66725256  0.68712480  1  0  -0.564033  0  1.898886  0  0  -0.52303  0  2.106725  0  0  -0.542991  0  2.098269  0  -1.158709  0  -0.300715  -0.50921  0  2.112141  0
