# generated using pymatgen
data_CdH9C12N2O5
_symmetry_space_group_name_H-M   'P 1'
_cell_length_a   7.74308929
_cell_length_b   14.42769700
_cell_length_c   26.77876425
_cell_angle_alpha   89.99991570
_cell_angle_beta   90.00054487
_cell_angle_gamma   90.31011604
_symmetry_Int_Tables_number   1
_chemical_formula_structural   CdH9C12N2O5
_chemical_formula_sum   'Cd8 H72 C96 N16 O40'
_cell_volume   2991.54438341
_cell_formula_units_Z   8
loop_
 _symmetry_equiv_pos_site_id
 _symmetry_equiv_pos_as_xyz
  1  'x, y, z'
loop_
 _atom_site_type_symbol
 _atom_site_label
 _atom_site_symmetry_multiplicity
 _atom_site_fract_x
 _atom_site_fract_y
 _atom_site_fract_z
 _atom_site_occupancy
 _atom_site_pbe_bader_charge
 _atom_site_pbe_bader_spin_density
 _atom_site_pbe_cm5_charge
 _atom_site_pbe_ddec_charge
 _atom_site_pbe_ddec_spin_density
 _atom_site_pbe_ddec_sum_bond_order
 _atom_site_pbe_magmom
Cd  Cd0  1  0.74515092  0.33487973  0.90391117  1  1.252428  0  0.769273  0.860512  0  2.164839  0
Cd  Cd1  1  0.25486209  0.16512015  0.40391026  1  1.252445  0  0.769287  0.860595  0  2.164729  0
Cd  Cd2  1  0.25485407  0.66510953  0.09609563  1  1.252463  0  0.769251  0.860535  0  2.164866  0
Cd  Cd3  1  0.74514321  0.83488436  0.59609093  1  1.252563  0  0.769312  0.86056  0  2.164878  0
Cd  Cd4  1  0.63042806  0.74961588  0.83198071  1  1.243886  0  0.77181  0.863208  0  2.126728  0
Cd  Cd5  1  0.36958737  0.75038431  0.33197744  1  1.243782  0  0.77177  0.863114  0  2.126853  0
Cd  Cd6  1  0.36956154  0.25037898  0.16802049  1  1.243925  0  0.771797  0.86316  0  2.126713  0
Cd  Cd7  1  0.63042814  0.24961393  0.66802077  1  1.243929  0  0.771777  0.863193  0  2.126636  0
H  H8  1  0.24380560  0.75063426  0.85066363  1  0.087894  0  0.115776  0.089524  0  1.015691  0
H  H9  1  0.75620291  0.74937699  0.35064911  1  0.087741  0  0.115776  0.089445  0  1.015671  0
H  H10  1  0.75616227  0.24937174  0.14935175  1  0.087695  0  0.115795  0.089399  0  1.015761  0
H  H11  1  0.24379844  0.25062407  0.64934835  1  0.087729  0  0.115826  0.089544  0  1.015587  0
H  H12  1  0.58604443  0.53768164  0.88064243  1  0.10922  0  0.116879  0.093317  0  1.019728  0
H  H13  1  0.41396601  0.96231220  0.38064471  1  0.108772  0  0.116843  0.093326  0  1.019572  0
H  H14  1  0.41393880  0.46231739  0.11935392  1  0.109201  0  0.116907  0.093358  0  1.019683  0
H  H15  1  0.58602876  0.03768263  0.61935313  1  0.108913  0  0.116849  0.093291  0  1.019574  0
H  H16  1  0.34522537  0.43702812  0.91475274  1  0.106241  0  0.110076  0.11981  0  1.010304  0
H  H17  1  0.65479931  0.06295646  0.41475938  1  0.105982  0  0.11013  0.119868  0  1.010298  0
H  H18  1  0.65477454  0.56296532  0.08524472  1  0.105828  0  0.110087  0.1198  0  1.010283  0
H  H19  1  0.34519660  0.93703075  0.58524294  1  0.10578  0  0.110031  0.119765  0  1.010402  0
H  H20  1  0.80541102  0.25829742  0.78439456  1  0.142238  0  0.114754  0.08958  0  1.020239  0
H  H21  1  0.19459560  0.24170694  0.28439530  1  0.142138  0  0.114749  0.089567  0  1.020263  0
H  H22  1  0.19459210  0.74172789  0.21560626  1  0.142134  0  0.114766  0.089601  0  1.020367  0
H  H23  1  0.80541474  0.75829132  0.71560777  1  0.142299  0  0.114759  0.089567  0  1.020282  0
H  H24  1  0.05206389  0.25727977  0.72453975  1  0.126203  0  0.106074  0.126951  0  1.05218  0
H  H25  1  0.94793549  0.24271852  0.22453809  1  0.126269  0  0.106067  0.126934  0  1.052182  0
H  H26  1  0.94793146  0.74274418  0.27545995  1  0.126353  0  0.106059  0.126859  0  1.052244  0
H  H27  1  0.05208500  0.75727070  0.77546124  1  0.126592  0  0.106068  0.126907  0  1.052265  0
H  H28  1  0.13727734  0.27564743  0.90569833  1  0.080399  0  0.113639  0.086796  0  1.015238  0
H  H29  1  0.86273699  0.22435106  0.40569720  1  0.080306  0  0.113685  0.086842  0  1.015207  0
H  H30  1  0.86272503  0.72433976  0.09430174  1  0.080359  0  0.113621  0.086724  0  1.01515  0
H  H31  1  0.13726202  0.77566248  0.59430699  1  0.080448  0  0.113643  0.086883  0  1.015196  0
H  H32  1  0.75166768  0.13198038  0.88960477  1  0.123323  0  0.123547  0.094855  0  0.983349  0
H  H33  1  0.24832563  0.36802652  0.38960443  1  0.12332  0  0.123535  0.0949  0  0.983241  0
H  H34  1  0.24838780  0.86801498  0.11040053  1  0.123155  0  0.123567  0.094945  0  0.983228  0
H  H35  1  0.75161118  0.63197610  0.61039676  1  0.123137  0  0.123587  0.094896  0  0.983411  0
H  H36  1  0.86559703  0.98406044  0.92057651  1  0.089742  0  0.113171  0.122539  0  1.00251  0
H  H37  1  0.13440339  0.51594858  0.42057913  1  0.089774  0  0.113181  0.12254  0  1.002249  0
H  H38  1  0.13448968  0.01594661  0.07942393  1  0.08897  0  0.11322  0.122539  0  1.002526  0
H  H39  1  0.86551138  0.48404995  0.57942094  1  0.088936  0  0.113217  0.122522  0  1.002591  0
H  H40  1  0.04762467  0.13388593  0.05125294  1  0.090982  0  0.111474  0.118597  0  1.015869  0
H  H41  1  0.95237277  0.36610447  0.55124954  1  0.091044  0  0.111442  0.118555  0  1.015962  0
H  H42  1  0.95246719  0.86612041  0.94874789  1  0.09117  0  0.111422  0.118307  0  1.016192  0
H  H43  1  0.04756495  0.63387874  0.44875129  1  0.091566  0  0.11137  0.118269  0  1.016068  0
H  H44  1  0.93687322  0.27603777  0.01292075  1  0.134882  0  0.122132  0.104829  0  0.99579  0
H  H45  1  0.06311920  0.22395759  0.51291575  1  0.134836  0  0.122135  0.104839  0  0.995835  0
H  H46  1  0.06316562  0.72396456  0.98708567  1  0.135055  0  0.122101  0.104886  0  0.995816  0
H  H47  1  0.93685233  0.77603731  0.48708433  1  0.135082  0  0.1221  0.104897  0  0.995669  0
H  H48  1  0.62557186  0.74651715  0.94956455  1  0.190148  0  0.121625  0.107803  0  1.006527  0
H  H49  1  0.37446438  0.75349239  0.44956241  1  0.190091  0  0.121601  0.107811  0  1.006363  0
H  H50  1  0.37447228  0.25349280  0.05043142  1  0.19006  0  0.121661  0.107864  0  1.006352  0
H  H51  1  0.62551369  0.24650665  0.55043505  1  0.189909  0  0.121615  0.107873  0  1.006442  0
H  H52  1  0.58150078  0.84634577  0.02340259  1  0.138524  0  0.111455  0.132582  0  1.017138  0
H  H53  1  0.41852399  0.65365585  0.52339975  1  0.138694  0  0.111476  0.132557  0  1.017329  0
H  H54  1  0.41857052  0.15366549  0.97659711  1  0.138824  0  0.111528  0.132582  0  1.017348  0
H  H55  1  0.58143320  0.34633216  0.47659771  1  0.138762  0  0.111523  0.132585  0  1.017371  0
H  H56  1  0.42166592  0.06379056  0.92102850  1  0.111265  0  0.111612  0.124172  0  1.015157  0
H  H57  1  0.57833076  0.43620447  0.42102715  1  0.111301  0  0.11167  0.124303  0  1.015205  0
H  H58  1  0.57836256  0.93621111  0.07897233  1  0.111744  0  0.111653  0.124292  0  1.01514  0
H  H59  1  0.42163692  0.56379183  0.57896845  1  0.111735  0  0.111677  0.124293  0  1.015205  0
H  H60  1  0.46273540  0.95112905  0.85236259  1  0.15988  0  0.12525  0.109954  0  0.981573  0
H  H61  1  0.53728975  0.54887175  0.35236219  1  0.160176  0  0.125289  0.110005  0  0.981463  0
H  H62  1  0.53728136  0.04886711  0.14763674  1  0.160358  0  0.125252  0.109973  0  0.981376  0
H  H63  1  0.46270911  0.45113417  0.64763415  1  0.1603  0  0.125239  0.109917  0  0.981417  0
H  H64  1  0.61696209  0.49054209  0.96839784  1  0.608499  0  0.314392  0.395534  0  0.898779  0
H  H65  1  0.38306254  0.00948186  0.46840788  1  0.588454  0  0.314381  0.395611  0  0.898767  0
H  H66  1  0.38303955  0.50947352  0.03158953  1  0.588418  0  0.314453  0.395635  0  0.898814  0
H  H67  1  0.61692231  0.99053380  0.53159519  1  0.588343  0  0.314347  0.39557  0  0.89885  0
H  H68  1  0.78986671  0.44367483  0.98268256  1  0.61787  0  0.297684  0.394261  0  0.929332  0
H  H69  1  0.21014026  0.05634705  0.48267564  1  0.617759  0  0.297652  0.394275  0  0.929333  0
H  H70  1  0.21008959  0.55633397  0.01733246  1  0.617766  0  0.29753  0.394065  0  0.929611  0
H  H71  1  0.78983430  0.94367072  0.51731473  1  0.618148  0  0.297613  0.394124  0  0.92947  0
H  H72  1  0.81983664  0.90116518  0.76627512  1  0.599018  0  0.318357  0.402993  0  0.888949  0
H  H73  1  0.18017936  0.59884141  0.26627070  1  0.598999  0  0.318335  0.402954  0  0.888827  0
H  H74  1  0.18017364  0.09883031  0.23372160  1  0.599078  0  0.318365  0.403004  0  0.888923  0
H  H75  1  0.81982474  0.40116796  0.73372154  1  0.599104  0  0.318343  0.403  0  0.888949  0
H  H76  1  0.62104439  0.90502731  0.77649562  1  0.664836  0  0.302247  0.395178  0  0.920795  0
H  H77  1  0.37897458  0.59498201  0.27649512  1  0.664738  0  0.302262  0.395191  0  0.92077  0
H  H78  1  0.37897346  0.09495914  0.22350408  1  0.664412  0  0.302278  0.395235  0  0.920703  0
H  H79  1  0.62102827  0.40502944  0.72349674  1  0.664569  0  0.302288  0.395219  0  0.920729  0
C  C80  1  0.00431301  0.47476998  0.91374101  1  1.593126  0  0.19689  0.561388  0  4.244704  0
C  C81  1  0.99571015  0.02520490  0.41374488  1  1.591355  0  0.197053  0.561986  0  4.244084  0
C  C82  1  0.99568533  0.52520960  0.08625085  1  1.591946  0  0.196933  0.561309  0  4.244677  0
C  C83  1  0.00428831  0.97478092  0.58626191  1  1.592427  0  0.196991  0.561616  0  4.244273  0
C  C84  1  0.14963060  0.53867583  0.89915425  1  -0.056633  0  0.015675  0.017849  0  3.89383  0
C  C85  1  0.85039323  0.96131169  0.39915438  1  -0.055416  0  0.015732  0.017997  0  3.893149  0
C  C86  1  0.85036394  0.46130722  0.10084582  1  -0.055201  0  0.015761  0.017949  0  3.893668  0
C  C87  1  0.14961180  0.03867966  0.60084569  1  -0.055958  0  0.015727  0.018125  0  3.893398  0
C  C88  1  0.11920709  0.62801985  0.88049797  1  -0.006287  0  -4.3e-05  -0.064779  0  3.907928  0
C  C89  1  0.88080594  0.87197468  0.38048594  1  -0.00676  0  -0.000132  -0.064916  0  3.90786  0
C  C90  1  0.88078243  0.37197085  0.11951331  1  -0.006587  0  -0.000216  -0.065091  0  3.907935  0
C  C91  1  0.11919657  0.12801944  0.61950966  1  -0.006621  0  -0.000198  -0.065101  0  3.908105  0
C  C92  1  0.26095290  0.68024161  0.86472483  1  0.564218  0  0.044977  0.059845  0  3.931783  0
C  C93  1  0.73905983  0.81976405  0.36471580  1  0.564516  0  0.044953  0.059879  0  3.931989  0
C  C94  1  0.73902523  0.31976090  0.13528682  1  0.564178  0  0.045087  0.060224  0  3.931624  0
C  C95  1  0.26094015  0.18023285  0.63528278  1  0.564647  0  0.044914  0.059722  0  3.931837  0
C  C96  1  0.45258359  0.56178297  0.88223192  1  0.516688  0  0.047039  0.089784  0  3.942745  0
C  C97  1  0.54744004  0.93822192  0.38223049  1  0.517336  0  0.047119  0.089836  0  3.942325  0
C  C98  1  0.54740739  0.43821604  0.11777301  1  0.516917  0  0.046891  0.08959  0  3.942418  0
C  C99  1  0.45255349  0.06177500  0.61776884  1  0.516924  0  0.047106  0.089744  0  3.942445  0
C  C100  1  0.31921966  0.50618139  0.90039690  1  -0.02944  0  -0.079359  -0.144761  0  3.953204  0
C  C101  1  0.68080686  0.99380959  0.40039990  1  -0.029636  0  -0.079433  -0.144968  0  3.953128  0
C  C102  1  0.68077635  0.49381067  0.09960093  1  -0.029878  0  -0.079297  -0.144598  0  3.952876  0
C  C103  1  0.31919426  0.00617969  0.59960428  1  -0.029273  0  -0.079292  -0.144733  0  3.953201  0
C  C104  1  0.94067781  0.66896548  0.87788135  1  1.60623  0  0.198903  0.577844  0  4.261145  0
C  C105  1  0.05932880  0.83103531  0.37786483  1  1.606108  0  0.199052  0.57827  0  4.260198  0
C  C106  1  0.05931327  0.33103838  0.12212881  1  1.606135  0  0.199101  0.578348  0  4.26026  0
C  C107  1  0.94068283  0.16896294  0.62212778  1  1.605899  0  0.199019  0.57831  0  4.259999  0
C  C108  1  0.93882818  0.26307978  0.79757123  1  0.42146  0  0.045445  0.093495  0  3.945993  0
C  C109  1  0.06117243  0.23692595  0.29757197  1  0.421619  0  0.045468  0.093557  0  3.945866  0
C  C110  1  0.06116835  0.73693862  0.20242698  1  0.421973  0  0.0456  0.093486  0  3.946004  0
C  C111  1  0.93883154  0.76307718  0.70242922  1  0.421508  0  0.04547  0.093507  0  3.945891  0
C  C112  1  0.07726988  0.26355460  0.76441578  1  -0.031367  0  -0.08276  -0.154675  0  3.9207  0
C  C113  1  0.92272573  0.23644846  0.26441555  1  -0.031637  0  -0.082753  -0.154712  0  3.920666  0
C  C114  1  0.92272671  0.73646658  0.23558392  1  -0.032073  0  -0.082879  -0.154652  0  3.920531  0
C  C115  1  0.07727679  0.76354636  0.73558527  1  -0.032018  0  -0.082753  -0.154682  0  3.920827  0
C  C116  1  0.24606291  0.27109598  0.78285301  1  0.015401  0  0.02068  0.036977  0  3.872825  0
C  C117  1  0.75393722  0.22890979  0.28285232  1  0.015588  0  0.020711  0.037079  0  3.872828  0
C  C118  1  0.75393734  0.72891479  0.21714483  1  0.015666  0  0.020558  0.036854  0  3.872897  0
C  C119  1  0.24605892  0.77108920  0.71714664  1  0.015639  0  0.020642  0.037058  0  3.872742  0
C  C120  1  0.26851560  0.27307477  0.83484125  1  -0.002144  0  -0.007095  -0.082981  0  3.927761  0
C  C121  1  0.73149275  0.22693362  0.33484236  1  -0.002301  0  -0.007153  -0.083164  0  3.927476  0
C  C122  1  0.73147161  0.72692910  0.16515659  1  -0.002239  0  -0.007142  -0.083239  0  3.92803  0
C  C123  1  0.26851912  0.77307642  0.66515771  1  -0.002003  0  -0.007148  -0.083027  0  3.927954  0
C  C124  1  0.12190835  0.27150548  0.86523341  1  0.539251  0  0.043522  0.065983  0  3.946657  0
C  C125  1  0.87809707  0.22850076  0.36523456  1  0.539623  0  0.043574  0.066114  0  3.946502  0
C  C126  1  0.87809032  0.72849074  0.13476778  1  0.539436  0  0.043627  0.066211  0  3.946589  0
C  C127  1  0.12190576  0.77150930  0.63476776  1  0.539312  0  0.043462  0.06574  0  3.946937  0
C  C128  1  0.43986380  0.28617079  0.85959393  1  1.565217  0  0.190121  0.562627  0  4.250815  0
C  C129  1  0.56014264  0.21383130  0.35959346  1  1.565104  0  0.19013  0.56268  0  4.250812  0
C  C130  1  0.56012589  0.71382822  0.14040727  1  1.565255  0  0.190129  0.562746  0  4.250492  0
C  C131  1  0.43986928  0.78618151  0.64040811  1  1.564571  0  0.189881  0.562344  0  4.251184  0
C  C132  1  0.39370984  0.27644487  0.74631232  1  1.593486  0  0.195597  0.567776  0  4.246906  0
C  C133  1  0.60629290  0.22355682  0.24631421  1  1.593591  0  0.195666  0.56796  0  4.246487  0
C  C134  1  0.60628678  0.72357769  0.25368626  1  1.593502  0  0.195602  0.567753  0  4.246448  0
C  C135  1  0.39371588  0.77642828  0.75368923  1  1.592805  0  0.195577  0.567592  0  4.246557  0
C  C136  1  0.81880753  0.12904102  0.92532235  1  0.471665  0  0.049961  0.09622  0  3.971461  0
C  C137  1  0.18118571  0.37096857  0.42532144  1  0.471875  0  0.050017  0.096288  0  3.97115  0
C  C138  1  0.18121197  0.87096345  0.07468557  1  0.470768  0  0.049991  0.096292  0  3.971085  0
C  C139  1  0.81878084  0.62903605  0.57468237  1  0.470859  0  0.049912  0.09626  0  3.971308  0
C  C140  1  0.88321894  0.04605878  0.94315563  1  0.048156  0  -0.078511  -0.164861  0  3.940406  0
C  C141  1  0.11677464  0.45393898  0.44316008  1  0.048111  0  -0.078486  -0.164814  0  3.940542  0
C  C142  1  0.11683147  0.95394145  0.05684370  1  0.050461  0  -0.078577  -0.165033  0  3.94075  0
C  C143  1  0.88318005  0.54605389  0.55684522  1  0.049736  0  -0.078534  -0.164951  0  3.940287  0
C  C144  1  0.96654442  0.04385921  0.98967283  1  -0.136935  0  0.012328  0.100276  0  3.973451  0
C  C145  1  0.03345580  0.45613633  0.48967294  1  -0.136857  0  0.012256  0.100152  0  3.973645  0
C  C146  1  0.03353975  0.95614993  0.01032687  1  -0.089989  0  0.012337  0.100427  0  3.973153  0
C  C147  1  0.96647425  0.54385106  0.51032639  1  -0.090555  0  0.012336  0.100401  0  3.972985  0
C  C148  1  0.98302331  0.12848796  0.01530075  1  -0.055045  0  -0.076853  -0.16482  0  3.922241  0
C  C149  1  0.01697565  0.37150808  0.51530110  1  -0.055044  0  -0.076818  -0.16473  0  3.922115  0
C  C150  1  0.01706343  0.87152048  0.98469671  1  -0.055274  0  -0.076694  -0.164336  0  3.921849  0
C  C151  1  0.98296222  0.62848276  0.48470159  1  -0.05471  0  -0.076571  -0.164201  0  3.922092  0
C  C152  1  0.91847981  0.20939681  0.99435439  1  0.574684  0  0.056371  0.107922  0  3.919128  0
C  C153  1  0.08152050  0.29059526  0.49435216  1  0.574864  0  0.056396  0.107932  0  3.918894  0
C  C154  1  0.08158742  0.79060475  0.00564456  1  0.573693  0  0.056467  0.107883  0  3.918995  0
C  C155  1  0.91843406  0.70939068  0.50564642  1  0.573868  0  0.056435  0.107818  0  3.919356  0
C  C156  1  0.57812858  0.81708860  0.94537755  1  0.418018  0  0.047455  0.091757  0  3.946366  0
C  C157  1  0.42188142  0.68290716  0.44537523  1  0.418802  0  0.04736  0.091485  0  3.946322  0
C  C158  1  0.42189089  0.18291449  0.05462327  1  0.418183  0  0.047321  0.091462  0  3.946566  0
C  C159  1  0.57810689  0.31708769  0.55462485  1  0.418546  0  0.047289  0.091401  0  3.94664  0
C  C160  1  0.55610320  0.87474440  0.98641711  1  -0.029911  0  -0.079214  -0.165937  0  3.909279  0
C  C161  1  0.44391593  0.62525331  0.48641452  1  -0.030423  0  -0.079238  -0.165939  0  3.909754  0
C  C162  1  0.44394498  0.12527385  0.01357774  1  -0.030266  0  -0.079272  -0.165739  0  3.909243  0
C  C163  1  0.55605014  0.37472705  0.51357660  1  -0.02998  0  -0.079264  -0.165717  0  3.909245  0
C  C164  1  0.50491905  0.96694575  0.97899657  1  0.044141  0  0.00923  0.095534  0  3.988151  0
C  C165  1  0.49506757  0.53305277  0.47899345  1  0.044184  0  0.009246  0.095739  0  3.988129  0
C  C166  1  0.49509033  0.03306915  0.02099828  1  -0.001853  0  0.009401  0.095623  0  3.987601  0
C  C167  1  0.50490636  0.46693312  0.52099953  1  -0.002361  0  0.009405  0.095559  0  3.987571  0
C  C168  1  0.46557772  0.99405402  0.92985943  1  -0.094185  0  -0.080879  -0.175298  0  3.942498  0
C  C169  1  0.53442914  0.50593902  0.42985682  1  -0.094281  0  -0.08097  -0.175573  0  3.942576  0
C  C170  1  0.53447013  0.00594760  0.07013579  1  -0.095222  0  -0.081089  -0.175653  0  3.942355  0
C  C171  1  0.46553202  0.49405384  0.57013654  1  -0.095007  0  -0.081084  -0.175601  0  3.942436  0
C  C172  1  0.49000867  0.93201351  0.89091221  1  0.439184  0  0.048606  0.096672  0  3.945083  0
C  C173  1  0.51000602  0.56798238  0.39090836  1  0.438886  0  0.048571  0.096627  0  3.944695  0
C  C174  1  0.51002368  0.06798746  0.10908450  1  0.439394  0  0.048713  0.096798  0  3.944754  0
C  C175  1  0.48997845  0.43201387  0.60908425  1  0.439483  0  0.048673  0.096863  0  3.945001  0
N  N176  1  0.42346550  0.64798888  0.86520194  1  -1.248736  0  -0.328807  -0.238165  0  3.536423  0
N  N177  1  0.57655369  0.85201606  0.36519878  1  -1.248534  0  -0.328773  -0.2381  0  3.536035  0
N  N178  1  0.57651513  0.35200946  0.13480486  1  -1.248717  0  -0.328838  -0.238242  0  3.53638  0
N  N179  1  0.42343718  0.14797740  0.63480241  1  -1.248681  0  -0.328774  -0.237978  0  3.536077  0
N  N180  1  0.96017285  0.26909790  0.84740030  1  -1.235586  0  -0.332351  -0.26492  0  3.517916  0
N  N181  1  0.03982418  0.23090563  0.34740061  1  -1.235782  0  -0.332363  -0.264979  0  3.51797  0
N  N182  1  0.03982339  0.73090594  0.15259791  1  -1.235721  0  -0.332369  -0.264842  0  3.518014  0
N  N183  1  0.96017217  0.76910376  0.65259984  1  -1.235661  0  -0.332271  -0.264713  0  3.517756  0
N  N184  1  0.83595057  0.20948211  0.95023051  1  -1.243704  0  -0.328184  -0.237008  0  3.533002  0
N  N185  1  0.16403941  0.29051772  0.45022701  1  -1.243911  0  -0.328227  -0.237122  0  3.532483  0
N  N186  1  0.16409212  0.79051953  0.04977293  1  -1.243663  0  -0.328266  -0.237207  0  3.532465  0
N  N187  1  0.83591529  0.70947515  0.54977157  1  -1.243893  0  -0.328312  -0.2372  0  3.532901  0
N  N188  1  0.55051500  0.84580664  0.89825882  1  -1.228085  0  -0.329852  -0.248305  0  3.533865  0
N  N189  1  0.44949872  0.65419339  0.39825511  1  -1.228439  0  -0.329733  -0.248054  0  3.533514  0
N  N190  1  0.44950699  0.15419298  0.10173901  1  -1.228322  0  -0.32975  -0.248177  0  3.53403  0
N  N191  1  0.55047811  0.34580843  0.60173899  1  -1.228518  0  -0.329618  -0.248141  0  3.534186  0
O  O192  1  0.01721585  0.42774494  0.95336311  1  -1.181717  0  -0.32796  -0.567856  0  2.128458  0
O  O193  1  0.98281973  0.07220485  0.45337774  1  -1.180963  0  -0.327951  -0.568224  0  2.128158  0
O  O194  1  0.98281005  0.57219158  0.04661344  1  -1.181152  0  -0.32798  -0.567946  0  2.128319  0
O  O195  1  0.01719620  0.92774973  0.54664175  1  -1.181333  0  -0.328051  -0.568102  0  2.128378  0
O  O196  1  0.87995993  0.46939038  0.88228147  1  -1.128528  0  -0.331743  -0.546054  0  2.220683  0
O  O197  1  0.12003972  0.03062276  0.38228366  1  -1.128044  0  -0.331884  -0.546299  0  2.220826  0
O  O198  1  0.11999135  0.53062537  0.11772234  1  -1.128142  0  -0.331714  -0.545891  0  2.220979  0
O  O199  1  0.87993735  0.96939153  0.61771678  1  -1.128403  0  -0.331787  -0.546096  0  2.220633  0
O  O200  1  0.66494409  0.43083841  0.97821392  1  -1.197787  0  -0.577295  -0.739436  0  1.987122  0
O  O201  1  0.33506792  0.06918416  0.47821855  1  -1.177584  0  -0.577269  -0.739523  0  1.987146  0
O  O202  1  0.33502393  0.56917521  0.02178615  1  -1.177699  0  -0.577275  -0.739437  0  1.987384  0
O  O203  1  0.66491434  0.93083081  0.52178190  1  -1.177917  0  -0.577167  -0.739349  0  1.987197  0
O  O204  1  0.85052588  0.67293574  0.91652042  1  -1.170124  0  -0.323232  -0.556435  0  2.124872  0
O  O205  1  0.14951306  0.82706902  0.41650416  1  -1.169863  0  -0.323473  -0.556762  0  2.124183  0
O  O206  1  0.14948524  0.32710203  0.08349385  1  -1.169657  0  -0.323379  -0.556648  0  2.124245  0
O  O207  1  0.85050138  0.17294101  0.58348920  1  -1.169713  0  -0.323435  -0.556765  0  2.124  0
O  O208  1  0.73441180  0.90099306  0.79297526  1  -1.239126  0  -0.581774  -0.749863  0  1.968943  0
O  O209  1  0.26560878  0.59900513  0.29297294  1  -1.238982  0  -0.581756  -0.749802  0  1.96882  0
O  O210  1  0.26561005  0.09899963  0.20702295  1  -1.238635  0  -0.581791  -0.749891  0  1.968953  0
O  O211  1  0.73439899  0.40099383  0.70702041  1  -1.238938  0  -0.58178  -0.749898  0  1.968886  0
O  O212  1  0.89818558  0.69920871  0.83416268  1  -1.141523  0  -0.333544  -0.548287  0  2.261145  0
O  O213  1  0.10184551  0.80079558  0.33415004  1  -1.141877  0  -0.333494  -0.548396  0  2.261095  0
O  O214  1  0.10178697  0.30077232  0.16584486  1  -1.141933  0  -0.333546  -0.548454  0  2.260954  0
O  O215  1  0.89815296  0.19919023  0.66584406  1  -1.14173  0  -0.333445  -0.548364  0  2.261094  0
O  O216  1  0.39117237  0.34362251  0.71552633  1  -1.167507  0  -0.335599  -0.582998  0  2.136927  0
O  O217  1  0.60881769  0.15637652  0.21552454  1  -1.167566  0  -0.335707  -0.583175  0  2.13657  0
O  O218  1  0.60881137  0.65640217  0.28447524  1  -1.167321  0  -0.335707  -0.583045  0  2.136526  0
O  O219  1  0.39119615  0.84360301  0.78447889  1  -1.167271  0  -0.335707  -0.583031  0  2.136684  0
O  O220  1  0.50521504  0.21199463  0.74609703  1  -1.146902  0  -0.333409  -0.544937  0  2.146068  0
O  O221  1  0.49477478  0.28800710  0.24610005  1  -1.14697  0  -0.333456  -0.545047  0  2.145781  0
O  O222  1  0.49478556  0.78803347  0.25389446  1  -1.147014  0  -0.333208  -0.544767  0  2.145879  0
O  O223  1  0.50523130  0.71197176  0.75390077  1  -1.146461  0  -0.333288  -0.544785  0  2.145816  0
O  O224  1  0.46534569  0.24857256  0.90201790  1  -1.173639  0  -0.338028  -0.576472  0  2.142733  0
O  O225  1  0.53466083  0.25142873  0.40201807  1  -1.173603  0  -0.338083  -0.576548  0  2.142693  0
O  O226  1  0.53465002  0.75140494  0.09797807  1  -1.173811  0  -0.33799  -0.576446  0  2.142665  0
O  O227  1  0.46534083  0.74858758  0.59798238  1  -1.1736  0  -0.337909  -0.576307  0  2.142817  0
O  O228  1  0.54957861  0.33946764  0.83827493  1  -1.143819  0  -0.327638  -0.536186  0  2.174998  0
O  O229  1  0.45043869  0.16053100  0.33827606  1  -1.143686  0  -0.3276  -0.53617  0  2.17514  0
O  O230  1  0.45041260  0.66054315  0.16173448  1  -1.143834  0  -0.327713  -0.536247  0  2.17474  0
O  O231  1  0.54958470  0.83947415  0.66172849  1  -1.143431  0  -0.327495  -0.536043  0  2.175242  0
