# generated using pymatgen
data_AgHCN4
_symmetry_space_group_name_H-M   'P 1'
_cell_length_a   5.77234854
_cell_length_b   8.24721700
_cell_length_c   14.74446375
_cell_angle_alpha   90.00035371
_cell_angle_beta   89.99984178
_cell_angle_gamma   94.24575577
_symmetry_Int_Tables_number   1
_chemical_formula_structural   AgHCN4
_chemical_formula_sum   'Ag8 H8 C8 N32'
_cell_volume   699.99584940
_cell_formula_units_Z   8
loop_
 _symmetry_equiv_pos_site_id
 _symmetry_equiv_pos_as_xyz
  1  'x, y, z'
loop_
 _atom_site_type_symbol
 _atom_site_label
 _atom_site_symmetry_multiplicity
 _atom_site_fract_x
 _atom_site_fract_y
 _atom_site_fract_z
 _atom_site_occupancy
 _atom_site_hle17_bader_spin_density
 _atom_site_hle17_ddec_charge
 _atom_site_hle17_ddec_spin_density
 _atom_site_hle17_ddec_sum_bond_order
 _atom_site_hle17_magmom
 _atom_site_hse06_10hf_bader_spin_density
 _atom_site_hse06_10hf_ddec_charge
 _atom_site_hse06_10hf_ddec_spin_density
 _atom_site_hse06_10hf_ddec_sum_bond_order
 _atom_site_hse06_10hf_magmom
 _atom_site_hse06_bader_spin_density
 _atom_site_hse06_ddec_charge
 _atom_site_hse06_ddec_spin_density
 _atom_site_hse06_ddec_sum_bond_order
 _atom_site_hse06_magmom
 _atom_site_pbe_bader_spin_density
 _atom_site_pbe_cm5_charge
 _atom_site_pbe_ddec_charge
 _atom_site_pbe_ddec_spin_density
 _atom_site_pbe_ddec_sum_bond_order
 _atom_site_pbe_magmom
Ag  Ag0  1  0.90672879  0.36238052  0.60972390  1  0  0.427883  0  1.555473  0  0  0.258873  0  2.03143  0  0  0.284074  0  1.987884  0  0  0.466354  0.242396  0  2.061152  0
Ag  Ag1  1  0.40673443  0.86238062  0.89027644  1  0  0.427894  0  1.555453  0  0  0.258879  0  2.03142  0  0  0.284083  0  1.987874  0  0  0.466361  0.242409  0  2.061139  0
Ag  Ag2  1  0.09326617  0.63761964  0.39027906  1  0  0.427897  0  1.555465  0  0  0.258923  0  2.031389  0  0  0.284122  0  1.987844  0  0  0.46636  0.242449  0  2.061107  0
Ag  Ag3  1  0.59326373  0.13761711  0.10972313  1  0  0.427908  0  1.555433  0  0  0.2589  0  2.03139  0  0  0.2841  0  1.987843  0  0  0.466352  0.242426  0  2.061107  0
Ag  Ag4  1  0.23953734  0.95695896  0.58674650  1  0  0.463977  0  1.49204  0  0  0.292304  0  1.964515  0  0  0.319798  0  1.921303  0  0  0.478138  0.273503  0  1.99442  0
Ag  Ag5  1  0.73953194  0.45694874  0.91325436  1  0  0.464004  0  1.492004  0  0  0.292341  0  1.964473  0  0  0.319837  0  1.921256  0  0  0.478149  0.273533  0  1.994385  0
Ag  Ag6  1  0.76046294  0.04304241  0.41325715  1  0  0.464009  0  1.492033  0  0  0.292324  0  1.964504  0  0  0.319818  0  1.92129  0  0  0.478133  0.273505  0  1.994433  0
Ag  Ag7  1  0.26047675  0.54305020  0.08674454  1  0  0.46401  0  1.492044  0  0  0.292339  0  1.9645  0  0  0.319833  0  1.921286  0  0  0.478145  0.273528  0  1.994412  0
H  H8  1  0.89863503  0.76964351  0.75134455  1  0  0.093503  0  1.004666  0  0  0.090487  0  1.089444  0  0  0.094467  0  1.084479  0  0  0.126834  0.08747  0  1.093128  0
H  H9  1  0.39863290  0.26964063  0.74865413  1  0  0.093523  0  1.00459  0  0  0.090511  0  1.089369  0  0  0.094477  0  1.084414  0  0  0.126847  0.087495  0  1.093053  0
H  H10  1  0.10135884  0.23036273  0.24865571  1  0  0.093591  0  1.004654  0  0  0.090564  0  1.089446  0  0  0.094549  0  1.08448  0  0  0.126891  0.087549  0  1.093126  0
H  H11  1  0.60137098  0.73036196  0.25134680  1  0  0.093628  0  1.004546  0  0  0.090585  0  1.089354  0  0  0.094567  0  1.084393  0  0  0.126894  0.087568  0  1.093037  0
H  H12  1  0.57586201  0.40924627  0.34798118  1  0  0.09447  0  0.977338  0  0  0.105985  0  1.038408  0  0  0.106837  0  1.038648  0  0  0.135407  0.105198  0  1.038513  0
H  H13  1  0.07585893  0.90924625  0.15201791  1  0  0.094569  0  0.977294  0  0  0.106053  0  1.038378  0  0  0.106916  0  1.038624  0  0  0.135398  0.10526  0  1.038498  0
H  H14  1  0.42414122  0.59075023  0.65201976  1  0  0.094564  0  0.977257  0  0  0.106047  0  1.038344  0  0  0.106912  0  1.038591  0  0  0.135399  0.105255  0  1.038463  0
H  H15  1  0.92414270  0.09075147  0.84797963  1  0  0.094543  0  0.977297  0  0  0.106034  0  1.038374  0  0  0.106897  0  1.03862  0  0  0.1354  0.105243  0  1.038493  0
C  C16  1  0.82735738  0.88188777  0.72930532  1  0  0.150565  0  3.730578  0  0  0.102736  0  3.99669  0  0  0.110802  0  4.013241  0  0  0.130322  0.097503  0  3.985611  0
C  C17  1  0.32735538  0.38188756  0.77069450  1  0  0.150551  0  3.730507  0  0  0.102719  0  3.996643  0  0  0.110793  0  4.013205  0  0  0.130316  0.097482  0  3.985563  0
C  C18  1  0.17264169  0.11811847  0.27069426  1  0  0.150498  0  3.73047  0  0  0.102664  0  3.996603  0  0  0.110723  0  4.013151  0  0  0.130277  0.097427  0  3.985516  0
C  C19  1  0.67264876  0.61811746  0.22930508  1  0  0.150472  0  3.730408  0  0  0.10265  0  3.996564  0  0  0.110714  0  4.013107  0  0  0.130262  0.097416  0  3.98548  0
C  C20  1  0.46807104  0.35729302  0.40206856  1  0  0.170222  0  3.720283  0  0  0.117309  0  3.986645  0  0  0.126208  0  4.004226  0  0  0.142006  0.111387  0  3.974892  0
C  C21  1  0.96806914  0.85729669  0.09792924  1  0  0.170133  0  3.720342  0  0  0.117273  0  3.986652  0  0  0.126154  0  4.004248  0  0  0.14203  0.111353  0  3.974898  0
C  C22  1  0.53193059  0.64270471  0.59793305  1  0  0.17007  0  3.720397  0  0  0.117206  0  3.986721  0  0  0.126083  0  4.004322  0  0  0.14199  0.111283  0  3.974972  0
C  C23  1  0.03193288  0.14270468  0.90206695  1  0  0.170129  0  3.72039  0  0  0.117273  0  3.986718  0  0  0.126156  0  4.004315  0  0  0.141997  0.111352  0  3.97497  0
N  N24  1  0.92747134  0.98247696  0.66677417  1  0  -0.258141  0  3.261221  0  0  -0.184997  0  3.566826  0  0  -0.201322  0  3.581441  0  0  -0.263555  -0.173955  0  3.556777  0
N  N25  1  0.42746698  0.48247498  0.83322589  1  0  -0.258111  0  3.26123  0  0  -0.18497  0  3.566822  0  0  -0.201294  0  3.581433  0  0  -0.26353  -0.173927  0  3.556772  0
N  N26  1  0.07252721  0.01752442  0.33322676  1  0  -0.258116  0  3.261144  0  0  -0.184958  0  3.566725  0  0  -0.201284  0  3.581344  0  0  -0.263519  -0.173914  0  3.556671  0
N  N27  1  0.57253279  0.51752153  0.16677505  1  0  -0.258089  0  3.261112  0  0  -0.18494  0  3.566699  0  0  -0.201264  0  3.581313  0  0  -0.263527  -0.173897  0  3.556648  0
N  N28  1  0.78812365  0.10693924  0.65981555  1  0  -0.094076  0  3.202445  0  0  -0.047719  0  3.51405  0  0  -0.052272  0  3.524791  0  0  -0.130406  -0.044622  0  3.506796  0
N  N29  1  0.28812093  0.60693880  0.84018472  1  0  -0.094051  0  3.202434  0  0  -0.047681  0  3.514025  0  0  -0.052235  0  3.524766  0  0  -0.130389  -0.044587  0  3.506772  0
N  N30  1  0.21187837  0.89306214  0.34018335  1  0  -0.094147  0  3.202609  0  0  -0.047808  0  3.514218  0  0  -0.052361  0  3.524961  0  0  -0.130438  -0.044714  0  3.506963  0
N  N31  1  0.71188256  0.39306014  0.15981621  1  0  -0.094077  0  3.202502  0  0  -0.047726  0  3.514097  0  0  -0.05228  0  3.524841  0  0  -0.130418  -0.044632  0  3.506845  0
N  N32  1  0.61157672  0.08190366  0.71596549  1  0  -0.107389  0  3.023529  0  0  -0.081391  0  3.306308  0  0  -0.082109  0  3.316692  0  0  -0.102343  -0.080737  0  3.299402  0
N  N33  1  0.11157632  0.58190505  0.78403421  1  0  -0.107456  0  3.023472  0  0  -0.081462  0  3.306249  0  0  -0.082182  0  3.316639  0  0  -0.102396  -0.080808  0  3.29934  0
N  N34  1  0.38842170  0.91809650  0.28403273  1  0  -0.107357  0  3.023596  0  0  -0.081339  0  3.306357  0  0  -0.08206  0  3.316749  0  0  -0.10233  -0.080685  0  3.299446  0
N  N35  1  0.88842730  0.41809510  0.21596605  1  0  -0.107427  0  3.023721  0  0  -0.081425  0  3.30651  0  0  -0.082146  0  3.316901  0  0  -0.102367  -0.080771  0  3.299601  0
N  N36  1  0.63281425  0.94114755  0.76096419  1  0  -0.272415  0  3.177123  0  0  -0.210979  0  3.482015  0  0  -0.225451  0  3.493387  0  0  -0.247141  -0.201173  0  3.474177  0
N  N37  1  0.13281070  0.44114699  0.73903605  1  0  -0.272403  0  3.177053  0  0  -0.210965  0  3.481945  0  0  -0.225438  0  3.493319  0  0  -0.247126  -0.201158  0  3.474105  0
N  N38  1  0.36718257  0.05885383  0.23903606  1  0  -0.272457  0  3.177072  0  0  -0.211024  0  3.481964  0  0  -0.225495  0  3.493339  0  0  -0.247164  -0.201216  0  3.474121  0
N  N39  1  0.86718932  0.55885195  0.26096421  1  0  -0.272432  0  3.177179  0  0  -0.211009  0  3.482071  0  0  -0.225478  0  3.49344  0  0  -0.247138  -0.201203  0  3.474229  0
N  N40  1  0.50628822  0.21902639  0.44526554  1  0  -0.253804  0  3.273178  0  0  -0.18391  0  3.586733  0  0  -0.199632  0  3.599987  0  0  -0.256311  -0.173403  0  3.577797  0
N  N41  1  0.00628944  0.71902775  0.05473297  1  0  -0.2538  0  3.273199  0  0  -0.183933  0  3.586757  0  0  -0.199657  0  3.600015  0  0  -0.25632  -0.173424  0  3.577819  0
N  N42  1  0.49371341  0.78097134  0.55473608  1  0  -0.253767  0  3.273211  0  0  -0.183924  0  3.586787  0  0  -0.199646  0  3.600046  0  0  -0.256306  -0.173417  0  3.577852  0
N  N43  1  0.99371232  0.28097119  0.94526525  1  0  -0.253784  0  3.273247  0  0  -0.18396  0  3.586852  0  0  -0.199683  0  3.60011  0  0  -0.256328  -0.173453  0  3.577918  0
N  N44  1  0.33710472  0.19911918  0.50809799  1  0  -0.085799  0  3.16324  0  0  -0.041853  0  3.464455  0  0  -0.046281  0  3.476962  0  0  -0.117896  -0.038786  0  3.456165  0
N  N45  1  0.83710798  0.69911613  0.99190051  1  0  -0.085875  0  3.163328  0  0  -0.041933  0  3.464561  0  0  -0.04636  0  3.477067  0  0  -0.117952  -0.038868  0  3.456273  0
N  N46  1  0.66289531  0.80087976  0.49190294  1  0  -0.085709  0  3.163177  0  0  -0.041739  0  3.464389  0  0  -0.046166  0  3.476895  0  0  -0.117841  -0.038672  0  3.456099  0
N  N47  1  0.16289351  0.30088038  0.00809839  1  0  -0.085854  0  3.163168  0  0  -0.041889  0  3.464383  0  0  -0.046315  0  3.476889  0  0  -0.117905  -0.03882  0  3.456093  0
N  N48  1  0.20285450  0.32105430  0.50266301  1  0  -0.089881  0  3.153369  0  0  -0.043873  0  3.45503  0  0  -0.047295  0  3.465608  0  0  -0.115354  -0.041636  0  3.44816  0
N  N49  1  0.70285401  0.82104888  0.99733538  1  0  -0.089791  0  3.153534  0  0  -0.043775  0  3.455185  0  0  -0.047198  0  3.465764  0  0  -0.115267  -0.041539  0  3.448316  0
N  N50  1  0.79714553  0.67894464  0.49733792  1  0  -0.090046  0  3.153528  0  0  -0.044058  0  3.455199  0  0  -0.047479  0  3.465773  0  0  -0.115469  -0.04182  0  3.448329  0
N  N51  1  0.29714550  0.17894520  0.00266284  1  0  -0.089836  0  3.153259  0  0  -0.043819  0  3.454903  0  0  -0.047242  0  3.465479  0  0  -0.115321  -0.041581  0  3.448035  0
N  N52  1  0.28171435  0.42303171  0.43614326  1  0  -0.239164  0  3.210062  0  0  -0.173023  0  3.516329  0  0  -0.187868  0  3.5292  0  0  -0.246076  -0.163187  0  3.507684  0
N  N53  1  0.78171066  0.92303258  0.06385429  1  0  -0.23919  0  3.210244  0  0  -0.173046  0  3.516497  0  0  -0.18789  0  3.529372  0  0  -0.24609  -0.163209  0  3.50785  0
N  N54  1  0.71828727  0.57696602  0.56385767  1  0  -0.239019  0  3.210236  0  0  -0.172849  0  3.516454  0  0  -0.187694  0  3.529333  0  0  -0.245973  -0.163012  0  3.507806  0
N  N55  1  0.21828763  0.07696636  0.93614189  1  0  -0.239148  0  3.210096  0  0  -0.173001  0  3.516348  0  0  -0.187845  0  3.529222  0  0  -0.246067  -0.163164  0  3.507704  0
