# generated using pymatgen
data_CuH18C20N6O5
_symmetry_space_group_name_H-M   'P 1'
_cell_length_a   9.28503439
_cell_length_b   9.40251608
_cell_length_c   12.43524570
_cell_angle_alpha   102.89686277
_cell_angle_beta   111.91919999
_cell_angle_gamma   90.00193287
_symmetry_Int_Tables_number   1
_chemical_formula_structural   CuH18C20N6O5
_chemical_formula_sum   'Cu2 H36 C40 N12 O10'
_cell_volume   977.56517373
_cell_formula_units_Z   2
loop_
 _symmetry_equiv_pos_site_id
 _symmetry_equiv_pos_as_xyz
  1  'x, y, z'
loop_
 _atom_site_type_symbol
 _atom_site_label
 _atom_site_symmetry_multiplicity
 _atom_site_fract_x
 _atom_site_fract_y
 _atom_site_fract_z
 _atom_site_occupancy
 _atom_site_hle17_ddec_charge
 _atom_site_hle17_ddec_spin_density
 _atom_site_hle17_ddec_sum_bond_order
 _atom_site_hle17_magmom
 _atom_site_hse06_10hf_ddec_charge
 _atom_site_hse06_10hf_ddec_spin_density
 _atom_site_hse06_10hf_ddec_sum_bond_order
 _atom_site_hse06_10hf_magmom
 _atom_site_hse06_ddec_charge
 _atom_site_hse06_ddec_spin_density
 _atom_site_hse06_ddec_sum_bond_order
 _atom_site_hse06_magmom
 _atom_site_pbe_cm5_charge
 _atom_site_pbe_ddec_charge
 _atom_site_pbe_ddec_spin_density
 _atom_site_pbe_ddec_sum_bond_order
 _atom_site_pbe_magmom
Cu  Cu0  1  0.00000061  0.00000020  0.99999957  1  0.909958  0.749782  1.82195  0.541  0.907101  0.831194  2.194679  0.661  0.989554  0.898467  2.136744  0.743  0.747175  0.850789  0.778753  2.239952  0.603
Cu  Cu1  1  0.99999873  0.49999994  0.99999971  1  0.911282  -0.749603  1.818491  -0.541  0.908801  -0.831123  2.191265  -0.661  0.991441  -0.898483  2.133068  -0.743  0.747223  0.851886  -0.778697  2.237169  -0.603
H  H2  1  0.10315170  0.24511670  0.92750437  1  0.404426  4.8e-05  0.912827  0.0  0.375719  3.2e-05  0.976339  0.0  0.387788  5.3e-05  0.958746  0.0  0.275233  0.367253  0.0  0.988725  0.0
H  H3  1  0.17564160  0.25488332  0.07244512  1  0.405036  -4.8e-05  0.912216  0.0  0.376131  -3.2e-05  0.976123  0.0  0.388235  -5.4e-05  0.958472  0.0  0.275541  0.367657  1e-06  0.988528  0.0
H  H4  1  0.89684811  0.75488196  0.07249480  1  0.404395  4.7e-05  0.912858  0.0  0.37569  3.1e-05  0.976367  0.0  0.387759  5.3e-05  0.958775  0.0  0.275232  0.36722  0.0  0.988759  0.0
H  H5  1  0.82435833  0.74511644  0.92755428  1  0.405082  -4.8e-05  0.912146  0.0  0.376192  -3.2e-05  0.976057  0.0  0.388296  -5.4e-05  0.958405  0.0  0.275579  0.367717  1e-06  0.988462  0.0
H  H6  1  0.96109383  0.30398065  0.16724591  1  0.132803  -1.9e-05  0.947219  0.0  0.140935  8.2e-05  1.010026  0.0  0.144053  0.000106  1.006536  0.0  0.147868  0.138537  1.6e-05  1.012434  0.0
H  H7  1  0.79387977  0.19614570  0.83260409  1  0.133851  1.1e-05  0.945478  0.0  0.141467  -8.2e-05  1.008809  0.0  0.144616  -0.000107  1.00531  0.0  0.148113  0.138971  -1.9e-05  1.011383  0.0
H  H8  1  0.03890852  0.69602017  0.83275597  1  0.13275  -1.7e-05  0.947275  0.0  0.140919  8.2e-05  1.010038  0.0  0.144044  0.000107  1.006528  0.0  0.147869  0.138523  1.5e-05  1.012446  0.0
H  H9  1  0.20611889  0.80385297  0.16739476  1  0.13387  2.2e-05  0.945453  0.0  0.141491  -8.2e-05  1.008787  0.0  0.14464  -0.000107  1.005288  0.0  0.148117  0.138999  -1.9e-05  1.011352  0.0
H  H10  1  0.65602330  0.91719098  0.99833752  1  0.10049  6.4e-05  0.941139  0.0  0.105007  0.000209  1.008201  0.0  0.107564  0.000149  1.004788  0.0  0.136636  0.102784  0.000178  1.011274  0.0
H  H11  1  0.65751427  0.58269814  0.00160672  1  0.100199  -6.4e-05  0.940893  0.0  0.104696  -0.000208  1.008003  0.0  0.107273  -0.000149  1.004535  0.0  0.136531  0.102402  -0.000172  1.011198  0.0
H  H12  1  0.34397454  0.08281099  0.00166168  1  0.100472  6.2e-05  0.941184  0.0  0.104993  0.000209  1.008234  0.0  0.10755  0.000149  1.004821  0.0  0.13664  0.10277  0.000178  1.011308  0.0
H  H13  1  0.34248439  0.41730054  0.99839133  1  0.100197  -6.4e-05  0.940907  0.0  0.104697  -0.000208  1.008023  0.0  0.107277  -0.000149  1.00455  0.0  0.136535  0.102419  -0.000173  1.0112  0.0
H  H14  1  0.58992841  0.34801743  0.23275255  1  0.112858  0.000134  0.909236  0.0  0.125221  0.00013  0.975365  0.0  0.127149  8.4e-05  0.973173  0.0  0.126034  0.123903  0.000172  0.97669  0.0
H  H15  1  0.35720272  0.15190376  0.76717532  1  0.11289  -0.00014  0.909021  0.0  0.125532  -0.000131  0.974931  0.0  0.127436  -8.5e-05  0.972745  0.0  0.125988  0.124239  -0.000172  0.976279  0.0
H  H16  1  0.41007498  0.65198229  0.76725024  1  0.112862  0.000151  0.909198  0.0  0.125253  0.00013  0.975331  0.0  0.127182  8.4e-05  0.973139  0.0  0.126023  0.123935  0.000172  0.976659  0.0
H  H17  1  0.64279582  0.84809380  0.23282410  1  0.112883  -0.000152  0.909029  0.0  0.125519  -0.000131  0.974953  0.0  0.127424  -8.5e-05  0.972766  0.0  0.125998  0.124225  -0.000172  0.976301  0.0
H  H18  1  0.75014511  0.45667859  0.23894838  1  0.101256  -4.8e-05  0.919729  0.0  0.114042  -3.5e-05  0.986976  0.0  0.114903  -1.9e-05  0.986472  0.0  0.120778  0.11334  -2.3e-05  0.987502  0.0
H  H19  1  0.51121614  0.04324574  0.76089752  1  0.100926  4.4e-05  0.920219  0.0  0.114124  3.5e-05  0.987121  0.0  0.114933  1.9e-05  0.98663  0.0  0.120945  0.113433  2.7e-05  0.987632  0.0
H  H20  1  0.24985630  0.54332442  0.76105443  1  0.101301  -2.5e-05  0.919696  0.0  0.114106  -3.5e-05  0.986958  0.0  0.114969  -2e-05  0.986454  0.0  0.120793  0.113405  -2.3e-05  0.987486  0.0
H  H21  1  0.48878253  0.95675295  0.23910053  1  0.100927  3.3e-05  0.920198  0.0  0.11412  3.5e-05  0.987106  0.0  0.114928  1.9e-05  0.986615  0.0  0.120952  0.113433  2.7e-05  0.987613  0.0
H  H22  1  0.68289661  0.53587161  0.44059226  1  0.088346  -2.8e-05  0.977956  0.0  0.100529  -1e-05  1.0373  0.0  0.102662  -4e-06  1.038051  0.0  0.09702  0.098892  -1.6e-05  1.037132  0.0
H  H23  1  0.24224346  0.96420309  0.55931535  1  0.088648  2.3e-05  0.978121  0.0  0.100865  1e-05  1.037341  0.0  0.102927  5e-06  1.038175  0.0  0.097172  0.099266  1.2e-05  1.037111  0.0
H  H24  1  0.31710564  0.46412813  0.55940860  1  0.08833  -2.1e-05  0.977955  0.0  0.100499  -1e-05  1.037318  0.0  0.102631  -4e-06  1.03807  0.0  0.097017  0.098882  -1.6e-05  1.037126  0.0
H  H25  1  0.75775532  0.03579669  0.44068292  1  0.088677  1.8e-05  0.978201  0.0  0.100893  1e-05  1.037416  0.0  0.102956  4e-06  1.03825  0.0  0.097191  0.099294  1.2e-05  1.037185  0.0
H  H26  1  0.94153255  0.17386431  0.36138944  1  0.094025  -0.00017  0.962928  0.0  0.102316  -0.000116  1.026673  0.0  0.104791  -7.5e-05  1.026396  0.0  0.100498  0.100461  -0.000156  1.027143  0.0
H  H27  1  0.58012441  0.32617025  0.63858935  1  0.094133  0.000177  0.962968  0.0  0.102343  0.000117  1.02688  0.0  0.104814  7.6e-05  1.026609  0.0  0.10065  0.100487  0.000157  1.027359  0.0
H  H28  1  0.05846760  0.82613763  0.63861122  1  0.094045  -0.000186  0.962917  0.0  0.102336  -0.000116  1.026661  0.0  0.104811  -7.5e-05  1.026386  0.0  0.100497  0.100482  -0.000156  1.027133  0.0
H  H29  1  0.41987551  0.67382950  0.36141085  1  0.094159  0.000171  0.963022  0.0  0.102364  0.000117  1.02693  0.0  0.104834  7.6e-05  1.026659  0.0  0.100667  0.100507  0.000157  1.02741  0.0
H  H30  1  0.80641165  0.54185151  0.65600404  1  0.102402  -0.000179  0.958324  0.0  0.10891  -0.000145  1.025978  0.0  0.112154  -7.6e-05  1.023832  0.0  0.101907  0.106391  -0.000211  1.027894  0.0
H  H31  1  0.15038773  0.95828420  0.34389370  1  0.102679  0.000181  0.95863  0.0  0.109114  0.000144  1.026194  0.0  0.112412  7.6e-05  1.024014  0.0  0.102078  0.106584  0.00021  1.028123  0.0
H  H32  1  0.19359175  0.45814821  0.34399794  1  0.102407  -0.000176  0.958288  0.0  0.108905  -0.000145  1.025955  0.0  0.112155  -7.7e-05  1.023799  0.0  0.101901  0.106385  -0.000211  1.027872  0.0
H  H33  1  0.84961000  0.04171669  0.65610367  1  0.102633  0.00018  0.958629  0.0  0.10907  0.000144  1.026194  0.0  0.112368  7.6e-05  1.024016  0.0  0.102075  0.106541  0.00021  1.028123  0.0
H  H34  1  0.06533069  0.18174341  0.57702099  1  0.092397  3.8e-05  0.967581  0.0  0.100594  0.0  1.032755  0.0  0.103442  2e-06  1.031399  0.0  0.09988  0.098596  2e-06  1.033753  0.0
H  H35  1  0.48835938  0.31836083  0.42296191  1  0.092665  -3.9e-05  0.967176  0.0  0.100843  -0.0  1.032336  0.0  0.103704  -2e-06  1.030975  0.0  0.099827  0.09881  3e-06  1.033382  0.0
H  H36  1  0.93467262  0.81825526  0.42297756  1  0.092416  4.2e-05  0.967589  0.0  0.100627  1e-06  1.032748  0.0  0.103475  2e-06  1.031391  0.0  0.099903  0.09863  2e-06  1.033745  0.0
H  H37  1  0.51164204  0.68164219  0.57704009  1  0.092689  -3.3e-05  0.967147  0.0  0.10086  -0.0  1.032318  0.0  0.103721  -2e-06  1.030955  0.0  0.099819  0.098827  3e-06  1.033364  0.0
C  C38  1  0.86743841  0.21816761  0.14054743  1  0.179594  -0.003948  3.582576  -0.004  0.106982  -0.000782  3.845761  -0.001  0.123583  -0.00128  3.855891  -0.002  0.168135  0.096771  -0.00035  3.838313  0.0
C  C39  1  0.72685020  0.28191233  0.85925203  1  0.178697  0.003959  3.582294  0.004  0.107189  0.000789  3.844809  0.001  0.123739  0.001286  3.854958  0.002  0.168115  0.096936  0.000323  3.83748  0.0
C  C40  1  0.13256163  0.78183323  0.85945300  1  0.179649  -0.003936  3.582596  -0.004  0.107016  -0.000782  3.845759  -0.001  0.123619  -0.001282  3.855893  -0.002  0.168132  0.096807  -0.00035  3.838314  0.0
C  C41  1  0.27314950  0.71808523  0.14074772  1  0.178729  0.003902  3.582271  0.004  0.107141  0.000788  3.844805  0.001  0.12369  0.001287  3.854955  0.002  0.16809  0.096891  0.000323  3.837471  0.0
C  C42  1  0.70932683  0.02364899  0.05598647  1  0.203671  -0.002416  3.692794  -0.002  0.155374  -9.7e-05  3.982892  0.0  0.168948  -0.000562  3.994679  -0.001  0.148205  0.146604  0.000158  3.974484  0.0
C  C43  1  0.65319241  0.47624115  0.94395652  1  0.20512  0.002374  3.691106  0.002  0.156957  9.4e-05  3.981327  0.0  0.170525  0.000558  3.993104  0.001  0.148834  0.148186  -0.000165  3.973074  0.0
C  C44  1  0.29067217  0.97635298  0.94401226  1  0.203782  -0.002382  3.692783  -0.002  0.155494  -9.9e-05  3.982863  0.0  0.169068  -0.000564  3.994649  -0.001  0.148257  0.146727  0.000158  3.974453  0.0
C  C45  1  0.34680405  0.52375864  0.05604110  1  0.205141  0.00236  3.691111  0.002  0.15696  9.4e-05  3.981342  0.0  0.170528  0.000559  3.993118  0.001  0.148875  0.14818  -0.000165  3.97308  0.0
C  C46  1  0.71645298  0.35423039  0.25578687  1  -0.063347  0.000917  3.641812  0.001  -0.144504  0.000672  3.895151  0.001  -0.140509  0.000496  3.903721  0.001  -0.037905  -0.146916  0.000664  3.888932  0.001
C  C47  1  0.46064459  0.14567492  0.74408138  1  -0.063434  -0.000888  3.641979  -0.001  -0.145304  -0.000672  3.895714  -0.001  -0.141125  -0.000493  3.904097  -0.001  -0.038711  -0.147911  -0.000675  3.889704  -0.001
C  C48  1  0.28355053  0.64577044  0.74421534  1  -0.063425  0.000826  3.641683  0.001  -0.14467  0.000673  3.895153  0.001  -0.140679  0.000496  3.903724  0.001  -0.037954  -0.147079  0.000664  3.888931  0.001
C  C49  1  0.53935291  0.85432377  0.25591635  1  -0.063357  -0.000858  3.641973  -0.001  -0.145259  -0.000671  3.89568  -0.001  -0.14108  -0.000493  3.904062  -0.001  -0.038735  -0.147868  -0.000675  3.889676  -0.001
C  C50  1  0.80091910  0.35292841  0.38573525  1  0.089418  1.3e-05  3.730579  0.0  0.103922  -0.000138  3.97754  0.0  0.104992  -2.1e-05  4.001372  0.0  -0.004994  0.103428  -0.000186  3.961047  0.0
C  C51  1  0.41512233  0.14709909  0.61415379  1  0.089357  -0.000167  3.732355  0.0  0.104328  0.000129  3.97889  0.0  0.105365  1.5e-05  4.002689  0.0  -0.004539  0.103849  8.2e-05  3.962493  0.0
C  C52  1  0.19908208  0.64707241  0.61426711  1  0.089461  3e-05  3.730451  0.0  0.103949  -0.00014  3.977497  0.0  0.105019  -2.2e-05  4.001329  0.0  -0.00498  0.103452  -0.000186  3.96101  0.0
C  C53  1  0.58487644  0.85290068  0.38584529  1  0.08932  -0.000134  3.732386  0.0  0.104299  0.000129  3.978914  0.0  0.105336  1.4e-05  4.002713  0.0  -0.004561  0.10382  8.2e-05  3.962517  0.0
C  C54  1  0.76611341  0.45720630  0.47019881  1  -0.118916  -4.3e-05  3.745119  0.0  -0.133324  6.6e-05  3.986883  0.0  -0.13824  6e-06  4.009654  0.0  -0.091423  -0.129974  7.2e-05  3.971583  0.0
C  C55  1  0.29588155  0.04280956  0.52967160  1  -0.119397  0.000177  3.745297  0.0  -0.133986  -6.4e-05  3.98712  0.0  -0.138859  -5e-06  4.00993  0.0  -0.091812  -0.130684  -4.5e-05  3.97189  0.0
C  C56  1  0.23388767  0.54279344  0.52980252  1  -0.118861  -6.5e-05  3.745084  0.0  -0.133241  6.8e-05  3.986847  0.0  -0.138155  7e-06  4.00962  0.0  -0.091384  -0.129905  7.2e-05  3.971537  0.0
C  C57  1  0.70411724  0.95719024  0.47032508  1  -0.11952  0.000178  3.745327  0.0  -0.134115  -6.4e-05  3.987154  0.0  -0.138988  -4e-06  4.009965  0.0  -0.091857  -0.130812  -4.5e-05  3.971923  0.0
C  C58  1  0.91039602  0.25479377  0.42497988  1  -0.132851  -0.001233  3.755445  -0.001  -0.152467  -0.000437  4.009167  0.0  -0.156954  -0.000291  4.031043  0.0  -0.094417  -0.149395  -0.000619  3.99437  -0.001
C  C59  1  0.48533736  0.24531098  0.57497190  1  -0.132665  0.001291  3.756404  0.001  -0.152312  0.00044  4.009821  0.0  -0.156797  0.000294  4.03172  0.0  -0.094875  -0.149278  0.000566  3.995055  0.001
C  C60  1  0.08960378  0.74520487  0.57502170  1  -0.132869  -0.001169  3.755405  -0.001  -0.152479  -0.000437  4.009133  0.0  -0.156967  -0.000292  4.031011  0.0  -0.094413  -0.149409  -0.000619  3.994341  -0.001
C  C61  1  0.51466036  0.75468989  0.42502708  1  -0.132672  0.001309  3.756415  0.001  -0.152322  0.00044  4.009832  0.0  -0.156807  0.000293  4.031731  0.0  -0.094912  -0.149286  0.000566  3.995062  0.001
C  C62  1  0.83625288  0.46173716  0.59118262  1  -0.061514  0.000403  3.733476  0.001  -0.083831  -9.7e-05  3.980423  0.0  -0.082367  3.2e-05  4.000546  0.0  -0.083167  -0.084582  -0.000174  3.967058  0.0
C  C63  1  0.24510010  0.03834132  0.40870653  1  -0.060659  -0.000514  3.733569  -0.001  -0.082743  9.2e-05  3.980646  0.0  -0.081281  -3.6e-05  4.00074  0.0  -0.082737  -0.083585  0.000136  3.967353  0.0
C  C64  1  0.16375040  0.53826147  0.40881914  1  -0.061535  0.000395  3.733506  0.001  -0.083822  -9.7e-05  3.980447  0.0  -0.082361  3.2e-05  4.000563  0.0  -0.083155  -0.084577  -0.000174  3.967083  0.0
C  C65  1  0.75489983  0.96165845  0.59129287  1  -0.060558  -0.000531  3.733414  -0.001  -0.082637  9.1e-05  3.980491  0.0  -0.081173  -3.6e-05  4.000583  0.0  -0.082738  -0.08348  0.000136  3.9672  0.0
C  C66  1  0.98099110  0.25898547  0.54645140  1  -0.057881  -0.000273  3.745505  0.0  -0.079344  -0.000722  3.991878  -0.001  -0.0782  -0.000397  4.012455  -0.001  -0.083656  -0.079951  -0.000997  3.977921  -0.001
C  C67  1  0.43454528  0.24113144  0.45351271  1  -0.057774  0.000222  3.745124  0.0  -0.079135  0.00072  3.991428  0.001  -0.077982  0.000394  4.012032  0.001  -0.08335  -0.079736  0.001005  3.977471  0.001
C  C68  1  0.01900871  0.74101318  0.45354938  1  -0.057954  -0.000308  3.745521  -0.001  -0.079404  -0.000722  3.99189  -0.001  -0.078261  -0.000396  4.012468  -0.001  -0.083686  -0.080014  -0.000997  3.977929  -0.001
C  C69  1  0.56545359  0.75886941  0.54648739  1  -0.057794  0.00017  3.745061  0.0  -0.079145  0.00072  3.991356  0.001  -0.077991  0.000395  4.01196  0.001  -0.083275  -0.079745  0.001005  3.977396  0.001
C  C70  1  0.94381082  0.36121916  0.63047304  1  -0.082759  -0.010761  3.769788  -0.012  -0.061292  -0.005472  4.001965  -0.006  -0.071458  -0.003645  4.02637  -0.004  -0.026413  -0.054595  -0.00713  3.985605  -0.008
C  C71  1  0.31344504  0.13885235  0.36944842  1  -0.084241  0.010825  3.770327  0.012  -0.063303  0.005481  4.003415  0.006  -0.073567  0.003656  4.027936  0.004  -0.026951  -0.056547  0.007125  3.986992  0.008
C  C72  1  0.05619247  0.63877947  0.36952872  1  -0.082735  -0.010753  3.769771  -0.012  -0.061331  -0.005472  4.00201  -0.006  -0.071495  -0.003645  4.026415  -0.004  -0.02646  -0.054621  -0.00713  3.985628  -0.008
C  C73  1  0.68655396  0.86114961  0.63055111  1  -0.084244  0.010871  3.770276  0.012  -0.063321  0.005481  4.003367  0.006  -0.073586  0.003654  4.02789  0.004  -0.026969  -0.056563  0.007125  3.986943  0.008
C  C74  1  0.01530249  0.36130904  0.76075012  1  0.626198  0.001653  3.917075  0.005  0.583929  -0.001705  4.219732  0.0  0.621199  -0.001101  4.212658  0.0  0.201153  0.55842  -0.002247  4.223783  0.0
C  C75  1  0.25456081  0.13881334  0.23916708  1  0.628099  -0.001645  3.913038  -0.005  0.586017  0.001702  4.215564  0.0  0.623321  0.001102  4.208426  0.0  0.202167  0.560439  0.002284  4.219743  0.0
C  C76  1  0.98469974  0.63869067  0.23925234  1  0.626146  0.001646  3.917096  0.005  0.583896  -0.001704  4.219742  0.0  0.621164  -0.001101  4.212671  0.0  0.201115  0.558383  -0.002247  4.223792  0.0
C  C77  1  0.74544051  0.86118861  0.76083310  1  0.628205  -0.001667  3.912947  -0.005  0.586153  0.001703  4.215432  0.0  0.623457  0.001103  4.208293  0.0  0.202257  0.560573  0.002284  4.219614  0.0
N  N78  1  0.84820051  0.08604354  0.06662406  1  -0.374501  0.06254  3.305428  0.078  -0.332561  0.044631  3.622317  0.059  -0.364411  0.036803  3.638347  0.051  -0.370295  -0.311956  0.04909  3.611897  0.062
N  N79  1  0.78148312  0.41400820  0.93325565  1  -0.375923  -0.062419  3.304787  -0.078  -0.334855  -0.044561  3.62245  -0.059  -0.366736  -0.036735  3.638449  -0.051  -0.370905  -0.314151  -0.04899  3.612078  -0.062
N  N80  1  0.15179965  0.91395843  0.93337499  1  -0.37454  0.062519  3.305435  0.078  -0.332593  0.044631  3.622315  0.059  -0.364445  0.036804  3.638349  0.051  -0.370277  -0.311988  0.049088  3.611899  0.062
N  N81  1  0.21851680  0.58599155  0.06674456  1  -0.375937  -0.062387  3.304846  -0.078  -0.33484  -0.044559  3.622518  -0.059  -0.366724  -0.036733  3.63852  -0.051  -0.370901  -0.314136  -0.048987  3.612151  -0.062
N  N82  1  0.74413316  0.23297639  0.17255154  1  0.050119  0.001787  3.567398  0.002  0.172076  0.001273  3.750795  0.002  0.161917  0.001005  3.773375  0.001  -0.132694  0.177351  0.001453  3.73748  0.002
N  N83  1  0.57155290  0.26696292  0.82729563  1  0.049985  -0.001782  3.567412  -0.002  0.171578  -0.00127  3.751138  -0.002  0.161374  -0.001003  3.773702  -0.001  -0.132487  0.177195  -0.001424  3.737315  -0.002
N  N84  1  0.25586930  0.76702553  0.82745057  1  0.050132  0.001799  3.567316  0.002  0.172115  0.001271  3.750754  0.002  0.161957  0.001004  3.773334  0.001  -0.132683  0.177386  0.001453  3.737452  0.002
N  N85  1  0.42844577  0.73303577  0.17270242  1  0.049867  -0.001776  3.567542  -0.002  0.171597  -0.001269  3.751123  -0.002  0.161393  -0.001003  3.773687  -0.001  -0.132453  0.177209  -0.001424  3.737317  -0.002
N  N86  1  0.64220609  0.10984104  0.12002544  1  -0.277232  0.006782  2.84219  0.008  -0.277145  0.003301  3.10591  0.004  -0.285865  0.002387  3.119019  0.003  -0.220405  -0.270263  0.004681  3.096596  0.005
N  N87  1  0.52209749  0.38999500  0.87990728  1  -0.277117  -0.006755  2.841739  -0.008  -0.276872  -0.003301  3.105556  -0.004  -0.285586  -0.002386  3.118652  -0.003  -0.220249  -0.270132  -0.004689  3.096351  -0.005
N  N88  1  0.35779522  0.89016090  0.87997554  1  -0.277302  0.006758  2.842223  0.008  -0.277235  0.003303  3.10596  0.004  -0.285955  0.002389  3.119066  0.003  -0.220433  -0.270348  0.004681  3.096644  0.005
N  N89  1  0.47790014  0.61000481  0.12008907  1  -0.277101  -0.006747  2.841781  -0.008  -0.276894  -0.003301  3.105573  -0.004  -0.285607  -0.002387  3.118667  -0.003  -0.220278  -0.27015  -0.004688  3.096369  -0.005
O  O90  1  0.07837902  0.25003716  0.99997945  1  -0.882699  5e-06  1.931951  0.0  -0.851522  -2e-06  2.14418  0.0  -0.871544  -1e-06  2.103828  0.0  -0.603392  -0.836774  5e-06  2.173205  0.0
O  O91  1  0.92162046  0.74995821  0.00001985  1  -0.882687  6e-06  1.93191  0.0  -0.851513  -1e-06  2.144018  0.0  -0.871535  0.0  2.103668  0.0  -0.603425  -0.836763  5e-06  2.173046  0.0
O  O92  1  0.15788870  0.02751837  0.16933404  1  -0.617809  0.089207  2.098115  0.119  -0.59906  0.053275  2.38451  0.078  -0.641691  0.039309  2.379018  0.061  -0.329234  -0.569005  0.063373  2.387776  0.089
O  O93  1  0.98859245  0.47263994  0.83063879  1  -0.617276  -0.089371  2.098051  -0.119  -0.598541  -0.053372  2.384211  -0.078  -0.641111  -0.039367  2.3785  -0.061  -0.328926  -0.568423  -0.063479  2.387557  -0.089
O  O94  1  0.84211006  0.97248138  0.83066584  1  -0.61782  0.089197  2.098141  0.119  -0.59908  0.05327  2.384533  0.078  -0.641708  0.039305  2.379039  0.061  -0.329249  -0.569024  0.063368  2.387799  0.089
O  O95  1  0.01140631  0.52735980  0.16936188  1  -0.617312  -0.089363  2.098066  -0.119  -0.598536  -0.053372  2.384194  -0.078  -0.641104  -0.039368  2.378485  -0.061  -0.328895  -0.568416  -0.063481  2.387539  -0.089
O  O96  1  0.09205071  0.25662307  0.79230346  1  -0.60587  -0.000703  1.928189  -0.001  -0.560748  -0.000474  2.148587  -0.001  -0.585469  0.000115  2.138234  0.0  -0.321187  -0.543782  -0.001208  2.155684  -0.002
O  O97  1  0.29969882  0.24351589  0.20756721  1  -0.607017  0.000698  1.926174  0.001  -0.561837  0.000464  2.146781  0.001  -0.586568  -0.000125  2.13636  0.0  -0.321805  -0.54489  0.001329  2.153939  0.002
O  O98  1  0.90795407  0.74337883  0.20770010  1  -0.605821  -0.000704  1.928209  -0.001  -0.560724  -0.000474  2.148625  -0.001  -0.585443  0.000116  2.138269  0.0  -0.321164  -0.543759  -0.001208  2.155722  -0.002
O  O99  1  0.70029891  0.75648498  0.79243176  1  -0.60713  0.000706  1.92617  0.001  -0.561953  0.000465  2.146768  0.001  -0.586685  -0.000123  2.136345  0.0  -0.321873  -0.545005  0.001329  2.153929  0.002
