# generated using pymatgen
data_Eu2H14C14N4O15
_symmetry_space_group_name_H-M   'P 1'
_cell_length_a   10.19215841
_cell_length_b   11.29912416
_cell_length_c   22.05499835
_cell_angle_alpha   89.99971555
_cell_angle_beta   97.08767291
_cell_angle_gamma   89.99979960
_symmetry_Int_Tables_number   1
_chemical_formula_structural   Eu2H14C14N4O15
_chemical_formula_sum   'Eu8 H56 C56 N16 O60'
_cell_volume   2520.49925146
_cell_formula_units_Z   4
loop_
 _symmetry_equiv_pos_site_id
 _symmetry_equiv_pos_as_xyz
  1  'x, y, z'
loop_
 _atom_site_type_symbol
 _atom_site_label
 _atom_site_symmetry_multiplicity
 _atom_site_fract_x
 _atom_site_fract_y
 _atom_site_fract_z
 _atom_site_occupancy
 _atom_site_pbe_bader_charge
 _atom_site_pbe_bader_spin_density
 _atom_site_pbe_cm5_charge
 _atom_site_pbe_ddec_charge
 _atom_site_pbe_ddec_spin_density
 _atom_site_pbe_ddec_sum_bond_order
 _atom_site_pbe_magmom
Eu  Eu0  1  0.38771305  0.31805725  0.27077633  1  2.189372  0  1.479736  1.964891  0  2.187481  0
Eu  Eu1  1  0.11228761  0.81805682  0.22922331  1  2.189303  0  1.479622  1.964831  0  2.187755  0
Eu  Eu2  1  0.61228726  0.68194308  0.72922362  1  2.189343  0  1.479686  1.96477  0  2.187676  0
Eu  Eu3  1  0.88771170  0.18194263  0.77077659  1  2.189262  0  1.479655  1.964838  0  2.187638  0
Eu  Eu4  1  0.26022004  0.42110387  0.56334341  1  2.234981  0  1.518108  2.237287  0  2.041999  0
Eu  Eu5  1  0.23977755  0.92110193  0.93665651  1  2.235022  0  1.518109  2.237269  0  2.042  0
Eu  Eu6  1  0.73977928  0.57890178  0.43665649  1  2.23501  0  1.518091  2.237276  0  2.042046  0
Eu  Eu7  1  0.76022078  0.07889310  0.06334333  1  2.234978  0  1.518133  2.237313  0  2.041961  0
H  H8  1  0.46236939  0.62193591  0.56733706  1  0.662136  0  0.304998  0.401561  0  0.93424  0
H  H9  1  0.03763155  0.12193502  0.93266383  1  0.662147  0  0.305007  0.401579  0  0.934223  0
H  H10  1  0.53763191  0.37806709  0.43266159  1  0.661309  0  0.305016  0.401595  0  0.934229  0
H  H11  1  0.96236974  0.87806178  0.06733528  1  0.662137  0  0.305028  0.40156  0  0.934264  0
H  H12  1  0.43099747  0.59017277  0.49757035  1  0.611517  0  0.32007  0.410368  0  0.899028  0
H  H13  1  0.06900029  0.09017058  0.00243017  1  0.611501  0  0.320077  0.410377  0  0.89903  0
H  H14  1  0.56900086  0.40983200  0.50242768  1  0.611558  0  0.320116  0.410439  0  0.898937  0
H  H15  1  0.93099903  0.90982444  0.99756837  1  0.611466  0  0.320061  0.410359  0  0.899047  0
H  H16  1  0.54640707  0.40514433  0.63004004  1  0.660625  0  0.299618  0.408987  0  0.923977  0
H  H17  1  0.95359085  0.90514413  0.86996181  1  0.660636  0  0.299603  0.408907  0  0.924095  0
H  H18  1  0.45359323  0.59485778  0.36995946  1  0.660618  0  0.299624  0.408972  0  0.923999  0
H  H19  1  0.04640846  0.09485533  0.13003809  1  0.660632  0  0.299621  0.408947  0  0.924039  0
H  H20  1  0.51291780  0.27830196  0.60009465  1  0.625242  0  0.338778  0.433862  0  0.845684  0
H  H21  1  0.98707675  0.77830135  0.89990597  1  0.625126  0  0.338816  0.433789  0  0.845762  0
H  H22  1  0.48707953  0.72170192  0.39990423  1  0.625088  0  0.338803  0.433807  0  0.845738  0
H  H23  1  0.01291861  0.22169721  0.10009415  1  0.625255  0  0.338765  0.433647  0  0.845932  0
H  H24  1  0.23183549  0.17453901  0.51573804  1  0.601945  0  0.329358  0.413955  0  0.873248  0
H  H25  1  0.26816126  0.67453653  0.98426156  1  0.601962  0  0.329372  0.413982  0  0.873143  0
H  H26  1  0.76816778  0.82546664  0.48426254  1  0.601887  0  0.329383  0.413959  0  0.873226  0
H  H27  1  0.73184003  0.32545850  0.01573891  1  0.601964  0  0.329391  0.413985  0  0.873192  0
H  H28  1  0.19788605  0.19433674  0.58232372  1  0.649887  0  0.302956  0.393339  0  0.933476  0
H  H29  1  0.30210962  0.69433390  0.91767577  1  0.649907  0  0.302969  0.393377  0  0.933421  0
H  H30  1  0.80211326  0.80566891  0.41767663  1  0.649883  0  0.302982  0.393349  0  0.933453  0
H  H31  1  0.69788871  0.30566024  0.08232407  1  0.649896  0  0.302931  0.393315  0  0.93352  0
H  H32  1  0.86862814  0.39229023  0.34115052  1  0.533463  0  0.323715  0.290725  0  0.965907  0
H  H33  1  0.63137739  0.89228244  0.15884880  1  0.533542  0  0.323654  0.290705  0  0.965936  0
H  H34  1  0.13137414  0.60771454  0.65885000  1  0.533452  0  0.323674  0.290711  0  0.965929  0
H  H35  1  0.36862390  0.10771170  0.84115030  1  0.533424  0  0.323699  0.290711  0  0.965921  0
H  H36  1  0.84822343  0.01764885  0.33746082  1  0.493491  0  0.347894  0.314656  0  0.880657  0
H  H37  1  0.65177690  0.51764716  0.16253872  1  0.49341  0  0.347842  0.314606  0  0.880585  0
H  H38  1  0.15177588  0.98235149  0.66253863  1  0.493391  0  0.34789  0.314652  0  0.880656  0
H  H39  1  0.34822340  0.48235318  0.83746169  1  0.493488  0  0.347862  0.314603  0  0.880673  0
H  H40  1  0.98072073  0.44883842  0.21021940  1  0.067779  0  0.106916  0.16548  0  0.997046  0
H  H41  1  0.51928355  0.94883593  0.28977925  1  0.067834  0  0.106919  0.165441  0  0.997071  0
H  H42  1  0.01927957  0.55116192  0.78978010  1  0.067783  0  0.106918  0.165476  0  0.99709  0
H  H43  1  0.48071676  0.05116264  0.71021980  1  0.067795  0  0.106923  0.165466  0  0.997107  0
H  H44  1  0.87301758  0.33034084  0.22518384  1  0.01446  0  0.096439  0.14159  0  1.011607  0
H  H45  1  0.62698329  0.83033550  0.27481629  1  0.014385  0  0.096429  0.141587  0  1.011718  0
H  H46  1  0.12698173  0.66966215  0.77481742  1  0.014445  0  0.09644  0.141597  0  1.011719  0
H  H47  1  0.37301602  0.16966042  0.72518407  1  0.014402  0  0.096432  0.141582  0  1.011722  0
H  H48  1  0.03319129  0.30132410  0.20251081  1  0.092155  0  0.11069  0.16801  0  1.021795  0
H  H49  1  0.46680945  0.80132366  0.29748888  1  0.092204  0  0.110708  0.168068  0  1.021757  0
H  H50  1  0.96680604  0.69867535  0.79748942  1  0.092117  0  0.110701  0.16803  0  1.02178  0
H  H51  1  0.53318986  0.19867668  0.70251147  1  0.092223  0  0.110717  0.16807  0  1.021752  0
H  H52  1  0.72641389  0.23486901  0.42242618  1  0.105728  0  0.10996  0.173313  0  0.993788  0
H  H53  1  0.77359236  0.73486686  0.07757450  1  0.105401  0  0.109988  0.173319  0  0.993798  0
H  H54  1  0.27358938  0.76513221  0.57757349  1  0.105761  0  0.109957  0.173292  0  0.993764  0
H  H55  1  0.22641090  0.26513171  0.92242608  1  0.105769  0  0.10995  0.17328  0  0.993767  0
H  H56  1  0.72442758  0.07728066  0.42945256  1  0.084602  0  0.09928  0.143825  0  0.997796  0
H  H57  1  0.77557940  0.57727857  0.07054721  1  0.084563  0  0.099276  0.143797  0  0.997855  0
H  H58  1  0.27557569  0.92272056  0.57054757  1  0.084611  0  0.099271  0.143781  0  0.997851  0
H  H59  1  0.22442387  0.42272000  0.92945292  1  0.08462  0  0.099282  0.143795  0  0.997822  0
H  H60  1  0.57387821  0.15786422  0.41121942  1  0.111408  0  0.116503  0.178577  0  0.972412  0
H  H61  1  0.92612839  0.65786325  0.08878194  1  0.111305  0  0.116522  0.178628  0  0.972285  0
H  H62  1  0.42612505  0.84213700  0.58878162  1  0.111336  0  0.116512  0.178589  0  0.972338  0
H  H63  1  0.07387487  0.34213620  0.91121910  1  0.111364  0  0.116518  0.17862  0  0.972311  0
C  C64  1  0.17700985  0.34945774  0.37749865  1  0.496434  0  0.09073  0.009865  0  4.000177  0
C  C65  1  0.32299166  0.84945324  0.12250050  1  0.496448  0  0.090709  0.009804  0  4.000433  0
C  C66  1  0.82299144  0.65054614  0.62250136  1  0.496493  0  0.090731  0.00982  0  4.000272  0
C  C67  1  0.67700865  0.15054268  0.87749945  1  0.496596  0  0.090716  0.00974  0  4.000315  0
C  C68  1  0.05240629  0.36715834  0.39583596  1  0.417097  0  0.095868  -0.006311  0  3.919892  0
C  C69  1  0.44759414  0.86715184  0.10416354  1  0.417138  0  0.095746  -0.006381  0  3.920166  0
C  C70  1  0.94759401  0.63284643  0.60416399  1  0.417163  0  0.095742  -0.006444  0  3.919988  0
C  C71  1  0.55240517  0.13284319  0.89583636  1  0.417076  0  0.095841  -0.006252  0  3.920023  0
C  C72  1  0.03703025  0.35706249  0.29407809  1  0.981696  0  0.240848  0.442911  0  3.919986  0
C  C73  1  0.46297418  0.85705763  0.20592212  1  0.981619  0  0.240786  0.442797  0  3.919975  0
C  C74  1  0.96297103  0.64294050  0.70592238  1  0.981673  0  0.240781  0.442868  0  3.919972  0
C  C75  1  0.53702612  0.14293917  0.79407738  1  0.981664  0  0.240785  0.442805  0  3.92001  0
C  C76  1  0.31055447  0.34840418  0.41243767  1  1.575831  0  0.24049  0.63662  0  4.164123  0
C  C77  1  0.18945100  0.84840132  0.08756081  1  1.575847  0  0.240521  0.636577  0  4.164156  0
C  C78  1  0.68944682  0.65159881  0.58756189  1  1.575596  0  0.240587  0.636745  0  4.164062  0
C  C79  1  0.81055029  0.15159636  0.91243829  1  1.575707  0  0.240522  0.636716  0  4.164034  0
C  C80  1  0.99840861  0.37990622  0.45474345  1  1.626974  0  0.239373  0.650287  0  4.22529  0
C  C81  1  0.50159006  0.87989816  0.04525506  1  1.626817  0  0.239428  0.650308  0  4.225438  0
C  C82  1  0.00159071  0.62010032  0.54525599  1  1.626811  0  0.239452  0.650396  0  4.225335  0
C  C83  1  0.49840827  0.12009421  0.95474433  1  1.626981  0  0.239316  0.650148  0  4.225584  0
C  C84  1  0.97646215  0.35922785  0.22935854  1  0.029355  0  -0.231363  -0.482096  0  3.898457  0
C  C85  1  0.52354155  0.85922465  0.27064077  1  0.029375  0  -0.231392  -0.482102  0  3.898581  0
C  C86  1  0.02353815  0.64077426  0.77064142  1  0.02939  0  -0.231403  -0.482154  0  3.89862  0
C  C87  1  0.47645875  0.14077392  0.72935919  1  0.029328  0  -0.23141  -0.482125  0  3.898639  0
C  C88  1  0.75886082  0.07580258  0.25159018  1  0.400348  0  0.08325  -0.014427  0  3.950084  0
C  C89  1  0.74114023  0.57580421  0.24841015  1  0.400187  0  0.08318  -0.014509  0  3.950128  0
C  C90  1  0.24113751  0.92419687  0.74840966  1  0.400329  0  0.083172  -0.014489  0  3.950144  0
C  C91  1  0.25885908  0.42419701  0.75159020  1  0.40019  0  0.083185  -0.0145  0  3.950048  0
C  C92  1  0.65445055  0.15451776  0.23834080  1  0.437079  0  0.084655  -0.005621  0  4.036051  0
C  C93  1  0.84555014  0.65451982  0.26166022  1  0.43689  0  0.084721  -0.005584  0  4.035941  0
C  C94  1  0.34554678  0.84548081  0.76165899  1  0.437018  0  0.084685  -0.005647  0  4.036013  0
C  C95  1  0.15444917  0.34548229  0.73834013  1  0.436997  0  0.084675  -0.00552  0  4.036021  0
C  C96  1  0.68750743  0.14040906  0.33780265  1  1.002624  0  0.242794  0.442152  0  3.94179  0
C  C97  1  0.81249629  0.64040863  0.16219677  1  1.002985  0  0.242781  0.442094  0  3.941775  0
C  C98  1  0.31249386  0.85959039  0.66219691  1  1.002604  0  0.242778  0.442114  0  3.941816  0
C  C99  1  0.18750500  0.35959171  0.83780370  1  1.002977  0  0.242757  0.442137  0  3.941742  0
C  C100  1  0.83664723  0.99560755  0.21680959  1  1.642916  0  0.227722  0.616524  0  4.243574  0
C  C101  1  0.66335189  0.49560680  0.28318910  1  1.643115  0  0.22762  0.616343  0  4.243727  0
C  C102  1  0.16335110  0.00439191  0.78318980  1  1.642921  0  0.22766  0.616384  0  4.243672  0
C  C103  1  0.33664643  0.50439354  0.71681119  1  1.643051  0  0.227668  0.616431  0  4.243587  0
C  C104  1  0.58981190  0.20163950  0.17940395  1  1.619062  0  0.22904  0.629463  0  4.219197  0
C  C105  1  0.91018066  0.70164167  0.32059693  1  1.619196  0  0.22887  0.62922  0  4.219479  0
C  C106  1  0.41018346  0.79835819  0.82059617  1  1.619165  0  0.228918  0.629332  0  4.219332  0
C  C107  1  0.08981667  0.29836132  0.67940376  1  1.619456  0  0.22886  0.629191  0  4.219411  0
C  C108  1  0.67826058  0.15305133  0.40401457  1  -0.097362  0  -0.224764  -0.477298  0  3.891319  0
C  C109  1  0.82174407  0.65305062  0.09598578  1  -0.096906  0  -0.22484  -0.477359  0  3.891278  0
C  C110  1  0.32174170  0.84694989  0.59598550  1  -0.097345  0  -0.224789  -0.477278  0  3.891289  0
C  C111  1  0.17825722  0.34694972  0.90401469  1  -0.097402  0  -0.224754  -0.477258  0  3.891195  0
C  C112  1  0.23396813  0.55340608  0.21775280  1  1.606996  0  0.208434  0.496885  0  4.263793  0
C  C113  1  0.26604660  0.05342184  0.28224924  1  1.606936  0  0.208475  0.496701  0  4.264028  0
C  C114  1  0.76603613  0.44658895  0.78224784  1  1.607022  0  0.208455  0.4967  0  4.263963  0
C  C115  1  0.73395765  0.94658204  0.71775185  1  1.607423  0  0.208429  0.496651  0  4.26397  0
C  C116  1  0.29849955  0.59890478  0.28072596  1  1.571004  0  0.215053  0.483371  0  4.215113  0
C  C117  1  0.20151101  0.09891869  0.21927572  1  1.571173  0  0.215089  0.483463  0  4.214967  0
C  C118  1  0.70150272  0.40109025  0.71927456  1  1.570994  0  0.215087  0.483473  0  4.215059  0
C  C119  1  0.79849324  0.90108431  0.78072492  1  1.571197  0  0.21512  0.483565  0  4.215005  0
N  N120  1  0.16504121  0.34268763  0.31462662  1  -1.242523  0  -0.39377  -0.472886  0  3.405542  0
N  N121  1  0.33496033  0.84268336  0.18537256  1  -1.242404  0  -0.39371  -0.472741  0  3.405446  0
N  N122  1  0.83495909  0.65731537  0.68537334  1  -1.242513  0  -0.393752  -0.472838  0  3.405533  0
N  N123  1  0.66503997  0.15731343  0.81462740  1  -1.242441  0  -0.393706  -0.472728  0  3.405463  0
N  N124  1  0.96735669  0.37210354  0.34231319  1  -1.283853  0  -0.364314  -0.275805  0  3.605092  0
N  N125  1  0.53264398  0.87209608  0.15768591  1  -1.283971  0  -0.364164  -0.275702  0  3.605197  0
N  N126  1  0.03264360  0.62790122  0.65768722  1  -1.283837  0  -0.364139  -0.27565  0  3.605004  0
N  N127  1  0.46735533  0.12789895  0.84231354  1  -1.283864  0  -0.364259  -0.275774  0  3.605161  0
N  N128  1  0.61128437  0.19307808  0.29188135  1  -1.192579  0  -0.374971  -0.461728  0  3.366804  0
N  N129  1  0.88871812  0.69307875  0.20811876  1  -1.192572  0  -0.374969  -0.46168  0  3.366651  0
N  N130  1  0.38871495  0.80692137  0.70811809  1  -1.192576  0  -0.374937  -0.461612  0  3.366704  0
N  N131  1  0.11128218  0.30692159  0.79188164  1  -1.192563  0  -0.374967  -0.461785  0  3.366731  0
N  N132  1  0.77777020  0.07029563  0.31454760  1  -1.301781  0  -0.370688  -0.287034  0  3.611426  0
N  N133  1  0.72223385  0.57029615  0.18545292  1  -1.302002  0  -0.370603  -0.286881  0  3.611383  0
N  N134  1  0.22223011  0.92970382  0.68545235  1  -1.301673  0  -0.370677  -0.287021  0  3.611421  0
N  N135  1  0.27776744  0.42970419  0.81454800  1  -1.302115  0  -0.370609  -0.286924  0  3.611354  0
O  O136  1  0.40869291  0.32775744  0.38297591  1  -1.185348  0  -0.35019  -0.594282  0  2.269643  0
O  O137  1  0.09130572  0.82775283  0.11702359  1  -1.185091  0  -0.350221  -0.594225  0  2.269307  0
O  O138  1  0.59130640  0.67224467  0.61702444  1  -1.185171  0  -0.350202  -0.594278  0  2.269472  0
O  O139  1  0.90869260  0.17224485  0.88297670  1  -1.185294  0  -0.350222  -0.59429  0  2.269412  0
O  O140  1  0.32538693  0.37137912  0.46918519  1  -1.196929  0  -0.414439  -0.700045  0  2.346166  0
O  O141  1  0.17461545  0.87137685  0.03081623  1  -1.197259  0  -0.414509  -0.7001  0  2.346457  0
O  O142  1  0.67461435  0.62862564  0.53081573  1  -1.196944  0  -0.414545  -0.700194  0  2.346411  0
O  O143  1  0.82538485  0.12862084  0.96918418  1  -1.196939  0  -0.414483  -0.700147  0  2.346335  0
O  O144  1  0.06785874  0.35069280  0.50394379  1  -1.202527  0  -0.403118  -0.69092  0  2.318753  0
O  O145  1  0.43214115  0.85068880  0.99605600  1  -1.202586  0  -0.40317  -0.690959  0  2.318954  0
O  O146  1  0.93214156  0.64931462  0.49605707  1  -1.202554  0  -0.403195  -0.691013  0  2.31882  0
O  O147  1  0.56785817  0.14930357  0.00394390  1  -1.20252  0  -0.40307  -0.69086  0  2.318949  0
O  O148  1  0.87972240  0.41731109  0.45111383  1  -1.197309  0  -0.412374  -0.683295  0  2.30443  0
O  O149  1  0.62028103  0.91729997  0.04888486  1  -1.197147  0  -0.412362  -0.683304  0  2.304462  0
O  O150  1  0.12027889  0.58269544  0.54888528  1  -1.19721  0  -0.412354  -0.683292  0  2.30443  0
O  O151  1  0.37971828  0.08269329  0.95111413  1  -1.197362  0  -0.412389  -0.683258  0  2.304458  0
O  O152  1  0.92967457  0.94260756  0.24893832  1  -1.181589  0  -0.373622  -0.625537  0  2.329405  0
O  O153  1  0.57033171  0.44260742  0.25106228  1  -1.18164  0  -0.373557  -0.62541  0  2.329551  0
O  O154  1  0.07032770  0.05739278  0.75106221  1  -1.181602  0  -0.373591  -0.625436  0  2.329477  0
O  O155  1  0.42967057  0.55739292  0.74893824  1  -1.181599  0  -0.373577  -0.625433  0  2.329447  0
O  O156  1  0.80308120  0.97940131  0.15948530  1  -1.226742  0  -0.397603  -0.708307  0  2.312008  0
O  O157  1  0.69691898  0.47940699  0.34051576  1  -1.226723  0  -0.397547  -0.70822  0  2.311869  0
O  O158  1  0.19691712  0.02059461  0.84051499  1  -1.226724  0  -0.397547  -0.708233  0  2.31197  0
O  O159  1  0.30307836  0.52059778  0.65948493  1  -1.226705  0  -0.397571  -0.708294  0  2.311916  0
O  O160  1  0.65109068  0.19118041  0.13220389  1  -1.225094  0  -0.414037  -0.717914  0  2.348769  0
O  O161  1  0.84890886  0.69118940  0.36779425  1  -1.225168  0  -0.413914  -0.71775  0  2.349294  0
O  O162  1  0.34890369  0.80881285  0.86779482  1  -1.225163  0  -0.413957  -0.717857  0  2.349075  0
O  O163  1  0.15108848  0.30881625  0.63220508  1  -1.225467  0  -0.413929  -0.717796  0  2.34915  0
O  O164  1  0.48056864  0.25308348  0.17971116  1  -1.156199  0  -0.357107  -0.573118  0  2.220049  0
O  O165  1  0.01943726  0.75309132  0.32028941  1  -1.156147  0  -0.357071  -0.573053  0  2.219725  0
O  O166  1  0.51943166  0.74691509  0.82028925  1  -1.156168  0  -0.357054  -0.573027  0  2.219878  0
O  O167  1  0.98056304  0.24691167  0.67971100  1  -1.156154  0  -0.357031  -0.573001  0  2.219739  0
O  O168  1  0.15132744  0.62249312  0.18854349  1  -1.169399  0  -0.375437  -0.60777  0  2.315431  0
O  O169  1  0.34866720  0.12248533  0.31145404  1  -1.169513  0  -0.375445  -0.607548  0  2.31645  0
O  O170  1  0.84867088  0.37750899  0.81145635  1  -1.169479  0  -0.375464  -0.607671  0  2.315691  0
O  O171  1  0.65133013  0.87751236  0.68854574  1  -1.169948  0  -0.375405  -0.607542  0  2.316155  0
O  O172  1  0.26830665  0.45235491  0.20087689  1  -1.17241  0  -0.381008  -0.577908  0  2.262041  0
O  O173  1  0.23169635  0.95234547  0.29912527  1  -1.172254  0  -0.381123  -0.578038  0  2.261163  0
O  O174  1  0.73169463  0.54764808  0.79912403  1  -1.172384  0  -0.380996  -0.577808  0  2.261807  0
O  O175  1  0.76830494  0.04765222  0.70087611  1  -1.172284  0  -0.381086  -0.577975  0  2.261428  0
O  O176  1  0.37276367  0.52666439  0.31351724  1  -1.178594  0  -0.337119  -0.579752  0  2.374345  0
O  O177  1  0.12723637  0.02665495  0.18647995  1  -1.17837  0  -0.337061  -0.579819  0  2.373662  0
O  O178  1  0.62723762  0.47333772  0.68648232  1  -1.178522  0  -0.337063  -0.579761  0  2.374151  0
O  O179  1  0.87276492  0.97334096  0.81351916  1  -1.178381  0  -0.337127  -0.579891  0  2.373851  0
O  O180  1  0.27539353  0.70394829  0.29523209  1  -1.169568  0  -0.357429  -0.566902  0  2.335062  0
O  O181  1  0.22460271  0.20393748  0.20477076  1  -1.169967  0  -0.357441  -0.56682  0  2.335505  0
O  O182  1  0.72460282  0.29605382  0.70476900  1  -1.169613  0  -0.357528  -0.566974  0  2.335199  0
O  O183  1  0.77539561  0.79605932  0.79523089  1  -1.169958  0  -0.357431  -0.566869  0  2.335466  0
O  O184  1  0.39394303  0.58554042  0.53634412  1  -1.25651  0  -0.639865  -0.858748  0  2.07837  0
O  O185  1  0.10605610  0.08553902  0.96365675  1  -1.256516  0  -0.639881  -0.858786  0  2.078342  0
O  O186  1  0.60605629  0.41446434  0.46365487  1  -1.255706  0  -0.639932  -0.858872  0  2.078286  0
O  O187  1  0.89394519  0.91445778  0.03634235  1  -1.256451  0  -0.639905  -0.858779  0  2.078416  0
O  O188  1  0.48882676  0.36151200  0.59600892  1  -1.274414  0  -0.627329  -0.875351  0  2.024468  0
O  O189  1  0.01116812  0.86151199  0.90399418  1  -1.274314  0  -0.627375  -0.875178  0  2.024675  0
O  O190  1  0.51117354  0.63849276  0.40399195  1  -1.274267  0  -0.627363  -0.875268  0  2.024561  0
O  O191  1  0.98882921  0.13848481  0.09600651  1  -1.274433  0  -0.627352  -0.875075  0  2.024812  0
O  O192  1  0.27221673  0.18782739  0.55754262  1  -1.235395  0  -0.60258  -0.805384  0  1.943359  0
O  O193  1  0.22777897  0.68782455  0.94245644  1  -1.235432  0  -0.602607  -0.805437  0  1.943211  0
O  O194  1  0.72778357  0.81218003  0.44245824  1  -1.235342  0  -0.602613  -0.805359  0  1.94331  0
O  O195  1  0.77221935  0.31217048  0.05754386  1  -1.23549  0  -0.602594  -0.805398  0  1.94335  0
