# generated using pymatgen
data_AgPH17C10N3O2
_symmetry_space_group_name_H-M   'P 1'
_cell_length_a   11.16968142
_cell_length_b   13.27592672
_cell_length_c   20.45007603
_cell_angle_alpha   89.99953743
_cell_angle_beta   90.00001036
_cell_angle_gamma   90.00006393
_symmetry_Int_Tables_number   1
_chemical_formula_structural   AgPH17C10N3O2
_chemical_formula_sum   'Ag8 P8 H136 C80 N24 O16'
_cell_volume   3032.49825642
_cell_formula_units_Z   8
loop_
 _symmetry_equiv_pos_site_id
 _symmetry_equiv_pos_as_xyz
  1  'x, y, z'
loop_
 _atom_site_type_symbol
 _atom_site_label
 _atom_site_symmetry_multiplicity
 _atom_site_fract_x
 _atom_site_fract_y
 _atom_site_fract_z
 _atom_site_occupancy
 _atom_site_pbe_bader_charge
 _atom_site_pbe_bader_spin_density
 _atom_site_pbe_cm5_charge
 _atom_site_pbe_ddec_charge
 _atom_site_pbe_ddec_spin_density
 _atom_site_pbe_ddec_sum_bond_order
 _atom_site_pbe_magmom
Ag  Ag0  1  0.79424799  0.89043816  0.27736736  1  0.414713  0  0.455134  0.191657  0  2.325347  0
Ag  Ag1  1  0.29423354  0.60955694  0.22265775  1  0.414753  0  0.455123  0.191565  0  2.32529  0
Ag  Ag2  1  0.20573154  0.60954965  0.77734958  1  0.414795  0  0.455087  0.191589  0  2.325198  0
Ag  Ag3  1  0.70574598  0.89043005  0.72263563  1  0.414696  0  0.455118  0.191709  0  2.325335  0
Ag  Ag4  1  0.20574374  0.10955853  0.72263372  1  0.414532  0  0.455149  0.191705  0  2.325278  0
Ag  Ag5  1  0.70577520  0.39042469  0.77736142  1  0.414815  0  0.455112  0.191607  0  2.325497  0
Ag  Ag6  1  0.79427093  0.39044855  0.22263488  1  0.414583  0  0.455118  0.191751  0  2.325196  0
Ag  Ag7  1  0.29425470  0.10955082  0.27734687  1  0.414816  0  0.455108  0.191695  0  2.325065  0
P  P8  1  0.89546027  0.74048022  0.29246501  1  1.206366  0  -0.069882  0.233504  0  4.12353  0
P  P9  1  0.39545765  0.75951497  0.20754007  1  1.206409  0  -0.069864  0.233374  0  4.123401  0
P  P10  1  0.10453807  0.75952095  0.79246013  1  1.206298  0  -0.069838  0.233458  0  4.123274  0
P  P11  1  0.60453708  0.74047446  0.70753583  1  1.206558  0  -0.069888  0.233389  0  4.123689  0
P  P12  1  0.10453862  0.25952249  0.70753607  1  1.206471  0  -0.069891  0.233449  0  4.123575  0
P  P13  1  0.60453856  0.24047795  0.79246248  1  1.206321  0  -0.069912  0.233375  0  4.123647  0
P  P14  1  0.89546351  0.24047875  0.20753655  1  1.206355  0  -0.069908  0.233435  0  4.123695  0
P  P15  1  0.39546181  0.25951921  0.29246036  1  1.206278  0  -0.069833  0.233439  0  4.123339  0
H  H16  1  0.66458217  0.03997647  0.47286615  1  0.010464  0  0.093023  0.075908  0  0.979604  0
H  H17  1  0.16457886  0.46002354  0.02713759  1  0.010543  0  0.093048  0.07597  0  0.979574  0
H  H18  1  0.33542094  0.46002671  0.97286611  1  0.010232  0  0.093055  0.075937  0  0.979596  0
H  H19  1  0.83541516  0.03997320  0.52713148  1  0.010217  0  0.093069  0.075994  0  0.979505  0
H  H20  1  0.33541583  0.96002022  0.52713396  1  0.010425  0  0.093029  0.075903  0  0.979571  0
H  H21  1  0.83540929  0.53997918  0.97286251  1  0.010378  0  0.093026  0.075909  0  0.979541  0
H  H22  1  0.66458691  0.53997902  0.02713301  1  0.010105  0  0.093028  0.075907  0  0.979552  0
H  H23  1  0.16458642  0.96001596  0.47287156  1  0.010037  0  0.093023  0.075907  0  0.979594  0
H  H24  1  0.50902717  0.09267001  0.39420712  1  -0.014505  0  0.075657  0.058698  0  1.043498  0
H  H25  1  0.00902113  0.40733060  0.10579317  1  -0.014594  0  0.075644  0.058694  0  1.043552  0
H  H26  1  0.49097233  0.40732738  0.89420787  1  -0.014522  0  0.075651  0.058681  0  1.043483  0
H  H27  1  0.99096754  0.09266891  0.60579414  1  -0.014425  0  0.075637  0.058717  0  1.043495  0
H  H28  1  0.49096724  0.90732367  0.60579249  1  -0.014423  0  0.075645  0.058651  0  1.043471  0
H  H29  1  0.99097239  0.59267211  0.89420644  1  -0.014521  0  0.075663  0.058684  0  1.043455  0
H  H30  1  0.50902925  0.59267232  0.10579370  1  -0.01444  0  0.075657  0.058679  0  1.043446  0
H  H31  1  0.00903404  0.90732552  0.39420841  1  -0.014421  0  0.07563  0.058643  0  1.043469  0
H  H32  1  0.42272897  0.98472284  0.41172650  1  0.052686  0  0.084145  0.085007  0  1.008175  0
H  H33  1  0.92271781  0.51527540  0.08827565  1  0.052611  0  0.084151  0.085012  0  1.008093  0
H  H34  1  0.57727567  0.51527307  0.91172391  1  0.052644  0  0.084134  0.084985  0  1.008187  0
H  H35  1  0.07727331  0.98472383  0.58827595  1  0.052668  0  0.084143  0.085044  0  1.008109  0
H  H36  1  0.57727439  0.01527310  0.58827653  1  0.05274  0  0.084137  0.084983  0  1.008098  0
H  H37  1  0.07727482  0.48472732  0.91172690  1  0.052804  0  0.084178  0.08505  0  1.008097  0
H  H38  1  0.42272501  0.48472588  0.08827277  1  0.052781  0  0.084175  0.085046  0  1.008069  0
H  H39  1  0.92272737  0.01527286  0.41172709  1  0.052801  0  0.084146  0.084953  0  1.008075  0
H  H40  1  0.65530762  0.87001989  0.52503788  1  0.041956  0  0.087232  0.085804  0  1.008823  0
H  H41  1  0.15530938  0.62997257  0.97496345  1  0.042061  0  0.087282  0.085869  0  1.008786  0
H  H42  1  0.34469423  0.62997938  0.02503595  1  0.042275  0  0.087216  0.085798  0  1.008741  0
H  H43  1  0.84469528  0.87001577  0.47496277  1  0.042268  0  0.087256  0.085811  0  1.008809  0
H  H44  1  0.34469038  0.12997454  0.47496271  1  0.04205  0  0.087229  0.085754  0  1.008765  0
H  H45  1  0.84468504  0.37002563  0.02503714  1  0.041703  0  0.087233  0.085755  0  1.00882  0
H  H46  1  0.65531093  0.37002259  0.97496269  1  0.042267  0  0.087221  0.085772  0  1.008757  0
H  H47  1  0.15530540  0.12997339  0.52503977  1  0.042091  0  0.08725  0.085799  0  1.00881  0
H  H48  1  0.51386847  0.84899101  0.48925713  1  0.037331  0  0.081197  0.076196  0  0.997493  0
H  H49  1  0.01386565  0.65101363  0.01073959  1  0.03762  0  0.081195  0.076233  0  0.997416  0
H  H50  1  0.48613620  0.65100920  0.98925774  1  0.037545  0  0.0812  0.07625  0  0.997566  0
H  H51  1  0.98613530  0.84898657  0.51074119  1  0.037552  0  0.081176  0.076183  0  0.99747  0
H  H52  1  0.48613042  0.15100719  0.51074150  1  0.03741  0  0.081189  0.076204  0  0.997484  0
H  H53  1  0.98612698  0.34899210  0.98926198  1  0.037509  0  0.081216  0.076219  0  0.997501  0
H  H54  1  0.51387165  0.34899276  0.01074089  1  0.037406  0  0.0812  0.076223  0  0.997511  0
H  H55  1  0.01386628  0.15100409  0.48925989  1  0.037403  0  0.081185  0.076198  0  0.99757  0
H  H56  1  0.05240039  0.72463213  0.20771422  1  0.106659  0  0.112073  0.13742  0  1.00423  0
H  H57  1  0.55240217  0.77536953  0.29228984  1  0.106534  0  0.112095  0.13744  0  1.004233  0
H  H58  1  0.94759524  0.77537238  0.70771081  1  0.10655  0  0.112082  0.137456  0  1.004212  0
H  H59  1  0.44759975  0.72462713  0.79228909  1  0.106578  0  0.112087  0.137441  0  1.004272  0
H  H60  1  0.94759939  0.27537360  0.79228881  1  0.106624  0  0.112065  0.137432  0  1.004175  0
H  H61  1  0.44759762  0.22463319  0.70771368  1  0.106585  0  0.112099  0.137462  0  1.004272  0
H  H62  1  0.05239918  0.22463260  0.29228880  1  0.106574  0  0.112131  0.137533  0  1.004042  0
H  H63  1  0.55240630  0.27537634  0.20771052  1  0.106577  0  0.112066  0.137394  0  1.004249  0
H  H64  1  0.10947010  0.77099228  0.28350747  1  0.069365  0  0.109255  0.115176  0  0.995128  0
H  H65  1  0.60946911  0.72900792  0.21649661  1  0.069104  0  0.109292  0.115218  0  0.99513  0
H  H66  1  0.89052465  0.72901202  0.78350478  1  0.069362  0  0.109285  0.115171  0  0.995138  0
H  H67  1  0.39052742  0.77099045  0.71649560  1  0.069409  0  0.109266  0.11513  0  0.995082  0
H  H68  1  0.89053147  0.22901270  0.71649557  1  0.069418  0  0.109275  0.115201  0  0.995187  0
H  H69  1  0.39052889  0.27099404  0.78350399  1  0.069329  0  0.109273  0.115191  0  0.995112  0
H  H70  1  0.10947066  0.27099371  0.21649581  1  0.069356  0  0.109276  0.115189  0  0.995107  0
H  H71  1  0.60947416  0.22901679  0.28350548  1  0.069402  0  0.109285  0.115167  0  0.995164  0
H  H72  1  0.73424968  0.61818515  0.28562134  1  0.021938  0  0.109024  0.110732  0  0.993403  0
H  H73  1  0.23425081  0.88181442  0.21438079  1  0.022023  0  0.109002  0.110662  0  0.993389  0
H  H74  1  0.26574955  0.88181310  0.78561828  1  0.022049  0  0.109005  0.110679  0  0.993407  0
H  H75  1  0.76575378  0.61818548  0.71437867  1  0.021901  0  0.109  0.110718  0  0.993393  0
H  H76  1  0.26575189  0.38181455  0.71438121  1  0.021983  0  0.109025  0.11071  0  0.993381  0
H  H77  1  0.76574809  0.11818453  0.78561833  1  0.022045  0  0.109003  0.110654  0  0.993399  0
H  H78  1  0.73424934  0.11818962  0.21438231  1  0.022018  0  0.109006  0.110695  0  0.99336  0
H  H79  1  0.23425049  0.38181272  0.28561752  1  0.022045  0  0.108991  0.110637  0  0.993419  0
H  H80  1  0.80791427  0.62719973  0.20907930  1  0.126037  0  0.116355  0.13755  0  0.982247  0
H  H81  1  0.30791540  0.87280142  0.29092381  1  0.126021  0  0.116289  0.137463  0  0.982258  0
H  H82  1  0.19208315  0.87279873  0.70907531  1  0.126245  0  0.116314  0.137486  0  0.982278  0
H  H83  1  0.69209368  0.62719978  0.79092114  1  0.126148  0  0.116309  0.137517  0  0.982294  0
H  H84  1  0.19208462  0.37279772  0.79092275  1  0.12601  0  0.116336  0.137524  0  0.982236  0
H  H85  1  0.69208080  0.12719979  0.70907678  1  0.126034  0  0.116303  0.137461  0  0.982289  0
H  H86  1  0.80791932  0.12720474  0.29092333  1  0.126019  0  0.116345  0.137518  0  0.982246  0
H  H87  1  0.30791506  0.37280143  0.20907505  1  0.125986  0  0.11629  0.137464  0  0.982232  0
H  H88  1  0.97742324  0.75037567  0.40370174  1  0.087478  0  0.116028  0.125795  0  0.992078  0
H  H89  1  0.47742147  0.74962186  0.09630335  1  0.087484  0  0.116053  0.125844  0  0.99212  0
H  H90  1  0.02257692  0.74962336  0.90369739  1  0.087531  0  0.116037  0.12583  0  0.992004  0
H  H91  1  0.52257502  0.75037349  0.59629856  1  0.087559  0  0.115999  0.125753  0  0.991945  0
H  H92  1  0.02257655  0.24962780  0.59629836  1  0.087574  0  0.115984  0.125744  0  0.991987  0
H  H93  1  0.52257653  0.25037633  0.90370067  1  0.087512  0  0.116014  0.125814  0  0.991936  0
H  H94  1  0.97742555  0.25037861  0.09629929  1  0.087475  0  0.116006  0.125822  0  0.991973  0
H  H95  1  0.47742655  0.24962546  0.40369861  1  0.087533  0  0.115998  0.125776  0  0.991982  0
H  H96  1  0.83420784  0.69352760  0.40316350  1  0.120033  0  0.11794  0.133469  0  0.95905  0
H  H97  1  0.33420435  0.80646679  0.09683962  1  0.120025  0  0.117945  0.133502  0  0.959056  0
H  H98  1  0.16579412  0.80646993  0.90315789  1  0.120096  0  0.11793  0.133498  0  0.95911  0
H  H99  1  0.66579214  0.69352555  0.59683758  1  0.120019  0  0.117962  0.133497  0  0.959096  0
H  H100  1  0.16579553  0.30647211  0.59683856  1  0.12002  0  0.117931  0.133468  0  0.959082  0
H  H101  1  0.66579454  0.19352614  0.90316097  1  0.120011  0  0.117943  0.133495  0  0.959087  0
H  H102  1  0.83420746  0.19353204  0.09683977  1  0.120053  0  0.117945  0.133512  0  0.959131  0
H  H103  1  0.33420765  0.30647190  0.40315909  1  0.1201  0  0.117934  0.133508  0  0.959112  0
H  H104  1  0.13789601  0.52297901  0.35716652  1  0.044824  0  0.11346  0.067828  0  0.999305  0
H  H105  1  0.63789621  0.97701745  0.14283316  1  0.044855  0  0.113444  0.067772  0  0.999248  0
H  H106  1  0.86210235  0.97702135  0.85716450  1  0.044838  0  0.113435  0.067744  0  0.999322  0
H  H107  1  0.36210835  0.52297808  0.64283882  1  0.044889  0  0.113457  0.067786  0  0.999307  0
H  H108  1  0.86210736  0.47702144  0.64283505  1  0.044867  0  0.113503  0.067895  0  0.999485  0
H  H109  1  0.36210089  0.02298376  0.85716548  1  0.044845  0  0.113458  0.067821  0  0.999262  0
H  H110  1  0.13789475  0.02298137  0.14283756  1  0.044844  0  0.113481  0.067796  0  0.999305  0
H  H111  1  0.63789412  0.47702539  0.35716520  1  0.044813  0  0.113429  0.067724  0  0.999346  0
H  H112  1  0.15219373  0.65590826  0.37066099  1  0.075628  0  0.122287  0.09001  0  0.950545  0
H  H113  1  0.65219017  0.84408746  0.12934162  1  0.075741  0  0.122309  0.090065  0  0.950572  0
H  H114  1  0.84780463  0.84409193  0.87065721  1  0.075657  0  0.122289  0.089935  0  0.950617  0
H  H115  1  0.34780454  0.65590673  0.62934219  1  0.07578  0  0.122253  0.089885  0  0.950532  0
H  H116  1  0.84780785  0.34409220  0.62933911  1  0.075715  0  0.122199  0.089855  0  0.950446  0
H  H117  1  0.34780603  0.15591375  0.87065946  1  0.075589  0  0.122295  0.090027  0  0.950532  0
H  H118  1  0.15219515  0.15591154  0.12934142  1  0.07564  0  0.122259  0.089959  0  0.950539  0
H  H119  1  0.65219435  0.34409750  0.37065791  1  0.075611  0  0.12227  0.089871  0  0.950619  0
H  H120  1  0.05495804  0.46207691  0.25409370  1  0.053781  0  0.112352  0.068677  0  1.007714  0
H  H121  1  0.55495949  0.03792375  0.24590660  1  0.053812  0  0.112348  0.068698  0  1.00754  0
H  H122  1  0.94504141  0.03792601  0.75408957  1  0.053771  0  0.112355  0.068705  0  1.00761  0
H  H123  1  0.44505071  0.46207475  0.74591048  1  0.053435  0  0.112314  0.068634  0  1.007561  0
H  H124  1  0.94504532  0.53792355  0.74590689  1  0.05377  0  0.112345  0.068669  0  1.007782  0
H  H125  1  0.44503851  0.96207746  0.75409546  1  0.053831  0  0.112343  0.068688  0  1.007539  0
H  H126  1  0.05495837  0.96207896  0.24590906  1  0.053428  0  0.11235  0.068701  0  1.007678  0
H  H127  1  0.55495266  0.53792947  0.25409158  1  0.054155  0  0.112315  0.068659  0  1.007703  0
H  H128  1  0.00397186  0.55139531  0.19547853  1  0.094796  0  0.127818  0.107408  0  0.987487  0
H  H129  1  0.50397655  0.94860630  0.30452064  1  0.094743  0  0.127839  0.107396  0  0.987592  0
H  H130  1  0.99602108  0.94860709  0.69547569  1  0.094665  0  0.127779  0.107352  0  0.987591  0
H  H131  1  0.49603164  0.55139473  0.80452372  1  0.094697  0  0.127835  0.10744  0  0.98755  0
H  H132  1  0.99602435  0.44860666  0.80452304  1  0.094778  0  0.127782  0.107393  0  0.987493  0
H  H133  1  0.49602234  0.05139340  0.69547897  1  0.094758  0  0.12784  0.107384  0  0.98758  0
H  H134  1  0.00397512  0.05139563  0.30452441  1  0.094715  0  0.127798  0.107367  0  0.987501  0
H  H135  1  0.50397620  0.44861101  0.19547638  1  0.094722  0  0.127807  0.107416  0  0.987508  0
H  H136  1  0.94783669  0.44461726  0.35729782  1  0.04704  0  0.11882  0.08032  0  0.966379  0
H  H137  1  0.44783915  0.05537925  0.14270253  1  0.047045  0  0.118822  0.080312  0  0.966444  0
H  H138  1  0.05216280  0.05538211  0.85729203  1  0.047104  0  0.118808  0.080318  0  0.966418  0
H  H139  1  0.55216475  0.44461754  0.64270798  1  0.047102  0  0.11881  0.0803  0  0.966457  0
H  H140  1  0.05216847  0.55538471  0.64270424  1  0.047064  0  0.118809  0.0803  0  0.966422  0
H  H141  1  0.55215885  0.94461895  0.85729513  1  0.047041  0  0.118808  0.080319  0  0.966466  0
H  H142  1  0.94783699  0.94461986  0.14270563  1  0.047132  0  0.11883  0.080343  0  0.966423  0
H  H143  1  0.44782877  0.55538368  0.35729457  1  0.047112  0  0.118818  0.080294  0  0.966433  0
H  H144  1  0.81642834  0.51834529  0.37173962  1  0.052012  0  0.117208  0.079387  0  0.986978  0
H  H145  1  0.31642867  0.98165285  0.12826252  1  0.052033  0  0.117202  0.079373  0  0.987034  0
H  H146  1  0.18357271  0.98165263  0.87173261  1  0.05265  0  0.117218  0.079393  0  0.987074  0
H  H147  1  0.68357141  0.51834211  0.62826188  1  0.052005  0  0.117205  0.079354  0  0.987097  0
H  H148  1  0.18357503  0.48165668  0.62826342  1  0.052002  0  0.117205  0.079395  0  0.986989  0
H  H149  1  0.68356664  0.01834309  0.87173709  1  0.052086  0  0.117209  0.079409  0  0.987083  0
H  H150  1  0.81642887  0.01834783  0.12826505  1  0.052645  0  0.117193  0.079345  0  0.987036  0
H  H151  1  0.31642569  0.48165082  0.37173480  1  0.052604  0  0.117206  0.079352  0  0.987068  0
C  C152  1  0.65864614  0.93485159  0.39426216  1  1.546676  0  0.182205  0.57857  0  4.174798  0
C  C153  1  0.15864144  0.56515092  0.10574045  1  1.546347  0  0.182251  0.578546  0  4.175048  0
C  C154  1  0.34135223  0.56515358  0.89426027  1  1.546444  0  0.182168  0.578482  0  4.175048  0
C  C155  1  0.84136222  0.93485261  0.60573033  1  1.546194  0  0.182152  0.578374  0  4.173983  0
C  C156  1  0.34134827  0.06514359  0.60573354  1  1.546231  0  0.182145  0.578469  0  4.174576  0
C  C157  1  0.84137178  0.43485331  0.89426894  1  1.545919  0  0.182146  0.57834  0  4.17404  0
C  C158  1  0.65864308  0.43485215  0.10573250  1  1.546237  0  0.182123  0.578173  0  4.174593  0
C  C159  1  0.15864205  0.06514559  0.39427319  1  1.546033  0  0.182094  0.578332  0  4.174175  0
C  C160  1  0.60110202  0.98300602  0.45434738  1  0.013923  0  -0.096155  -0.108199  0  3.874036  0
C  C161  1  0.10109634  0.51700020  0.04565522  1  0.013865  0  -0.096048  -0.108139  0  3.874039  0
C  C162  1  0.39889995  0.51699689  0.95434526  1  0.013935  0  -0.096117  -0.108087  0  3.873792  0
C  C163  1  0.89889745  0.98300031  0.54565317  1  0.013798  0  -0.096035  -0.108018  0  3.874404  0
C  C164  1  0.39889777  0.01699143  0.54565321  1  0.014095  0  -0.096052  -0.107979  0  3.874025  0
C  C165  1  0.89889450  0.48300553  0.95434537  1  0.013878  0  -0.095989  -0.107972  0  3.874274  0
C  C166  1  0.60110521  0.48300658  0.04565387  1  0.014138  0  -0.09603  -0.107922  0  3.874144  0
C  C167  1  0.10110771  0.01699262  0.45434839  1  0.014112  0  -0.095973  -0.108064  0  3.874403  0
C  C168  1  0.48664781  0.03874132  0.43322325  1  -0.04065  0  -0.169232  -0.163048  0  3.928745  0
C  C169  1  0.98663991  0.46125824  0.06678003  1  -0.040344  0  -0.169297  -0.163123  0  3.928623  0
C  C170  1  0.51335528  0.46125935  0.93322128  1  -0.040581  0  -0.169258  -0.163043  0  3.928733  0
C  C171  1  0.01334695  0.03873724  0.56677677  1  -0.040602  0  -0.169181  -0.163155  0  3.928768  0
C  C172  1  0.51335019  0.96125462  0.56677685  1  -0.040769  0  -0.169242  -0.162997  0  3.928624  0
C  C173  1  0.01335002  0.53874297  0.93322545  1  -0.040658  0  -0.169231  -0.163031  0  3.928724  0
C  C174  1  0.48664898  0.53874035  0.06677491  1  -0.040705  0  -0.169243  -0.163038  0  3.928745  0
C  C175  1  0.98665283  0.96125342  0.43322529  1  -0.040666  0  -0.169181  -0.162816  0  3.928533  0
C  C176  1  0.57294898  0.90812501  0.50907891  1  -0.040066  0  -0.170484  -0.159692  0  3.94042  0
C  C177  1  0.07294801  0.59187565  0.99092095  1  -0.040539  0  -0.170535  -0.159781  0  3.940485  0
C  C178  1  0.42705644  0.59187822  0.00907816  1  -0.040394  0  -0.17051  -0.159817  0  3.940408  0
C  C179  1  0.92705308  0.90812153  0.49092057  1  -0.040394  0  -0.170471  -0.159688  0  3.940401  0
C  C180  1  0.42705081  0.09187017  0.49092314  1  -0.040128  0  -0.170494  -0.159695  0  3.940288  0
C  C181  1  0.92704820  0.40813159  0.00907867  1  -0.039915  0  -0.17052  -0.159662  0  3.9403  0
C  C182  1  0.57294961  0.40812675  0.99092194  1  -0.040089  0  -0.170496  -0.15973  0  3.940202  0
C  C183  1  0.07294940  0.09187140  0.50907905  1  -0.039918  0  -0.170497  -0.159646  0  3.940391  0
C  C184  1  0.04862231  0.71559664  0.26119082  1  -0.171939  0  -0.085215  -0.239869  0  3.869372  0
C  C185  1  0.54862498  0.78440050  0.23881227  1  -0.171623  0  -0.085299  -0.239843  0  3.869309  0
C  C186  1  0.95137244  0.78440418  0.76118736  1  -0.171942  0  -0.085286  -0.239761  0  3.869209  0
C  C187  1  0.45137693  0.71559232  0.73881205  1  -0.171917  0  -0.085231  -0.239749  0  3.86933  0
C  C188  1  0.95137569  0.28440231  0.73880928  1  -0.171991  0  -0.085278  -0.239904  0  3.86948  0
C  C189  1  0.45137392  0.21559846  0.76118783  1  -0.171944  0  -0.085317  -0.239954  0  3.869433  0
C  C190  1  0.04862466  0.21560004  0.23881078  1  -0.171994  0  -0.085311  -0.239877  0  3.86908  0
C  C191  1  0.54862823  0.28440513  0.26118854  1  -0.172113  0  -0.085235  -0.239694  0  3.869405  0
C  C192  1  0.82267298  0.62374578  0.26219012  1  -0.170003  0  -0.079766  -0.220619  0  3.853699  0
C  C193  1  0.32267589  0.87625312  0.23781349  1  -0.170264  0  -0.079721  -0.220384  0  3.853491  0
C  C194  1  0.17732267  0.87625427  0.76218366  1  -0.170392  0  -0.079742  -0.220486  0  3.853696  0
C  C195  1  0.67732960  0.62374272  0.73781230  1  -0.170174  0  -0.079755  -0.2206  0  3.853815  0
C  C196  1  0.17732681  0.37625393  0.73781390  1  -0.170105  0  -0.079764  -0.220526  0  3.853555  0
C  C197  1  0.67732300  0.12374357  0.76218661  1  -0.17008  0  -0.079692  -0.220356  0  3.853623  0
C  C198  1  0.82267622  0.12374844  0.23781449  1  -0.170144  0  -0.079747  -0.220546  0  3.853653  0
C  C199  1  0.32267646  0.37625397  0.26218584  1  -0.170103  0  -0.079698  -0.220369  0  3.853636  0
C  C200  1  0.92104290  0.69553444  0.37786824  1  -0.158203  0  -0.0713  -0.211739  0  3.866086  0
C  C201  1  0.42104121  0.80446003  0.12213440  1  -0.158133  0  -0.071322  -0.2118  0  3.866036  0
C  C202  1  0.07895726  0.80446416  0.87786458  1  -0.158251  0  -0.071255  -0.211773  0  3.865883  0
C  C203  1  0.57896156  0.69553048  0.62213235  1  -0.158305  0  -0.071325  -0.211772  0  3.865981  0
C  C204  1  0.07896047  0.30447054  0.62213382  1  -0.158297  0  -0.071275  -0.211748  0  3.866096  0
C  C205  1  0.57895947  0.19553440  0.87786668  1  -0.158239  0  -0.071303  -0.211805  0  3.865852  0
C  C206  1  0.92104164  0.19553705  0.12213454  1  -0.158183  0  -0.07125  -0.21183  0  3.866078  0
C  C207  1  0.42104360  0.30446621  0.37786433  1  -0.158225  0  -0.071251  -0.211821  0  3.866032  0
C  C208  1  0.09611509  0.59688123  0.34863481  1  0.568656  0  0.022703  0.001843  0  3.929517  0
C  C209  1  0.59611610  0.90311293  0.15136730  1  0.56851  0  0.02274  0.001861  0  3.929614  0
C  C210  1  0.90388326  0.90311773  0.84863123  1  0.568597  0  0.02278  0.002113  0  3.929555  0
C  C211  1  0.40388667  0.59687571  0.65136867  1  0.568436  0  0.022744  0.002077  0  3.929285  0
C  C212  1  0.90388738  0.40312751  0.65136627  1  0.568417  0  0.022694  0.001906  0  3.92947  0
C  C213  1  0.40388011  0.09688527  0.84863378  1  0.568612  0  0.022747  0.001884  0  3.92943  0
C  C214  1  0.09611384  0.09688122  0.15136838  1  0.568616  0  0.022709  0.001949  0  3.929492  0
C  C215  1  0.59611490  0.40312249  0.34863094  1  0.568686  0  0.022771  0.002235  0  3.929376  0
C  C216  1  0.01277157  0.53616667  0.24783388  1  0.551166  0  0.01538  -0.003158  0  3.850012  0
C  C217  1  0.51277269  0.96382817  0.25217116  1  0.551185  0  0.015358  -0.003035  0  3.84965  0
C  C218  1  0.98722497  0.96383055  0.74782754  1  0.551597  0  0.015415  -0.003017  0  3.849821  0
C  C219  1  0.48723549  0.53616975  0.75217188  1  0.551522  0  0.015358  -0.003127  0  3.849834  0
C  C220  1  0.98722643  0.46383680  0.75216623  1  0.551164  0  0.015376  -0.003152  0  3.850056  0
C  C221  1  0.48722621  0.03617229  0.74782992  1  0.551586  0  0.015351  -0.003079  0  3.849653  0
C  C222  1  0.01277124  0.03616840  0.25216865  1  0.551518  0  0.015401  -0.003112  0  3.849986  0
C  C223  1  0.51277235  0.46383749  0.24782969  1  0.550686  0  0.015401  -0.003095  0  3.849925  0
C  C224  1  0.90556517  0.51844339  0.34911575  1  0.595678  0  0.021829  0.001844  0  3.929909  0
C  C225  1  0.40556282  0.98155257  0.15088591  1  0.595482  0  0.021832  0.001776  0  3.930109  0
C  C226  1  0.09443498  0.98155481  0.84911166  1  0.594789  0  0.021884  0.001839  0  3.930031  0
C  C227  1  0.59443906  0.51844361  0.65088673  1  0.595361  0  0.021773  0.001741  0  3.93018  0
C  C228  1  0.09443552  0.48155857  0.65088485  1  0.595625  0  0.021797  0.001764  0  3.929999  0
C  C229  1  0.59443517  0.01844488  0.84911321  1  0.595422  0  0.021849  0.001739  0  3.930184  0
C  C230  1  0.90556660  0.01844565  0.15088697  1  0.594823  0  0.021821  0.001771  0  3.930052  0
C  C231  1  0.40556073  0.48155609  0.34911288  1  0.594777  0  0.021782  0.001832  0  3.930035  0
N  N232  1  0.09182491  0.61300033  0.27717098  1  -0.991573  0  -0.342263  -0.107935  0  3.451905  0
N  N233  1  0.59182681  0.88699835  0.22283016  1  -0.991569  0  -0.342227  -0.108188  0  3.452004  0
N  N234  1  0.90817074  0.88700179  0.77716846  1  -0.991589  0  -0.342273  -0.108256  0  3.451969  0
N  N235  1  0.40817599  0.61299843  0.72283242  1  -0.991535  0  -0.342216  -0.108125  0  3.451923  0
N  N236  1  0.90817756  0.38700088  0.72283010  1  -0.991489  0  -0.342203  -0.107982  0  3.452025  0
N  N237  1  0.40817119  0.11300211  0.77716946  1  -0.991544  0  -0.342211  -0.107997  0  3.451598  0
N  N238  1  0.09182636  0.11300092  0.22283165  1  -0.991495  0  -0.342246  -0.108194  0  3.452048  0
N  N239  1  0.59182559  0.38700504  0.27716817  1  -0.991328  0  -0.342275  -0.108322  0  3.45208  0
N  N240  1  0.89190587  0.53174611  0.27754874  1  -0.966532  0  -0.347506  -0.113641  0  3.474347  0
N  N241  1  0.39190800  0.96825586  0.22245243  1  -0.966305  0  -0.347539  -0.113724  0  3.474336  0
N  N242  1  0.10809247  0.96825601  0.77754424  1  -0.966747  0  -0.347486  -0.113729  0  3.474315  0
N  N243  1  0.60809927  0.53174243  0.72245367  1  -0.966335  0  -0.347394  -0.113556  0  3.47419  0
N  N244  1  0.10809750  0.46825661  0.72245283  1  -0.966592  0  -0.34742  -0.113566  0  3.474346  0
N  N245  1  0.60808999  0.03174309  0.77754669  1  -0.966786  0  -0.347484  -0.113685  0  3.474322  0
N  N246  1  0.89190553  0.03174671  0.22245440  1  -0.966275  0  -0.347479  -0.113657  0  3.474269  0
N  N247  1  0.39190231  0.46825652  0.27754545  1  -0.966329  0  -0.347435  -0.11366  0  3.474387  0
N  N248  1  0.97863176  0.59602501  0.38000541  1  -0.996022  0  -0.343933  -0.153595  0  3.448765  0
N  N249  1  0.47863289  0.90397403  0.11999724  1  -0.99587  0  -0.343934  -0.153448  0  3.448709  0
N  N250  1  0.02136571  0.90397732  0.88000025  1  -0.995755  0  -0.344061  -0.153643  0  3.448747  0
N  N251  1  0.52136809  0.59602254  0.61999716  1  -0.995868  0  -0.343911  -0.15346  0  3.448624  0
N  N252  1  0.02136892  0.40397770  0.61999420  1  -0.995857  0  -0.343869  -0.153428  0  3.448674  0
N  N253  1  0.52136332  0.09602417  0.88000384  1  -0.995865  0  -0.343994  -0.15358  0  3.448603  0
N  N254  1  0.97863408  0.09602615  0.11999691  1  -0.995951  0  -0.343951  -0.153445  0  3.448709  0
N  N255  1  0.47863170  0.40397792  0.38000197  1  -0.9958  0  -0.343976  -0.153555  0  3.448628  0
O  O256  1  0.71708115  0.99545026  0.35660347  1  -1.190062  0  -0.371229  -0.564363  0  2.237583  0
O  O257  1  0.21705847  0.50454628  0.14340746  1  -1.19008  0  -0.371246  -0.564395  0  2.237527  0
O  O258  1  0.28291453  0.50455463  0.85660188  1  -1.190061  0  -0.371186  -0.564326  0  2.237547  0
O  O259  1  0.78292371  0.99546732  0.64340338  1  -1.189861  0  -0.371227  -0.564428  0  2.236596  0
O  O260  1  0.28290879  0.00453739  0.64339908  1  -1.189941  0  -0.371218  -0.564364  0  2.237238  0
O  O261  1  0.78293057  0.49546397  0.85659362  1  -1.189718  0  -0.371236  -0.564386  0  2.236641  0
O  O262  1  0.71708884  0.49546089  0.14339822  1  -1.189953  0  -0.371205  -0.564298  0  2.237092  0
O  O263  1  0.21709309  0.00453766  0.35660210  1  -1.189989  0  -0.371226  -0.564388  0  2.236575  0
O  O264  1  0.64285959  0.84221179  0.38283995  1  -1.199653  0  -0.364129  -0.596814  0  2.112673  0
O  O265  1  0.14287830  0.65779748  0.11715777  1  -1.199413  0  -0.364249  -0.596922  0  2.112629  0
O  O266  1  0.35713340  0.65779427  0.88283904  1  -1.199486  0  -0.364147  -0.596849  0  2.112796  0
O  O267  1  0.85712178  0.84219837  0.61716330  1  -1.199475  0  -0.364247  -0.596864  0  2.112096  0
O  O268  1  0.35711871  0.15778866  0.61715820  1  -1.199389  0  -0.364179  -0.596893  0  2.112507  0
O  O269  1  0.85714387  0.34219997  0.88283695  1  -1.199301  0  -0.364219  -0.596832  0  2.112035  0
O  O270  1  0.64287534  0.34220242  0.11716155  1  -1.199544  0  -0.364197  -0.596766  0  2.112342  0
O  O271  1  0.14285831  0.15779606  0.38283338  1  -1.19941  0  -0.364217  -0.596884  0  2.112092  0
