# generated using pymatgen
data_ZnH8(C2N)8
_symmetry_space_group_name_H-M   'P 1'
_cell_length_a   10.10382350
_cell_length_b   10.94290651
_cell_length_c   14.13510000
_cell_angle_alpha   90.00000000
_cell_angle_beta   101.10850670
_cell_angle_gamma   90.00000000
_symmetry_Int_Tables_number   1
_chemical_formula_structural   ZnH8(C2N)8
_chemical_formula_sum   'Zn4 H32 C64 N32'
_cell_volume   1533.56865101
_cell_formula_units_Z   4
loop_
 _symmetry_equiv_pos_site_id
 _symmetry_equiv_pos_as_xyz
  1  'x, y, z'
loop_
 _atom_site_type_symbol
 _atom_site_label
 _atom_site_symmetry_multiplicity
 _atom_site_fract_x
 _atom_site_fract_y
 _atom_site_fract_z
 _atom_site_occupancy
 _atom_site_hle17_bader_spin_density
 _atom_site_hle17_ddec_charge
 _atom_site_hle17_ddec_spin_density
 _atom_site_hle17_ddec_sum_bond_order
 _atom_site_hle17_magmom
 _atom_site_hse06_10hf_bader_spin_density
 _atom_site_hse06_10hf_ddec_charge
 _atom_site_hse06_10hf_ddec_spin_density
 _atom_site_hse06_10hf_ddec_sum_bond_order
 _atom_site_hse06_10hf_magmom
 _atom_site_hse06_bader_spin_density
 _atom_site_hse06_ddec_charge
 _atom_site_hse06_ddec_spin_density
 _atom_site_hse06_ddec_sum_bond_order
 _atom_site_hse06_magmom
 _atom_site_pbe_bader_charge
 _atom_site_pbe_bader_spin_density
 _atom_site_pbe_cm5_charge
 _atom_site_pbe_ddec_charge
 _atom_site_pbe_ddec_spin_density
 _atom_site_pbe_ddec_sum_bond_order
 _atom_site_pbe_magmom
Zn  Zn0  1  0.84943808  0.12722397  0.25352591  1  0  1.042945  0  1.991283  0  0  0.865004  0  2.472818  0  0  0.906039  0  2.423542  0  1.313248  0  0.745567  0.837137  0  2.506117  0
Zn  Zn1  1  0.15056101  0.62722367  0.24647538  1  0  1.04296  0  1.991301  0  0  0.865012  0  2.472843  0  0  0.906055  0  2.423545  0  1.313216  0  0.745576  0.837145  0  2.506145  0
Zn  Zn2  1  0.15056202  0.87277726  0.74647410  1  0  1.04296  0  1.991284  0  0  0.865014  0  2.47282  0  0  0.906056  0  2.423528  0  1.313202  0  0.745587  0.837147  0  2.506121  0
Zn  Zn3  1  0.84943808  0.37277482  0.75352521  1  0  1.042992  0  1.991232  0  0  0.865053  0  2.472767  0  0  0.906095  0  2.423473  0  1.313146  0  0.745584  0.837187  0  2.506067  0
H  H4  1  0.69470945  0.37590470  0.19271225  1  0  0.084013  0  0.937498  0  0  0.091317  0  1.002833  0  0  0.093696  0  1.000792  0  0.136476  0  0.11764  0.089231  0  1.005115  0
H  H5  1  0.30528763  0.87590532  0.30728805  1  0  0.084015  0  0.937404  0  0  0.091322  0  1.002731  0  0  0.093695  0  1.000706  0  0.136456  0  0.117642  0.089231  0  1.005016  0
H  H6  1  0.30528864  0.62409562  0.80728748  1  0  0.084036  0  0.93745  0  0  0.091342  0  1.002776  0  0  0.093715  0  1.000746  0  0.136467  0  0.117664  0.089246  0  1.005067  0
H  H7  1  0.69471046  0.12409500  0.69271239  1  0  0.084027  0  0.937472  0  0  0.091336  0  1.002804  0  0  0.093715  0  1.000762  0  0.136466  0  0.117657  0.089264  0  1.00507  0
H  H8  1  0.46353636  0.43513942  0.10285650  1  0  0.108632  0  0.960141  0  0  0.120241  0  1.016945  0  0  0.122931  0  1.016721  0  0.104476  0  0.108155  0.118378  0  1.017172  0
H  H9  1  0.53645971  0.93513912  0.39714437  1  0  0.108614  0  0.960172  0  0  0.120223  0  1.016982  0  0  0.122915  0  1.016756  0  0.104462  0  0.108143  0.118361  0  1.017209  0
H  H10  1  0.53646173  0.56486090  0.89714323  1  0  0.10861  0  0.96018  0  0  0.120224  0  1.016977  0  0  0.122915  0  1.016753  0  0.104473  0  0.108161  0.118364  0  1.017203  0
H  H11  1  0.46353837  0.06486028  0.60285607  1  0  0.108591  0  0.960159  0  0  0.12019  0  1.016975  0  0  0.122885  0  1.016747  0  0.10449  0  0.108138  0.118314  0  1.017217  0
H  H12  1  0.29567446  0.27051954  0.04413011  1  0  0.101989  0  0.945899  0  0  0.10831  0  1.013737  0  0  0.111109  0  1.012364  0  0.118119  0  0.107852  0.106537  0  1.014273  0
H  H13  1  0.70432363  0.77052015  0.45586750  1  0  0.102005  0  0.945926  0  0  0.108328  0  1.01376  0  0  0.111121  0  1.012407  0  0.118099  0  0.107865  0.106553  0  1.014303  0
H  H14  1  0.70432565  0.72947987  0.95586849  1  0  0.101969  0  0.945934  0  0  0.108285  0  1.013775  0  0  0.111082  0  1.01241  0  0.118117  0  0.107851  0.106512  0  1.014312  0
H  H15  1  0.29567546  0.22948108  0.54413096  1  0  0.102005  0  0.945919  0  0  0.108325  0  1.013757  0  0  0.111118  0  1.012401  0  0.117977  0  0.107854  0.106554  0  1.014288  0
H  H16  1  0.24353476  0.04299041  0.03183170  1  0  0.102134  0  0.966725  0  0  0.108439  0  1.034375  0  0  0.111152  0  1.034082  0  0.114085  0  0.101005  0.106356  0  1.034739  0
H  H17  1  0.75646635  0.54299102  0.46816633  1  0  0.102142  0  0.966702  0  0  0.108452  0  1.034351  0  0  0.111152  0  1.034071  0  0.114022  0  0.101008  0.106368  0  1.034717  0
H  H18  1  0.75646534  0.95700900  0.96816619  1  0  0.102112  0  0.966763  0  0  0.108429  0  1.034396  0  0  0.11113  0  1.034115  0  0.114015  0  0.100996  0.106345  0  1.034761  0
H  H19  1  0.24353476  0.45700930  0.53183170  1  0  0.102141  0  0.96673  0  0  0.108447  0  1.034372  0  0  0.111161  0  1.034079  0  0.114074  0  0.10101  0.106364  0  1.034737  0
H  H20  1  0.32195208  0.82815749  0.06494384  1  0  0.107177  0  0.962389  0  0  0.117001  0  1.024403  0  0  0.118932  0  1.024847  0  0.119992  0  0.10345  0.115707  0  1.024018  0
H  H21  1  0.67804903  0.32815779  0.43505631  1  0  0.107155  0  0.962336  0  0  0.116966  0  1.02438  0  0  0.118901  0  1.024814  0  0.120001  0  0.103437  0.115673  0  1.023996  0
H  H22  1  0.67804903  0.17184191  0.93505561  1  0  0.1072  0  0.962354  0  0  0.117025  0  1.024375  0  0  0.118958  0  1.024815  0  0.119994  0  0.103458  0.115731  0  1.023991  0
H  H23  1  0.32195208  0.67184162  0.56494384  1  0  0.107155  0  0.962366  0  0  0.116972  0  1.0244  0  0  0.118905  0  1.024836  0  0.120005  0  0.103446  0.115679  0  1.024017  0
H  H24  1  0.50781082  0.68209209  0.13156364  1  0  0.110889  0  0.956677  0  0  0.121694  0  1.017632  0  0  0.124739  0  1.015306  0  0.107847  0  0.107994  0.119544  0  1.019296  0
H  H25  1  0.49218928  0.18209239  0.36843496  1  0  0.110889  0  0.956665  0  0  0.121689  0  1.01762  0  0  0.124734  0  1.015293  0  0.107856  0  0.107993  0.119539  0  1.019285  0
H  H26  1  0.49218828  0.31790731  0.86843695  1  0  0.110846  0  0.956637  0  0  0.121652  0  1.017592  0  0  0.124684  0  1.015281  0  0.107854  0  0.107972  0.119502  0  1.019257  0
H  H27  1  0.50781082  0.81790701  0.63156434  1  0  0.110894  0  0.956668  0  0  0.121704  0  1.017607  0  0  0.124729  0  1.015304  0  0.107852  0  0.10799  0.119554  0  1.019271  0
H  H28  1  0.74964303  0.65233309  0.21706143  1  0  0.109525  0  0.943633  0  0  0.122514  0  0.996475  0  0  0.124987  0  0.996858  0  0.083204  0  0.110241  0.120321  0  0.997146  0
H  H29  1  0.25035809  0.15233247  0.28293872  1  0  0.109524  0  0.943646  0  0  0.122516  0  0.996484  0  0  0.124986  0  0.996867  0  0.083198  0  0.11024  0.120309  0  0.99717  0
H  H30  1  0.25035607  0.34766814  0.78293986  1  0  0.109509  0  0.943642  0  0  0.122498  0  0.996487  0  0  0.124972  0  0.996865  0  0.083192  0  0.110242  0.120305  0  0.997158  0
H  H31  1  0.74964303  0.84766785  0.71706143  1  0  0.109507  0  0.943646  0  0  0.122501  0  0.996487  0  0  0.124971  0  0.996872  0  0.083192  0  0.110249  0.120294  0  0.997173  0
H  H32  1  0.89204933  0.83691933  0.26893298  1  0  0.086138  0  0.955045  0  0  0.092089  0  1.022912  0  0  0.09377  0  1.022016  0  0.154232  0  0.115473  0.090824  0  1.023659  0
H  H33  1  0.10794977  0.33691963  0.23106760  1  0  0.086119  0  0.955059  0  0  0.09207  0  1.022937  0  0  0.093752  0  1.02204  0  0.154282  0  0.115453  0.090808  0  1.023682  0
H  H34  1  0.10794977  0.16308099  0.73106619  1  0  0.086143  0  0.955036  0  0  0.092093  0  1.022909  0  0  0.093774  0  1.022014  0  0.154207  0  0.115468  0.09083  0  1.023654  0
H  H35  1  0.89205034  0.66308069  0.76893241  1  0  0.086133  0  0.955063  0  0  0.092088  0  1.02293  0  0  0.093769  0  1.022033  0  0.154253  0  0.115471  0.090823  0  1.02368  0
C  C36  1  0.61903457  0.30712773  0.16496114  1  0  0.155203  0  3.680435  0  0  0.120525  0  3.938095  0  0  0.12867  0  3.95483  0  0.439751  0  0.06177  0.11536  0  3.926886  0
C  C37  1  0.38096553  0.80712743  0.33504029  1  0  0.155211  0  3.680298  0  0  0.120537  0  3.937952  0  0  0.128679  0  3.954688  0  0.43978  0  0.061767  0.115376  0  3.926741  0
C  C38  1  0.38096755  0.69287076  0.83503986  1  0  0.155112  0  3.68049  0  0  0.12044  0  3.938136  0  0  0.128582  0  3.954873  0  0.43963  0  0.061702  0.115283  0  3.926928  0
C  C39  1  0.61903558  0.19287289  0.66496128  1  0  0.155166  0  3.680444  0  0  0.12048  0  3.938111  0  0  0.128624  0  3.95485  0  0.439751  0  0.061734  0.115304  0  3.926894  0
C  C40  1  0.48967378  0.33916492  0.11481689  1  0  -0.116239  0  3.717441  0  0  -0.131668  0  3.974822  0  0  -0.13856  0  3.996412  0  0.042362  0  -0.08411  -0.126819  0  3.959893  0
C  C41  1  0.51032531  0.83916554  0.38518511  1  0  -0.116192  0  3.717608  0  0  -0.131626  0  3.97499  0  0  -0.138516  0  3.996576  0  0.042301  0  -0.08408  -0.126778  0  3.960058  0
C  C42  1  0.51032531  0.66083357  0.88518228  1  0  -0.116203  0  3.717659  0  0  -0.131645  0  3.975034  0  0  -0.138535  0  3.996623  0  0.042362  0  -0.084111  -0.126797  0  3.960101  0
C  C43  1  0.48967580  0.16083478  0.61481575  1  0  -0.116156  0  3.717574  0  0  -0.131576  0  3.97495  0  0  -0.138467  0  3.996536  0  0.042315  0  -0.084064  -0.126716  0  3.960029  0
C  C44  1  0.39678677  0.24802460  0.08301935  1  0  -0.040793  0  3.677991  0  0  -0.066383  0  3.931378  0  0  -0.063944  0  3.949593  0  -0.06397  0  -0.06057  -0.067572  0  3.918264  0
C  C45  1  0.60321232  0.74802613  0.41697981  1  0  -0.040862  0  3.67821  0  0  -0.066456  0  3.931602  0  0  -0.064019  0  3.949811  0  -0.063877  0  -0.060615  -0.067645  0  3.918486  0
C  C46  1  0.60321333  0.75197389  0.91697924  1  0  -0.040805  0  3.678097  0  0  -0.066385  0  3.931477  0  0  -0.063946  0  3.949688  0  -0.063918  0  -0.060594  -0.067571  0  3.918362  0
C  C47  1  0.39678778  0.25197419  0.58302020  1  0  -0.040855  0  3.67817  0  0  -0.066444  0  3.931554  0  0  -0.064008  0  3.949766  0  -0.06374  0  -0.060603  -0.067631  0  3.918435  0
C  C48  1  0.43397365  0.12434356  0.10076390  1  0  0.023066  0  3.795162  0  0  0.03888  0  4.02598  0  0  0.036413  0  4.050465  0  0.061351  0  -0.001725  0.040715  0  4.00896  0
C  C49  1  0.56602544  0.62434509  0.39923456  1  0  0.023091  0  3.795235  0  0  0.038905  0  4.026053  0  0  0.03644  0  4.050533  0  0.061325  0  -0.00171  0.040741  0  4.009032  0
C  C50  1  0.56602645  0.87565493  0.89923399  1  0  0.02309  0  3.795119  0  0  0.038896  0  4.025942  0  0  0.03643  0  4.050422  0  0.06139  0  -0.001705  0.040733  0  4.008924  0
C  C51  1  0.43397567  0.37565522  0.60076418  1  0  0.02308  0  3.795183  0  0  0.038895  0  4.026001  0  0  0.036429  0  4.050485  0  0.061331  0  -0.001718  0.040732  0  4.008984  0
C  C52  1  0.34578985  0.02325159  0.07011922  1  0  -0.102856  0  3.724641  0  0  -0.123885  0  3.979168  0  0  -0.127531  0  4.002207  0  -0.027523  0  -0.086237  -0.120682  0  3.963048  0
C  C53  1  0.65421026  0.52325312  0.42987938  1  0  -0.10279  0  3.72467  0  0  -0.123816  0  3.979169  0  0  -0.127449  0  4.002215  0  -0.027441  0  -0.086189  -0.120611  0  3.963049  0
C  C54  1  0.65421227  0.97674781  0.92987966  1  0  -0.102768  0  3.724685  0  0  -0.123795  0  3.979189  0  0  -0.127428  0  4.002236  0  -0.027469  0  -0.086188  -0.120588  0  3.963067  0
C  C55  1  0.34579086  0.47674720  0.57011936  1  0  -0.10288  0  3.724645  0  0  -0.123897  0  3.97917  0  0  -0.127543  0  4.002211  0  -0.027473  0  -0.086239  -0.120692  0  3.963052  0
C  C56  1  0.38876420  0.90537829  0.08746592  1  0  -0.088848  0  3.715901  0  0  -0.112313  0  3.970269  0  0  -0.115336  0  3.994203  0  -0.123303  0  -0.081834  -0.109966  0  3.954014  0
C  C57  1  0.61123490  0.40537950  0.41253254  1  0  -0.088881  0  3.715821  0  0  -0.112348  0  3.970208  0  0  -0.115371  0  3.994142  0  -0.123255  0  -0.081862  -0.110004  0  3.953955  0
C  C58  1  0.61123692  0.09462020  0.91253282  1  0  -0.088937  0  3.715901  0  0  -0.112426  0  3.970287  0  0  -0.115449  0  3.994221  0  -0.123097  0  -0.081876  -0.11008  0  3.954032  0
C  C59  1  0.38876521  0.59462173  0.58746676  1  0  -0.0888  0  3.715829  0  0  -0.112266  0  3.970224  0  0  -0.115289  0  3.994165  0  -0.12328  0  -0.081821  -0.109921  0  3.953973  0
C  C60  1  0.52363710  0.87903520  0.13645633  1  0  0.025718  0  3.781771  0  0  0.04302  0  4.012548  0  0  0.040179  0  4.036989  0  0.059342  0  -1.9e-05  0.044205  0  3.996823  0
C  C61  1  0.47636199  0.37903641  0.36354213  1  0  0.025728  0  3.781688  0  0  0.043041  0  4.012446  0  0  0.040197  0  4.036891  0  0.059067  0  -3.2e-05  0.044226  0  3.996722  0
C  C62  1  0.47636300  0.12096512  0.86354298  1  0  0.025698  0  3.781712  0  0  0.043025  0  4.012447  0  0  0.040184  0  4.036886  0  0.059094  0  -2.8e-05  0.044211  0  3.996721  0
C  C63  1  0.52363811  0.62096391  0.63645647  1  0  0.025747  0  3.781706  0  0  0.043012  0  4.012524  0  0  0.040169  0  4.036963  0  0.059084  0  -1e-06  0.044197  0  3.9968  0
C  C64  1  0.57479844  0.75919501  0.15432920  1  0  -0.038253  0  3.663968  0  0  -0.065913  0  3.916254  0  0  -0.062996  0  3.933727  0  -0.014178  0  -0.061414  -0.067712  0  3.904664  0
C  C65  1  0.42520167  0.25919531  0.34567011  1  0  -0.038245  0  3.663934  0  0  -0.065893  0  3.916196  0  0  -0.062975  0  3.933669  0  -0.013965  0  -0.061407  -0.067691  0  3.904601  0
C  C66  1  0.42520167  0.24080440  0.84567153  1  0  -0.03819  0  3.663869  0  0  -0.065838  0  3.916115  0  0  -0.062913  0  3.933594  0  -0.014179  0  -0.061377  -0.067638  0  3.904526  0
C  C67  1  0.57479844  0.74080501  0.65432920  1  0  -0.038265  0  3.6639  0  0  -0.065888  0  3.916153  0  0  -0.062955  0  3.933632  0  -0.013986  0  -0.061387  -0.067685  0  3.904557  0
C  C68  1  0.70676349  0.74308229  0.20170585  1  0  -0.117779  0  3.725925  0  0  -0.13219  0  3.983267  0  0  -0.139399  0  4.004965  0  -0.023234  0  -0.083227  -0.127431  0  3.969072  0
C  C69  1  0.29323662  0.24308167  0.29829417  1  0  -0.117802  0  3.725938  0  0  -0.132214  0  3.983282  0  0  -0.13942  0  4.004973  0  -0.023239  0  -0.083228  -0.127443  0  3.969091  0
C  C70  1  0.29323662  0.25691803  0.79829487  1  0  -0.117779  0  3.7259  0  0  -0.1322  0  3.983247  0  0  -0.139408  0  4.004942  0  -0.023233  0  -0.083266  -0.127441  0  3.969053  0
C  C71  1  0.70676349  0.75691865  0.70170514  1  0  -0.117772  0  3.725842  0  0  -0.132203  0  3.983193  0  0  -0.139408  0  4.004879  0  -0.023226  0  -0.083291  -0.127432  0  3.969001  0
C  C72  1  0.78763075  0.84601107  0.23127286  1  0  0.156197  0  3.667935  0  0  0.123607  0  3.920451  0  0  0.131519  0  3.937781  0  0.490326  0  0.06064  0.118456  0  3.908368  0
C  C73  1  0.21237036  0.34601228  0.26872729  1  0  0.156232  0  3.668011  0  0  0.12362  0  3.920546  0  0  0.131531  0  3.937877  0  0.490316  0  0.060653  0.118467  0  3.908464  0
C  C74  1  0.21237036  0.15398925  0.76872658  1  0  0.156194  0  3.667974  0  0  0.123593  0  3.920498  0  0  0.131504  0  3.937832  0  0.490355  0  0.060647  0.11844  0  3.908419  0
C  C75  1  0.78763075  0.65398713  0.73127286  1  0  0.156178  0  3.668019  0  0  0.123573  0  3.920556  0  0  0.131484  0  3.937887  0  0.490323  0  0.060649  0.11842  0  3.908472  0
C  C76  1  0.61282348  0.97703567  0.16828471  1  0  0.129734  0  3.766342  0  0  0.122961  0  4.000446  0  0  0.127192  0  4.022202  0  0.475269  0  0.118102  0.119777  0  3.986125  0
C  C77  1  0.38717562  0.47703597  0.33171517  1  0  0.129691  0  3.766395  0  0  0.122917  0  4.000491  0  0  0.127147  0  4.022251  0  0.475293  0  0.118093  0.119734  0  3.98617  0
C  C78  1  0.38717663  0.02296465  0.83171389  1  0  0.129696  0  3.766448  0  0  0.122916  0  4.000531  0  0  0.127148  0  4.022288  0  0.475309  0  0.118095  0.119737  0  3.986211  0
C  C79  1  0.61282449  0.52296435  0.66828414  1  0  0.129726  0  3.766358  0  0  0.122958  0  4.00048  0  0  0.127189  0  4.022239  0  0.475311  0  0.1181  0.119777  0  3.986161  0
C  C80  1  0.56735178  0.10107187  0.15059125  1  0  0.13341  0  3.757676  0  0  0.1273  0  3.990732  0  0  0.131386  0  4.012573  0  0.425221  0  0.120357  0.124804  0  3.975931  0
C  C81  1  0.43264731  0.60107066  0.34940863  1  0  0.133411  0  3.757751  0  0  0.127289  0  3.990813  0  0  0.131374  0  4.012657  0  0.425207  0  0.120365  0.124793  0  3.976011  0
C  C82  1  0.43264731  0.89892845  0.84940650  1  0  0.133445  0  3.757725  0  0  0.127324  0  3.990783  0  0  0.13141  0  4.012626  0  0.425251  0  0.120388  0.124813  0  3.976002  0
C  C83  1  0.56735380  0.39892875  0.65059153  1  0  0.133426  0  3.757724  0  0  0.127318  0  3.990772  0  0  0.131403  0  4.012615  0  0.425201  0  0.120379  0.124811  0  3.975986  0
C  C84  1  0.10232872  0.02065813  0.39870049  1  0  0.518678  0  3.995675  0  0  0.480245  0  4.2765  0  0  0.506831  0  4.287031  0  1.610036  0  0.313198  0.462027  0  4.269277  0
C  C85  1  0.89767139  0.52065509  0.10130236  1  0  0.518646  0  3.995742  0  0  0.480212  0  4.27657  0  0  0.506791  0  4.287107  0  1.610175  0  0.313181  0.461992  0  4.26935  0
C  C86  1  0.89767139  0.97934401  0.60130165  1  0  0.518714  0  3.995692  0  0  0.480286  0  4.276512  0  0  0.506873  0  4.287046  0  1.610052  0  0.313219  0.462069  0  4.26929  0
C  C87  1  0.10232872  0.47934248  0.89869978  1  0  0.518706  0  3.995714  0  0  0.480273  0  4.276538  0  0  0.506852  0  4.287074  0  1.610041  0  0.313201  0.462054  0  4.269318  0
C  C88  1  0.24832168  0.94398504  0.53091756  1  0  0.467851  0  4.001863  0  0  0.437128  0  4.290294  0  0  0.460196  0  4.302162  0  1.518181  0  0.287021  0.421427  0  4.282182  0
C  C89  1  0.75167842  0.44398259  0.96908457  1  0  0.467692  0  4.001861  0  0  0.436969  0  4.290293  0  0  0.460031  0  4.302161  0  1.518165  0  0.286905  0.421268  0  4.282182  0
C  C90  1  0.75167943  0.05601802  0.46908542  1  0  0.467858  0  4.001896  0  0  0.437136  0  4.290322  0  0  0.460209  0  4.302184  0  1.518149  0  0.286976  0.421436  0  4.282211  0
C  C91  1  0.24832067  0.55601590  0.03091742  1  0  0.46783  0  4.001913  0  0  0.437109  0  4.290343  0  0  0.460172  0  4.302212  0  1.518181  0  0.287009  0.421405  0  4.282236  0
C  C92  1  0.95435896  0.32064607  0.39788905  1  0  0.524924  0  3.958261  0  0  0.484031  0  4.24382  0  0  0.510058  0  4.255339  0  1.575082  0  0.318283  0.465959  0  4.236864  0
C  C93  1  0.04563913  0.82064486  0.10211139  1  0  0.524994  0  3.958123  0  0  0.484099  0  4.243678  0  0  0.510125  0  4.255197  0  1.575132  0  0.318296  0.466027  0  4.236721  0
C  C94  1  0.04563913  0.67935699  0.60211069  1  0  0.524893  0  3.958228  0  0  0.483989  0  4.243789  0  0  0.510018  0  4.255311  0  1.575168  0  0.31824  0.46592  0  4.23683  0
C  C95  1  0.95435795  0.17935454  0.89788962  1  0  0.524924  0  3.958262  0  0  0.484021  0  4.243816  0  0  0.510049  0  4.255343  0  1.575099  0  0.318281  0.465951  0  4.23686  0
C  C96  1  0.97429639  0.34957349  0.56089404  1  0  0.521795  0  3.971301  0  0  0.48365  0  4.253398  0  0  0.509547  0  4.263778  0  1.56116  0  0.318283  0.465993  0  4.246141  0
C  C97  1  0.02570372  0.84957228  0.93910669  1  0  0.521832  0  3.971267  0  0  0.483677  0  4.253373  0  0  0.509575  0  4.263751  0  1.560642  0  0.318275  0.46602  0  4.246115  0
C  C98  1  0.02570069  0.65042774  0.43910627  1  0  0.521903  0  3.971167  0  0  0.483754  0  4.253257  0  0  0.509653  0  4.263638  0  1.560652  0  0.318299  0.466098  0  4.245998  0
C  C99  1  0.97429639  0.15042713  0.06089474  1  0  0.521823  0  3.971124  0  0  0.483664  0  4.253234  0  0  0.509562  0  4.263615  0  1.560661  0  0.318307  0.466008  0  4.245975  0
N  N100  1  0.65639594  0.19152864  0.18179941  1  0  -0.340328  0  3.297541  0  0  -0.266352  0  3.561234  0  0  -0.284529  0  3.578103  0  -1.227032  0  -0.313596  -0.254157  0  3.549643  0
N  N101  1  0.34360215  0.69152834  0.31820103  1  0  -0.340316  0  3.297472  0  0  -0.266329  0  3.561163  0  0  -0.284506  0  3.578036  0  -1.227047  0  -0.313583  -0.254133  0  3.549571  0
N  N102  1  0.34360416  0.80847077  0.81819990  1  0  -0.340298  0  3.297523  0  0  -0.26631  0  3.561207  0  0  -0.284487  0  3.57808  0  -1.227008  0  -0.313575  -0.254109  0  3.549616  0
N  N103  1  0.65639594  0.30847106  0.68179870  1  0  -0.340344  0  3.297569  0  0  -0.266366  0  3.561265  0  0  -0.284545  0  3.578137  0  -1.227009  0  -0.313612  -0.254168  0  3.549685  0
N  N104  1  0.74165172  0.95941147  0.21455162  1  0  -0.347664  0  3.293368  0  0  -0.275399  0  3.557175  0  0  -0.293347  0  3.574004  0  -1.248181  0  -0.314694  -0.262497  0  3.545141  0
N  N105  1  0.25834738  0.45941085  0.28544897  1  0  -0.347655  0  3.293483  0  0  -0.275379  0  3.557287  0  0  -0.293326  0  3.574119  0  -1.248227  0  -0.314703  -0.262478  0  3.545256  0
N  N106  1  0.25834940  0.04058794  0.78544783  1  0  -0.347627  0  3.293461  0  0  -0.275351  0  3.557259  0  0  -0.2933  0  3.574091  0  -1.248195  0  -0.314677  -0.262449  0  3.545226  0
N  N107  1  0.74165272  0.54058855  0.71455034  1  0  -0.34765  0  3.293469  0  0  -0.275376  0  3.557278  0  0  -0.293323  0  3.574108  0  -1.248223  0  -0.314697  -0.262475  0  3.545245  0
N  N108  1  0.00124767  0.03759696  0.34295610  1  0  -0.615275  0  2.928745  0  0  -0.559831  0  3.222265  0  0  -0.583103  0  3.22474  0  -1.303118  0  -0.386985  -0.543961  0  3.220628  0
N  N109  1  0.99875244  0.53759483  0.15704674  1  0  -0.615302  0  2.928817  0  0  -0.559859  0  3.222346  0  0  -0.58314  0  3.224825  0  -1.303273  0  -0.387008  -0.543988  0  3.220711  0
N  N110  1  0.99875244  0.96240427  0.65704533  1  0  -0.615335  0  2.928764  0  0  -0.559896  0  3.222291  0  0  -0.58317  0  3.224767  0  -1.303142  0  -0.387038  -0.544026  0  3.220656  0
N  N111  1  0.00124767  0.46240274  0.84295469  1  0  -0.615334  0  2.928733  0  0  -0.559897  0  3.222276  0  0  -0.583177  0  3.224755  0  -1.303112  0  -0.387016  -0.544025  0  3.220641  0
N  N112  1  0.21959109  0.00929278  0.45295142  1  0  -0.467818  0  3.307432  0  0  -0.414852  0  3.568827  0  0  -0.438618  0  3.574166  0  -1.366248  0  -0.313082  -0.398413  0  3.564761  0
N  N113  1  0.78041003  0.50929157  0.04705086  1  0  -0.467648  0  3.307402  0  0  -0.414676  0  3.568783  0  0  -0.43842  0  3.574122  0  -1.366259  0  -0.312964  -0.398234  0  3.564718  0
N  N114  1  0.78041003  0.99070845  0.54705015  1  0  -0.467791  0  3.307532  0  0  -0.414825  0  3.568928  0  0  -0.438596  0  3.574268  0  -1.366272  0  -0.313024  -0.398386  0  3.564864  0
N  N115  1  0.21959008  0.49070784  0.95294986  1  0  -0.467789  0  3.307494  0  0  -0.414825  0  3.568884  0  0  -0.438566  0  3.574219  0  -1.366265  0  -0.313033  -0.39838  0  3.564821  0
N  N116  1  0.28740275  0.88908189  0.60286600  1  0  -0.585316  0  2.700793  0  0  -0.561144  0  2.961436  0  0  -0.577254  0  2.968508  0  -1.245942  0  -0.367468  -0.550393  0  2.956927  0
N  N117  1  0.71259836  0.38907945  0.89713628  1  0  -0.585254  0  2.700745  0  0  -0.561093  0  2.96141  0  0  -0.577208  0  2.968484  0  -1.245897  0  -0.367425  -0.550342  0  2.956902  0
N  N118  1  0.71260038  0.11092208  0.39713655  1  0  -0.585327  0  2.700699  0  0  -0.561174  0  2.961375  0  0  -0.577287  0  2.968446  0  -1.24589  0  -0.367443  -0.550421  0  2.956866  0
N  N119  1  0.28740174  0.61091813  0.10286586  1  0  -0.585291  0  2.70079  0  0  -0.561123  0  2.961439  0  0  -0.577239  0  2.968518  0  -1.245924  0  -0.367464  -0.55037  0  2.956934  0
N  N120  1  0.90195702  0.29758364  0.31775309  1  0  -0.601862  0  2.837262  0  0  -0.555882  0  3.127376  0  0  -0.577627  0  3.130221  0  -1.261616  0  -0.381762  -0.54134  0  3.126352  0
N  N121  1  0.09804207  0.79758335  0.18224749  1  0  -0.601904  0  2.837166  0  0  -0.555938  0  3.127307  0  0  -0.577671  0  3.130132  0  -1.261636  0  -0.381785  -0.541397  0  3.126286  0
N  N122  1  0.09804308  0.70241759  0.68224622  1  0  -0.601788  0  2.837219  0  0  -0.555815  0  3.127352  0  0  -0.577552  0  3.130179  0  -1.261593  0  -0.381722  -0.541273  0  3.126325  0
N  N123  1  0.90195500  0.20241514  0.81775352  1  0  -0.601878  0  2.837222  0  0  -0.555908  0  3.127364  0  0  -0.57764  0  3.130181  0  -1.261619  0  -0.381771  -0.541369  0  3.126346  0
N  N124  1  0.02219674  0.34733368  0.48236800  1  0  -0.462353  0  3.283322  0  0  -0.407491  0  3.543066  0  0  -0.431479  0  3.547429  0  -1.343837  0  -0.30313  -0.390971  0  3.539991  0
N  N125  1  0.97780236  0.84733247  0.01763258  1  0  -0.46242  0  3.283286  0  0  -0.407539  0  3.543018  0  0  -0.431539  0  3.547399  0  -1.343378  0  -0.303133  -0.39102  0  3.539943  0
N  N126  1  0.97779933  0.65266938  0.51763216  1  0  -0.462476  0  3.283232  0  0  -0.407599  0  3.542976  0  0  -0.431593  0  3.54734  0  -1.343457  0  -0.303187  -0.391079  0  3.539902  0
N  N127  1  0.02219775  0.15266785  0.98236814  1  0  -0.462384  0  3.283159  0  0  -0.407503  0  3.542891  0  0  -0.431498  0  3.547261  0  -1.343336  0  -0.303176  -0.390984  0  3.539816  0
N  N128  1  0.94367967  0.35381368  0.63702077  1  0  -0.584671  0  2.868514  0  0  -0.534671  0  3.160888  0  0  -0.555644  0  3.161715  0  -1.261546  0  -0.375195  -0.520864  0  3.160477  0
N  N129  1  0.05632043  0.85381338  0.86297995  1  0  -0.584662  0  2.868483  0  0  -0.534663  0  3.160858  0  0  -0.555636  0  3.16169  0  -1.261492  0  -0.375168  -0.520857  0  3.160447  0
N  N130  1  0.05631842  0.64618481  0.36297967  1  0  -0.58467  0  2.868432  0  0  -0.534678  0  3.160826  0  0  -0.55564  0  3.161634  0  -1.261482  0  -0.375141  -0.52087  0  3.160413  0
N  N131  1  0.94368068  0.14618602  0.13702162  1  0  -0.584634  0  2.868486  0  0  -0.534631  0  3.160861  0  0  -0.555601  0  3.161691  0  -1.261608  0  -0.375161  -0.520825  0  3.160449  0
