# generated using pymatgen
data_ZnH20C30N3O4
_symmetry_space_group_name_H-M   'P 1'
_cell_length_a   10.37223439
_cell_length_b   12.68756911
_cell_length_c   12.90585616
_cell_angle_alpha   62.93122588
_cell_angle_beta   87.98926320
_cell_angle_gamma   71.61245466
_symmetry_Int_Tables_number   1
_chemical_formula_structural   ZnH20C30N3O4
_chemical_formula_sum   'Zn2 H40 C60 N6 O8'
_cell_volume   1423.26602160
_cell_formula_units_Z   2
loop_
 _symmetry_equiv_pos_site_id
 _symmetry_equiv_pos_as_xyz
  1  'x, y, z'
loop_
 _atom_site_type_symbol
 _atom_site_label
 _atom_site_symmetry_multiplicity
 _atom_site_fract_x
 _atom_site_fract_y
 _atom_site_fract_z
 _atom_site_occupancy
 _atom_site_pbe_bader_charge
 _atom_site_pbe_bader_spin_density
 _atom_site_pbe_cm5_charge
 _atom_site_pbe_ddec_charge
 _atom_site_pbe_ddec_spin_density
 _atom_site_pbe_ddec_sum_bond_order
 _atom_site_pbe_magmom
Zn  Zn0  1  0.40647681  0.44683537  0.90719756  1  1.312841  0  0.68217  0.816751  0  2.328703  0
Zn  Zn1  1  0.59351686  0.55317338  0.09278913  1  1.312902  0  0.682176  0.816896  0  2.328618  0
H  H2  1  0.68726805  0.58518075  0.41235275  1  0.078491  0  0.104518  0.114598  0  0.995393  0
H  H3  1  0.31272961  0.41481516  0.58765174  1  0.078517  0  0.10453  0.114673  0  0.995437  0
H  H4  1  0.13129211  0.50100336  0.98873078  1  0.11142  0  0.118464  0.090953  0  1.024942  0
H  H5  1  0.86872747  0.49899573  0.01128442  1  0.111204  0  0.118467  0.090862  0  1.025086  0
H  H6  1  0.63450255  0.58261901  0.63185881  1  0.090847  0  0.103878  0.11257  0  0.999706  0
H  H7  1  0.36551983  0.41735175  0.36815586  1  0.09045  0  0.103866  0.11265  0  0.999674  0
H  H8  1  0.95116586  0.67401459  0.00740641  1  0.157129  0  0.109637  0.131674  0  1.052064  0
H  H9  1  0.04885718  0.32598317  0.99261140  1  0.156991  0  0.109617  0.131648  0  1.05211  0
H  H10  1  0.80503611  0.68687612  0.85517294  1  0.066284  0  0.101263  0.106801  0  1.029973  0
H  H11  1  0.19498675  0.31309118  0.14484845  1  0.065904  0  0.101214  0.106704  0  1.030092  0
H  H12  1  0.99190983  0.72523040  0.73040154  1  0.082134  0  0.100098  0.110697  0  1.032845  0
H  H13  1  0.00808975  0.27477118  0.26959916  1  0.082184  0  0.100079  0.110671  0  1.032804  0
H  H14  1  0.36219400  0.72693962  0.81713981  1  0.10576  0  0.117422  0.092391  0  1.017719  0
H  H15  1  0.63781388  0.27306566  0.18285664  1  0.105596  0  0.117436  0.092432  0  1.017733  0
H  H16  1  0.80959049  0.84041540  0.01132812  1  0.158846  0  0.107456  0.121136  0  1.035731  0
H  H17  1  0.19040845  0.15957899  0.98867375  1  0.158894  0  0.107427  0.121095  0  1.035654  0
H  H18  1  0.98363546  0.00510418  0.87278535  1  0.071184  0  0.100172  0.093327  0  1.023025  0
H  H19  1  0.01635278  0.99490303  0.12721629  1  0.071206  0  0.100173  0.093292  0  1.023038  0
H  H20  1  0.98873043  0.66776755  0.17892473  1  0.052176  0  0.09817  0.097768  0  1.037708  0
H  H21  1  0.01126971  0.33222652  0.82107952  1  0.052123  0  0.098191  0.097741  0  1.037746  0
H  H22  1  0.46347988  0.16019843  0.07008971  1  0.129263  0  0.123214  0.103842  0  0.977021  0
H  H23  1  0.53649961  0.83982734  0.92989231  1  0.129289  0  0.123222  0.103792  0  0.977122  0
H  H24  1  0.18938824  0.91328137  0.82069602  1  0.074622  0  0.106286  0.110738  0  1.007539  0
H  H25  1  0.81061677  0.08672569  0.17929371  1  0.074731  0  0.106303  0.110773  0  1.007558  0
H  H26  1  0.18430601  0.68348345  0.60308577  1  0.113598  0  0.114148  0.110956  0  0.982994  0
H  H27  1  0.81569708  0.31651345  0.39690086  1  0.113528  0  0.114163  0.110993  0  0.982846  0
H  H28  1  0.16871396  0.74603794  0.44936446  1  0.061715  0  0.116541  0.102261  0  0.964938  0
H  H29  1  0.83127753  0.25397172  0.55062281  1  0.061515  0  0.116537  0.102302  0  0.964978  0
H  H30  1  0.10874062  0.70678880  0.31418878  1  0.051119  0  0.095788  0.098765  0  1.046806  0
H  H31  1  0.89125620  0.29320981  0.68581554  1  0.05101  0  0.095751  0.098738  0  1.046854  0
H  H32  1  0.62655356  0.95401551  0.09287595  1  0.099689  0  0.110287  0.122227  0  0.992823  0
H  H33  1  0.37341167  0.04600229  0.90711851  1  0.099732  0  0.110277  0.122207  0  0.992924  0
H  H34  1  0.86059465  0.92600105  0.41311068  1  0.037864  0  0.101325  0.100711  0  1.010905  0
H  H35  1  0.13940530  0.07399261  0.58690465  1  0.037926  0  0.101362  0.100671  0  1.011091  0
H  H36  1  0.23307561  0.86022351  0.60460159  1  0.062934  0  0.101109  0.103229  0  1.003655  0
H  H37  1  0.76692447  0.13977228  0.39541059  1  0.063005  0  0.101149  0.103315  0  1.003607  0
H  H38  1  0.65139109  0.36265386  0.80087021  1  0.150944  0  0.119145  0.096797  0  1.013955  0
H  H39  1  0.34860510  0.63734283  0.19911303  1  0.151141  0  0.119083  0.096648  0  1.01387  0
H  H40  1  0.81995006  0.16769873  0.80950330  1  0.060697  0  0.101356  0.10153  0  1.047899  0
H  H41  1  0.18003424  0.83229059  0.19048656  1  0.060782  0  0.10143  0.101657  0  1.047705  0
C  C42  1  0.81177816  0.64122930  0.57720325  1  -0.015953  0  -0.019901  -0.022374  0  4.049181  0
C  C43  1  0.18822964  0.35876183  0.42280083  1  -0.016183  0  -0.0199  -0.022274  0  4.049384  0
C  C44  1  0.77713713  0.61448580  0.39167490  1  -0.008942  0  -0.084196  -0.119619  0  3.956833  0
C  C45  1  0.22286368  0.38551258  0.60833004  1  -0.009102  0  -0.084237  -0.119858  0  3.957031  0
C  C46  1  0.13985614  0.59400901  0.95444268  1  0.461418  0  0.046171  0.096626  0  3.938213  0
C  C47  1  0.86015220  0.40599963  0.04556263  1  0.462125  0  0.04624  0.09669  0  3.938269  0
C  C48  1  0.71256137  0.61421451  0.65127530  1  -0.042611  0  -0.084765  -0.120923  0  3.964755  0
C  C49  1  0.28745413  0.38576850  0.34873524  1  -0.043552  0  -0.084734  -0.121003  0  3.9646  0
C  C50  1  0.71235052  0.62956496  0.75222467  1  0.011888  0  -0.038673  -0.076318  0  4.024085  0
C  C51  1  0.28766527  0.37041603  0.24778035  1  0.013291  0  -0.038638  -0.076282  0  4.02411  0
C  C52  1  0.61013242  0.59813875  0.83541268  1  1.558737  0  0.207089  0.580253  0  4.215331  0
C  C53  1  0.38986173  0.40186205  0.16457384  1  1.559126  0  0.206963  0.580084  0  4.215319  0
C  C54  1  0.04002740  0.69108447  0.96349857  1  -0.041693  0  -0.079171  -0.174533  0  3.887049  0
C  C55  1  0.95998734  0.30891934  0.03650814  1  -0.041383  0  -0.079102  -0.174197  0  3.886582  0
C  C56  1  0.81133175  0.67224202  0.77800299  1  -0.054955  0  -0.091413  -0.092738  0  3.994993  0
C  C57  1  0.18867534  0.32774311  0.22200727  1  -0.054597  0  -0.09134  -0.092547  0  3.995191  0
C  C58  1  0.05505967  0.81034819  0.91474050  1  -0.018445  0  0.004897  0.144369  0  4.02443  0
C  C59  1  0.94495145  0.18965714  0.08526198  1  -0.018581  0  0.004825  0.144103  0  4.024638  0
C  C60  1  0.91454547  0.67791177  0.60864251  1  0.355749  0  0.098793  0.137394  0  4.010795  0
C  C61  1  0.08545830  0.32209161  0.39135647  1  0.356168  0  0.098769  0.136855  0  4.011497  0
C  C62  1  0.83976437  0.64096788  0.46654001  1  -0.009742  0  -0.022491  -0.025082  0  4.051302  0
C  C63  1  0.16023974  0.35902883  0.53346300  1  -0.009546  0  -0.022489  -0.025011  0  4.051097  0
C  C64  1  0.76162857  0.60231245  0.20390755  1  1.528582  0  0.186567  0.552968  0  4.236642  0
C  C65  1  0.23837641  0.39769060  0.79609382  1  1.528511  0  0.186339  0.552647  0  4.237288  0
C  C66  1  0.91475579  0.69458056  0.70846106  1  -0.023157  0  -0.102392  -0.173406  0  4.002724  0
C  C67  1  0.08524552  0.30541891  0.29154187  1  -0.02345  0  -0.102367  -0.173246  0  4.003017  0
C  C68  1  0.95900446  0.67634623  0.43691563  1  0.317751  0  0.097666  0.131811  0  4.038293  0
C  C69  1  0.04098869  0.32365113  0.56308549  1  0.317785  0  0.097639  0.131798  0  4.03822  0
C  C70  1  0.82995744  0.62655510  0.28691183  1  -0.011114  0  -0.033725  -0.061704  0  4.009533  0
C  C71  1  0.17004008  0.37343814  0.71309289  1  -0.010723  0  -0.033804  -0.061604  0  4.009505  0
C  C72  1  0.26851671  0.72045132  0.85621980  1  0.448472  0  0.045337  0.090752  0  3.962857  0
C  C73  1  0.73148959  0.27955640  0.14377896  1  0.448563  0  0.045391  0.09084  0  3.963104  0
C  C74  1  0.83682836  0.92561109  0.96327316  1  -0.055033  0  -0.07977  -0.120651  0  3.911168  0
C  C75  1  0.16316275  0.07438985  0.03672831  1  -0.05531  0  -0.079771  -0.120679  0  3.911149  0
C  C76  1  0.95571487  0.92004182  0.91581871  1  -0.062485  0  -0.080263  -0.114041  0  3.959897  0
C  C77  1  0.04427983  0.07996387  0.08418622  1  -0.062449  0  -0.080242  -0.113886  0  3.960101  0
C  C78  1  0.94764380  0.66211645  0.25937152  1  0.007308  0  -0.093037  -0.089915  0  4.008215  0
C  C79  1  0.05235943  0.33787445  0.74063605  1  0.007068  0  -0.092981  -0.08973  0  4.008196  0
C  C80  1  0.05402598  0.87885140  0.50903056  1  -0.088252  0  -0.016579  0.076975  0  3.991611  0
C  C81  1  0.94597368  0.12115062  0.49097387  1  -0.088518  0  -0.01655  0.077104  0  3.991129  0
C  C82  1  0.73997136  0.04254460  0.95390749  1  0.002716  0  0.006558  0.148326  0  4.022527  0
C  C83  1  0.26001616  0.95745159  0.04609052  1  0.003872  0  0.006587  0.148388  0  4.02286  0
C  C84  1  0.54504449  0.15637167  0.01482339  1  0.492748  0  0.049857  0.095135  0  3.938535  0
C  C85  1  0.45493446  0.84364163  0.98516721  1  0.493092  0  0.049812  0.095128  0  3.939127  0
C  C86  1  0.17266341  0.82311298  0.85991003  1  -0.030091  0  -0.084592  -0.178994  0  3.95603  0
C  C87  1  0.82733793  0.17689787  0.14008632  1  -0.030095  0  -0.084577  -0.178997  0  3.956272  0
C  C88  1  0.11122969  0.74703221  0.52235657  1  0.325538  0  -0.042165  -0.096188  0  3.906612  0
C  C89  1  0.88877388  0.25296627  0.47764660  1  0.325806  0  -0.042214  -0.096377  0  3.906689  0
C  C90  1  0.01423461  0.68559438  0.33407527  1  -0.054283  0  -0.11  -0.197212  0  4.052465  0
C  C91  1  0.98576815  0.31440053  0.66592850  1  -0.054101  0  -0.109976  -0.197296  0  4.052631  0
C  C92  1  0.63587752  0.04260156  0.02689239  1  -0.060125  0  -0.081508  -0.185803  0  3.934696  0
C  C93  1  0.36410071  0.95740860  0.97310254  1  -0.061546  0  -0.081474  -0.185743  0  3.935256  0
C  C94  1  0.92246704  0.95849729  0.45086559  1  0.005822  0  -0.095222  -0.13081  0  4.006715  0
C  C95  1  0.07754033  0.04149768  0.54915113  1  0.053451  0  -0.095304  -0.13086  0  4.006354  0
C  C96  1  0.13083548  0.92177484  0.55804632  1  -0.089136  0  -0.094863  -0.134875  0  4.009883  0
C  C97  1  0.86916319  0.07821925  0.44196581  1  -0.042157  0  -0.094945  -0.135131  0  4.00996  0
C  C98  1  0.65019700  0.26968583  0.86394618  1  0.465846  0  0.045061  0.093388  0  3.946279  0
C  C99  1  0.34979133  0.73032314  0.13603297  1  0.466474  0  0.045136  0.093726  0  3.946199  0
C  C100  1  0.74412090  0.16080639  0.87051321  1  -0.097066  0  -0.08558  -0.179165  0  3.949319  0
C  C101  1  0.25586278  0.83918820  0.12947705  1  -0.097551  0  -0.08564  -0.17946  0  3.949523  0
N  N102  1  0.25303708  0.60722406  0.90249642  1  -1.219328  0  -0.320986  -0.230169  0  3.53015  0
N  N103  1  0.74697352  0.39278017  0.09750806  1  -1.220037  0  -0.321131  -0.230441  0  3.530568  0
N  N104  1  0.55179918  0.26842278  0.93511954  1  -1.218099  0  -0.315145  -0.218815  0  3.506638  0
N  N105  1  0.44819101  0.73159017  0.06486269  1  -1.218495  0  -0.315178  -0.218925  0  3.506857  0
N  N106  1  0.00345393  0.69609510  0.52454114  1  -1.214983  0  -0.251897  -0.064026  0  3.712293  0
N  N107  1  0.99654030  0.30391118  0.47545892  1  -1.215028  0  -0.25187  -0.06375  0  3.712273  0
O  O108  1  0.54355586  0.53392567  0.82401504  1  -1.192001  0  -0.320589  -0.556318  0  2.380974  0
O  O109  1  0.45640394  0.46611194  0.17594039  1  -1.192046  0  -0.320602  -0.556273  0  2.380991  0
O  O110  1  0.59567459  0.63760624  0.91145631  1  -1.197863  0  -0.325588  -0.585185  0  2.409406  0
O  O111  1  0.40433280  0.36237293  0.08854447  1  -1.198153  0  -0.325503  -0.585098  0  2.409217  0
O  O112  1  0.68294161  0.53563664  0.24498859  1  -1.157097  0  -0.335921  -0.563586  0  2.251213  0
O  O113  1  0.31703432  0.46438259  0.75499764  1  -1.157329  0  -0.335784  -0.563393  0  2.251514  0
O  O114  1  0.78004644  0.64923784  0.09651551  1  -1.196871  0  -0.329986  -0.575251  0  2.178555  0
O  O115  1  0.21998453  0.35075280  0.90348496  1  -1.196837  0  -0.329824  -0.575084  0  2.178895  0
