# generated using pymatgen
data_HgH6C6NCl2O
_symmetry_space_group_name_H-M   'P 1'
_cell_length_a   7.01064963
_cell_length_b   7.38911426
_cell_length_c   9.41106587
_cell_angle_alpha   105.54385946
_cell_angle_beta   95.08503585
_cell_angle_gamma   114.72924752
_symmetry_Int_Tables_number   1
_chemical_formula_structural   HgH6C6NCl2O
_chemical_formula_sum   'Hg2 H12 C12 N2 Cl4 O2'
_cell_volume   415.23714214
_cell_formula_units_Z   2
loop_
 _symmetry_equiv_pos_site_id
 _symmetry_equiv_pos_as_xyz
  1  'x, y, z'
loop_
 _atom_site_type_symbol
 _atom_site_label
 _atom_site_symmetry_multiplicity
 _atom_site_fract_x
 _atom_site_fract_y
 _atom_site_fract_z
 _atom_site_occupancy
 _atom_site_hle17_bader_spin_density
 _atom_site_hle17_ddec_charge
 _atom_site_hle17_ddec_spin_density
 _atom_site_hle17_ddec_sum_bond_order
 _atom_site_hle17_magmom
 _atom_site_hse06_10hf_bader_spin_density
 _atom_site_hse06_10hf_ddec_charge
 _atom_site_hse06_10hf_ddec_spin_density
 _atom_site_hse06_10hf_ddec_sum_bond_order
 _atom_site_hse06_10hf_magmom
 _atom_site_hse06_bader_spin_density
 _atom_site_hse06_ddec_charge
 _atom_site_hse06_ddec_spin_density
 _atom_site_hse06_ddec_sum_bond_order
 _atom_site_hse06_magmom
 _atom_site_pbe_bader_spin_density
 _atom_site_pbe_cm5_charge
 _atom_site_pbe_ddec_charge
 _atom_site_pbe_ddec_spin_density
 _atom_site_pbe_ddec_sum_bond_order
 _atom_site_pbe_magmom
Hg  Hg0  1  0.75596438  0.21095730  0.47177445  1  0  0.860267  0  2.240499  0  0  0.742105  0  2.739316  0  0  0.785402  0  2.706307  0  0  0.610881  0.711446  0  2.761561  0
Hg  Hg1  1  0.24397487  0.78901030  0.52822477  1  0  0.860162  0  2.240154  0  0  0.742064  0  2.738928  0  0  0.785328  0  2.705926  0  0  0.610789  0.711325  0  2.761087  0
H  H2  1  0.74263547  0.61607590  0.67381943  1  0  0.094562  0  0.968171  0  0  0.101244  0  1.037153  0  0  0.104282  0  1.033926  0  0  0.10648  0.098948  0  1.039477  0
H  H3  1  0.25739667  0.38392788  0.32617971  1  0  0.094567  0  0.967945  0  0  0.101314  0  1.03692  0  0  0.104333  0  1.033727  0  0  0.106516  0.099023  0  1.039208  0
H  H4  1  0.75225206  0.78731604  0.94803853  1  0  0.101444  0  0.975688  0  0  0.111408  0  1.038039  0  0  0.114069  0  1.037606  0  0  0.0971  0.109084  0  1.03918  0
H  H5  1  0.24783799  0.21272264  0.05195741  1  0  0.101444  0  0.975517  0  0  0.11135  0  1.037947  0  0  0.114083  0  1.037432  0  0  0.09711  0.109031  0  1.039065  0
H  H6  1  0.74876720  0.59210184  0.12936073  1  0  0.100344  0  0.966766  0  0  0.106266  0  1.035523  0  0  0.109297  0  1.033317  0  0  0.094277  0.103929  0  1.037172  0
H  H7  1  0.25128531  0.40794466  0.87065523  1  0  0.100499  0  0.967092  0  0  0.106398  0  1.035831  0  0  0.109448  0  1.033568  0  0  0.094345  0.104064  0  1.037479  0
H  H8  1  0.72649470  0.23172708  0.03153305  1  0  0.10987  0  0.968565  0  0  0.115164  0  1.039793  0  0  0.118752  0  1.038265  0  0  0.094992  0.112588  0  1.040986  0
H  H9  1  0.27350284  0.76828152  0.96848453  1  0  0.109833  0  0.968931  0  0  0.115103  0  1.040148  0  0  0.118691  0  1.038622  0  0  0.094951  0.11253  0  1.041333  0
H  H10  1  0.88640517  0.04702282  0.74833504  1  0  0.105177  0  0.914854  0  0  0.115832  0  0.986148  0  0  0.119037  0  0.984317  0  0  0.106943  0.113289  0  0.987853  0
H  H11  1  0.11355884  0.95296734  0.25168954  1  0  0.105296  0  0.914524  0  0  0.115866  0  0.985997  0  0  0.119089  0  0.984163  0  0  0.106975  0.113293  0  0.987846  0
H  H12  1  0.64987884  0.93228295  0.81702469  1  0  0.064328  0  0.937742  0  0  0.079191  0  1.001381  0  0  0.080745  0  0.999943  0  0  0.096413  0.079029  0  1.001782  0
H  H13  1  0.35008913  0.06772469  0.18297312  1  0  0.064283  0  0.937676  0  0  0.079122  0  1.001395  0  0  0.080681  0  0.999972  0  0  0.096355  0.078965  0  1.001825  0
C  C14  1  0.73843522  0.53910751  0.75826274  1  0  0.146025  0  3.659833  0  0  0.104026  0  3.917725  0  0  0.113529  0  3.93387  0  0  0.051057  0.097865  0  3.906859  0
C  C15  1  0.26158496  0.46088663  0.24171348  1  0  0.146049  0  3.660148  0  0  0.104008  0  3.918  0  0  0.113516  0  3.934153  0  0  0.051068  0.097845  0  3.907065  0
C  C16  1  0.74385478  0.63098456  0.90920920  1  0  -0.111812  0  3.710104  0  0  -0.128182  0  3.966408  0  0  -0.135968  0  3.987604  0  0  -0.083354  -0.122721  0  3.951976  0
C  C17  1  0.25620514  0.36904980  0.09079915  1  0  -0.1119  0  3.71047  0  0  -0.128227  0  3.966867  0  0  -0.136077  0  3.988028  0  0  -0.083484  -0.122769  0  3.952414  0
C  C18  1  0.74269328  0.52256095  0.00997544  1  0  0.00658  0  3.70797  0  0  -0.009202  0  3.955786  0  0  -0.004879  0  3.974043  0  0  -0.066941  -0.011765  0  3.942824  0
C  C19  1  0.25734053  0.47744458  0.99000504  1  0  0.006542  0  3.707637  0  0  -0.009247  0  3.955408  0  0  -0.004915  0  3.973678  0  0  -0.066896  -0.01181  0  3.942451  0
C  C20  1  0.73242899  0.32331705  0.95677711  1  0  -0.137213  0  3.6818  0  0  -0.157764  0  3.932825  0  0  -0.165589  0  3.953638  0  0  -0.080849  -0.152655  0  3.918522  0
C  C21  1  0.26757149  0.67669959  0.04322114  1  0  -0.137401  0  3.681922  0  0  -0.157838  0  3.932827  0  0  -0.165673  0  3.953638  0  0  -0.080908  -0.152733  0  3.918536  0
C  C22  1  0.72815026  0.23880323  0.80397459  1  0  0.217571  0  3.719976  0  0  0.210577  0  3.967789  0  0  0.218684  0  3.989238  0  0  0.116322  0.205433  0  3.953084  0
C  C23  1  0.27184115  0.76118357  0.19600706  1  0  0.217865  0  3.720048  0  0  0.210855  0  3.967878  0  0  0.218977  0  3.989318  0  0  0.116375  0.205699  0  3.95317  0
C  C24  1  0.71570042  0.02088444  0.74038987  1  0  0.017132  0  3.796638  0  0  -0.038414  0  4.064291  0  0  -0.033298  0  4.071441  0  0  -0.083244  -0.04263  0  4.059155  0
C  C25  1  0.28429270  0.97909752  0.25962586  1  0  0.016737  0  3.79626  0  0  -0.038906  0  4.064211  0  0  -0.033822  0  4.071405  0  0  -0.083289  -0.043079  0  4.059354  0
N  N26  1  0.73429779  0.34885965  0.71126306  1  0  -0.272015  0  3.301002  0  0  -0.181322  0  3.544355  0  0  -0.201731  0  3.566554  0  0  -0.289664  -0.16862  0  3.529781  0
N  N27  1  0.26568607  0.65111901  0.28872810  1  0  -0.272181  0  3.3006  0  0  -0.181423  0  3.544037  0  0  -0.201872  0  3.566244  0  0  -0.289767  -0.168714  0  3.529397  0
Cl  Cl28  1  0.78973974  0.04353033  0.22284254  1  0  -0.4187  0  0.988445  0  0  -0.370353  0  1.259397  0  0  -0.383398  0  1.244701  0  0  -0.217304  -0.361642  0  1.270183  0
Cl  Cl29  1  0.21022913  0.95644615  0.77715801  1  0  -0.4188  0  0.988495  0  0  -0.370328  0  1.25939  0  0  -0.383439  0  1.244715  0  0  -0.21736  -0.361652  0  1.270114  0
Cl  Cl30  1  0.83153552  0.60998719  0.41428842  1  0  -0.440376  0  0.902047  0  0  -0.411612  0  1.169612  0  0  -0.432259  0  1.154765  0  0  -0.248882  -0.396409  0  1.178962  0
Cl  Cl31  1  0.16837416  0.38996396  0.58567486  1  0  -0.44019  0  0.902151  0  0  -0.411555  0  1.169751  0  0  -0.43214  0  1.154906  0  0  -0.248709  -0.396313  0  1.179156  0
O  O32  1  0.60988302  0.90957573  0.59065306  1  0  -0.443191  0  1.932734  0  0  -0.388936  0  2.204726  0  0  -0.406681  0  2.200349  0  0  -0.304234  -0.375154  0  2.206778  0
O  O33  1  0.39011803  0.09042355  0.40937859  1  0  -0.442797  0  1.932395  0  0  -0.388585  0  2.204398  0  0  -0.406201  0  2.199979  0  0  -0.304065  -0.374721  0  2.206566  0
