# generated using pymatgen
data_HgH14C16(SN3)2
_symmetry_space_group_name_H-M   'P 1'
_cell_length_a   6.89859496
_cell_length_b   10.93457265
_cell_length_c   13.36419261
_cell_angle_alpha   93.07363906
_cell_angle_beta   104.95685022
_cell_angle_gamma   108.39751707
_symmetry_Int_Tables_number   1
_chemical_formula_structural   HgH14C16(SN3)2
_chemical_formula_sum   'Hg2 H28 C32 S4 N12'
_cell_volume   914.08386057
_cell_formula_units_Z   2
loop_
 _symmetry_equiv_pos_site_id
 _symmetry_equiv_pos_as_xyz
  1  'x, y, z'
loop_
 _atom_site_type_symbol
 _atom_site_label
 _atom_site_symmetry_multiplicity
 _atom_site_fract_x
 _atom_site_fract_y
 _atom_site_fract_z
 _atom_site_occupancy
 _atom_site_hle17_bader_spin_density
 _atom_site_hle17_ddec_charge
 _atom_site_hle17_ddec_spin_density
 _atom_site_hle17_ddec_sum_bond_order
 _atom_site_hle17_magmom
 _atom_site_hse06_10hf_bader_spin_density
 _atom_site_hse06_10hf_ddec_charge
 _atom_site_hse06_10hf_ddec_spin_density
 _atom_site_hse06_10hf_ddec_sum_bond_order
 _atom_site_hse06_10hf_magmom
 _atom_site_hse06_bader_spin_density
 _atom_site_hse06_ddec_charge
 _atom_site_hse06_ddec_spin_density
 _atom_site_hse06_ddec_sum_bond_order
 _atom_site_hse06_magmom
 _atom_site_pbe_bader_spin_density
 _atom_site_pbe_cm5_charge
 _atom_site_pbe_ddec_charge
 _atom_site_pbe_ddec_spin_density
 _atom_site_pbe_ddec_sum_bond_order
 _atom_site_pbe_magmom
Hg  Hg0  1  0.46171532  0.75002163  0.75006683  1  0  0.58749  0  2.063288  0  0  0.425481  0  2.546456  0  0  0.46757  0  2.523585  0  0  0.515754  0.397183  0  2.561252  0
Hg  Hg1  1  0.53828429  0.24998125  0.24993464  1  0  0.587487  0  2.063354  0  0  0.425476  0  2.546512  0  0  0.467564  0  2.523644  0  0  0.515768  0.39718  0  2.561297  0
H  H2  1  0.09229772  0.75272564  0.55508447  1  0  0.071165  0  0.969031  0  0  0.074993  0  1.043911  0  0  0.076842  0  1.043001  0  0  0.104427  0.07364  0  1.044651  0
H  H3  1  0.28435662  0.74727655  0.94498195  1  0  0.071005  0  0.968773  0  0  0.074787  0  1.043823  0  0  0.076619  0  1.042873  0  0  0.103929  0.073469  0  1.044502  0
H  H4  1  0.90770288  0.24727337  0.44491517  1  0  0.071177  0  0.968939  0  0  0.074981  0  1.043852  0  0  0.076846  0  1.042929  0  0  0.104421  0.073629  0  1.044586  0
H  H5  1  0.71563650  0.25272440  0.05501835  1  0  0.071046  0  0.968705  0  0  0.074825  0  1.043765  0  0  0.076657  0  1.042817  0  0  0.103925  0.073517  0  1.044437  0
H  H6  1  0.79868718  0.84009701  0.49329630  1  0  0.118447  0  0.95933  0  0  0.121866  0  1.030024  0  0  0.126057  0  1.027014  0  0  0.10771  0.1189  0  1.032255  0
H  H7  1  0.96509403  0.65968352  0.00673774  1  0  0.118149  0  0.959404  0  0  0.121622  0  1.029978  0  0  0.125743  0  1.027068  0  0  0.108056  0.118659  0  1.032159  0
H  H8  1  0.20131583  0.15990395  0.50670339  1  0  0.11847  0  0.959322  0  0  0.121911  0  1.029978  0  0  0.12608  0  1.026985  0  0  0.107722  0.118937  0  1.032234  0
H  H9  1  0.03490264  0.34031155  0.99326423  1  0  0.1181  0  0.959384  0  0  0.121551  0  1.029987  0  0  0.125672  0  1.027075  0  0  0.108056  0.11858  0  1.032167  0
H  H10  1  0.05141521  0.10257793  0.78626471  1  0  0.112581  0  0.959748  0  0  0.125403  0  1.015485  0  0  0.127611  0  1.016353  0  0  0.111289  0.123854  0  1.014996  0
H  H11  1  0.66230332  0.39750543  0.71362803  1  0  0.112099  0  0.958878  0  0  0.124816  0  1.015037  0  0  0.127034  0  1.015908  0  0  0.111064  0.123258  0  1.014574  0
H  H12  1  0.94859617  0.89742498  0.21373501  1  0  0.112557  0  0.959737  0  0  0.125412  0  1.015443  0  0  0.127607  0  1.016328  0  0  0.11129  0.123863  0  1.014946  0
H  H13  1  0.33769502  0.60249160  0.28637325  1  0  0.112093  0  0.958894  0  0  0.124805  0  1.015047  0  0  0.127021  0  1.01592  0  0  0.111067  0.12325  0  1.014584  0
H  H14  1  0.33534962  0.00446979  0.83658550  1  0  0.076061  0  0.95811  0  0  0.08443  0  1.022834  0  0  0.08586  0  1.022146  0  0  0.111733  0.08334  0  1.023405  0
H  H15  1  0.99417865  0.49574849  0.66335701  1  0  0.076181  0  0.957394  0  0  0.084319  0  1.022264  0  0  0.085813  0  1.021507  0  0  0.111183  0.083207  0  1.022905  0
H  H16  1  0.66465678  0.99552924  0.16341242  1  0  0.076084  0  0.958073  0  0  0.084464  0  1.022787  0  0  0.0859  0  1.022082  0  0  0.111732  0.08337  0  1.023364  0
H  H17  1  0.00581502  0.50425343  0.33664342  1  0  0.07614  0  0.957385  0  0  0.084307  0  1.022239  0  0  0.085797  0  1.021487  0  0  0.111147  0.083193  0  1.022878  0
H  H18  1  0.63807041  0.20587091  0.60908521  1  0  0.125789  0  0.975399  0  0  0.137958  0  1.04751  0  0  0.141332  0  1.044709  0  0  0.090805  0.135471  0  1.049581  0
H  H19  1  0.32277672  0.29410894  0.89090536  1  0  0.124122  0  0.977623  0  0  0.136866  0  1.049335  0  0  0.140276  0  1.046481  0  0  0.090057  0.134457  0  1.051185  0
H  H20  1  0.36193947  0.79412905  0.39091583  1  0  0.125749  0  0.9754  0  0  0.137923  0  1.047509  0  0  0.141296  0  1.044716  0  0  0.090791  0.135432  0  1.049587  0
H  H21  1  0.67721692  0.70588035  0.10909153  1  0  0.124143  0  0.977596  0  0  0.136883  0  1.049313  0  0  0.140295  0  1.046457  0  0  0.090086  0.134478  0  1.051154  0
H  H22  1  0.92193529  0.24136201  0.65043778  1  0  0.132976  0  0.95758  0  0  0.151758  0  1.02317  0  0  0.15314  0  1.022872  0  0  0.095202  0.15075  0  1.023436  0
H  H23  1  0.52977940  0.25860560  0.84953303  1  0  0.132709  0  0.957897  0  0  0.151427  0  1.023541  0  0  0.152762  0  1.023279  0  0  0.095339  0.150527  0  1.023598  0
H  H24  1  0.07806790  0.75863796  0.34956254  1  0  0.133013  0  0.957546  0  0  0.151788  0  1.023139  0  0  0.153171  0  1.022845  0  0  0.095206  0.150779  0  1.023406  0
H  H25  1  0.47021737  0.74138563  0.15046467  1  0  0.132669  0  0.957766  0  0  0.151378  0  1.02344  0  0  0.152714  0  1.023173  0  0  0.09533  0.150474  0  1.023504  0
H  H26  1  0.76595911  0.16822882  0.73212411  1  0  0.134807  0  0.970556  0  0  0.154476  0  1.033657  0  0  0.155719  0  1.033738  0  0  0.095569  0.153572  0  1.033555  0
H  H27  1  0.36532803  0.33177322  0.76784864  1  0  0.134608  0  0.970136  0  0  0.154372  0  1.033316  0  0  0.155646  0  1.033352  0  0  0.095396  0.153268  0  1.033504  0
H  H28  1  0.23404840  0.83177217  0.26787406  1  0  0.134773  0  0.970537  0  0  0.154465  0  1.033614  0  0  0.155708  0  1.033699  0  0  0.095537  0.153561  0  1.033508  0
H  H29  1  0.63466781  0.66821997  0.23214875  1  0  0.134652  0  0.970074  0  0  0.154402  0  1.033256  0  0  0.155674  0  1.033295  0  0  0.095419  0.153299  0  1.033441  0
C  C30  1  0.07865397  0.83094745  0.60400294  1  0  0.121352  0  3.709104  0  0  0.091462  0  3.96118  0  0  0.097787  0  3.980662  0  0  0.037754  0.087308  0  3.947938  0
C  C31  1  0.14356661  0.66903220  0.89603665  1  0  0.120843  0  3.709316  0  0  0.090782  0  3.96211  0  0  0.097161  0  3.981612  0  0  0.037752  0.086417  0  3.949028  0
C  C32  1  0.92135095  0.16905257  0.39599455  1  0  0.121311  0  3.709029  0  0  0.091441  0  3.961128  0  0  0.097749  0  3.980598  0  0  0.037742  0.08729  0  3.947883  0
C  C33  1  0.85642632  0.33096580  0.10396478  1  0  0.120637  0  3.709026  0  0  0.09054  0  3.961833  0  0  0.096916  0  3.981339  0  0  0.037646  0.086165  0  3.94874  0
C  C34  1  0.91424404  0.87967823  0.56978465  1  0  -0.13367  0  3.712573  0  0  -0.155675  0  3.964814  0  0  -0.162048  0  3.985686  0  0  -0.078386  -0.151335  0  3.950834  0
C  C35  1  0.96466737  0.62023410  0.93022667  1  0  -0.13159  0  3.712252  0  0  -0.153393  0  3.963831  0  0  -0.159768  0  3.984797  0  0  -0.077721  -0.149073  0  3.949816  0
C  C36  1  0.08576159  0.12032273  0.43021466  1  0  -0.133699  0  3.7126  0  0  -0.155709  0  3.964835  0  0  -0.162054  0  3.98572  0  0  -0.078393  -0.151383  0  3.950876  0
C  C37  1  0.03532967  0.37976293  0.06977479  1  0  -0.131448  0  3.712122  0  0  -0.153185  0  3.963707  0  0  -0.159556  0  3.984673  0  0  -0.077682  -0.148845  0  3.949701  0
C  C38  1  0.90149680  0.98120369  0.63392900  1  0  0.042651  0  3.746655  0  0  0.057  0  3.975586  0  0  0.0587  0  3.998297  0  0  0.010202  0.056016  0  3.960319  0
C  C39  1  0.78620401  0.51873513  0.86604152  1  0  0.042027  0  3.747539  0  0  0.057571  0  3.975694  0  0  0.059277  0  3.998437  0  0  0.010994  0.056575  0  3.960447  0
C  C40  1  0.09851144  0.01879728  0.36606992  1  0  0.042628  0  3.74672  0  0  0.05695  0  3.975709  0  0  0.058647  0  3.998414  0  0  0.01021  0.055959  0  3.960447  0
C  C41  1  0.21379266  0.48125993  0.13396045  1  0  0.042035  0  3.747414  0  0  0.057503  0  3.975664  0  0  0.059209  0  3.998405  0  0  0.010959  0.056501  0  3.960428  0
C  C42  1  0.05527445  0.02618547  0.73201848  1  0  -0.137771  0  3.690037  0  0  -0.153568  0  3.927156  0  0  -0.161334  0  3.950388  0  0  -0.077677  -0.148743  0  3.911795  0
C  C43  1  0.79688895  0.47385778  0.76791688  1  0  -0.136028  0  3.688042  0  0  -0.1518  0  3.924545  0  0  -0.159615  0  3.947823  0  0  -0.077033  -0.146959  0  3.909227  0
C  C44  1  0.94473449  0.97381645  0.26798226  1  0  -0.137707  0  3.690027  0  0  -0.153514  0  3.927152  0  0  -0.161274  0  3.950396  0  0  -0.077633  -0.14869  0  3.911794  0
C  C45  1  0.20310940  0.52613925  0.23208440  1  0  -0.136019  0  3.688037  0  0  -0.151727  0  3.924529  0  0  -0.159544  0  3.94781  0  0  -0.076998  -0.14689  0  3.909216  0
C  C46  1  0.21410043  0.97114981  0.76089415  1  0  0.124437  0  3.70388  0  0  0.095584  0  3.951014  0  0  0.102747  0  3.970046  0  0  0.043033  0.090901  0  3.938203  0
C  C47  1  0.98189214  0.52894995  0.73907652  1  0  0.123268  0  3.70399  0  0  0.094798  0  3.950955  0  0  0.101906  0  3.969983  0  0  0.043074  0.089986  0  3.938252  0
C  C48  1  0.78590668  0.02885017  0.23910559  1  0  0.124393  0  3.703796  0  0  0.095528  0  3.950952  0  0  0.102693  0  3.969984  0  0  0.043011  0.090845  0  3.938141  0
C  C49  1  0.01810305  0.47105003  0.26092327  1  0  0.123364  0  3.704031  0  0  0.094813  0  3.951008  0  0  0.101922  0  3.970042  0  0  0.043135  0.09001  0  3.938294  0
C  C50  1  0.73570343  0.04067373  0.59727993  1  0  0.275617  0  3.656391  0  0  0.279552  0  3.910669  0  0  0.288005  0  3.926035  0  0  0.150605  0.273763  0  3.900234  0
C  C51  1  0.59759108  0.45928661  0.90268480  1  0  0.276416  0  3.654954  0  0  0.278362  0  3.911579  0  0  0.286807  0  3.926933  0  0  0.149426  0.272662  0  3.90108  0
C  C52  1  0.26430400  0.95933013  0.40272144  1  0  0.275622  0  3.656543  0  0  0.279556  0  3.910836  0  0  0.288011  0  3.926209  0  0  0.150536  0.273769  0  3.9004  0
C  C53  1  0.40240487  0.54070357  0.09731709  1  0  0.276468  0  3.654823  0  0  0.27839  0  3.911509  0  0  0.286835  0  3.926867  0  0  0.149374  0.272689  0  3.901015  0
C  C54  1  0.76608785  0.17198012  0.64989500  1  0  -0.40354  0  3.704951  0  0  -0.4826  0  3.935879  0  0  -0.48625  0  3.942342  0  0  -0.2505  -0.479649  0  3.931221  0
C  C55  1  0.44389704  0.32799093  0.85008254  1  0  -0.401805  0  3.705848  0  0  -0.481046  0  3.937433  0  0  -0.484702  0  3.943839  0  0  -0.24959  -0.478092  0  3.932746  0
C  C56  1  0.23392034  0.82802277  0.35010606  1  0  -0.403545  0  3.704962  0  0  -0.482625  0  3.935895  0  0  -0.486257  0  3.942311  0  0  -0.250465  -0.479675  0  3.931248  0
C  C57  1  0.55609767  0.67200126  0.14991567  1  0  -0.401791  0  3.705672  0  0  -0.481  0  3.937275  0  0  -0.484654  0  3.943686  0  0  -0.249592  -0.47805  0  3.932584  0
C  C58  1  0.32008927  0.48885174  0.59435023  1  0  0.216476  0  3.965684  0  0  0.20592  0  4.275413  0  0  0.221902  0  4.291178  0  0  0.130242  0.195041  0  4.264827  0
C  C59  1  0.73663364  0.01117102  0.90577819  1  0  0.216331  0  3.968341  0  0  0.205727  0  4.278245  0  0  0.221711  0  4.293954  0  0  0.130303  0.194902  0  4.26751  0
C  C60  1  0.67990216  0.51115214  0.40565009  1  0  0.216531  0  3.965764  0  0  0.205964  0  4.275498  0  0  0.221946  0  4.291263  0  0  0.130225  0.195083  0  4.264918  0
C  C61  1  0.26335797  0.98883974  0.09421927  1  0  0.216327  0  3.968568  0  0  0.205722  0  4.278449  0  0  0.221706  0  4.294161  0  0  0.130187  0.194893  0  4.267717  0
S  S62  1  0.43723727  0.64090753  0.57725048  1  0  -0.196522  0  2.292597  0  0  -0.158572  0  2.648958  0  0  -0.174793  0  2.6445  0  0  -0.082731  -0.147686  0  2.651972  0
S  S63  1  0.71903188  0.85916602  0.92293309  1  0  -0.19641  0  2.29383  0  0  -0.158382  0  2.650145  0  0  -0.174645  0  2.645753  0  0  -0.08266  -0.147296  0  2.652661  0
S  S64  1  0.56276736  0.35909731  0.42275067  1  0  -0.196505  0  2.292688  0  0  -0.15855  0  2.649046  0  0  -0.17477  0  2.644588  0  0  -0.082706  -0.147654  0  2.652046  0
S  S65  1  0.28095646  0.14084759  0.07706891  1  0  -0.196351  0  2.29368  0  0  -0.158338  0  2.650011  0  0  -0.174601  0  2.64562  0  0  -0.08263  -0.147255  0  2.652528  0
N  N66  1  0.22781543  0.87651236  0.69748746  1  0  -0.288717  0  3.246888  0  0  -0.210932  0  3.507296  0  0  -0.230408  0  3.528713  0  0  -0.314494  -0.197644  0  3.492433  0
N  N67  1  0.15370424  0.62356314  0.80253153  1  0  -0.288503  0  3.248486  0  0  -0.210908  0  3.509297  0  0  -0.230444  0  3.530749  0  0  -0.314522  -0.197751  0  3.494646  0
N  N68  1  0.77218742  0.12348863  0.30251055  1  0  -0.288679  0  3.246808  0  0  -0.210889  0  3.507207  0  0  -0.230368  0  3.528634  0  0  -0.314487  -0.197606  0  3.492351  0
N  N69  1  0.84629071  0.37643975  0.19746978  1  0  -0.288451  0  3.248272  0  0  -0.210788  0  3.509061  0  0  -0.230322  0  3.530514  0  0  -0.314461  -0.197632  0  3.494403  0
N  N70  1  0.57505054  0.97120607  0.51795730  1  0  -0.24451  0  3.041765  0  0  -0.218494  0  3.322641  0  0  -0.228665  0  3.340229  0  0  -0.209724  -0.211296  0  3.31074  0
N  N71  1  0.58589156  0.52876851  0.98202807  1  0  -0.245296  0  3.039115  0  0  -0.218823  0  3.320898  0  0  -0.228944  0  3.338371  0  0  -0.209708  -0.211581  0  3.308529  0
N  N72  1  0.42495603  0.02879293  0.48204231  1  0  -0.244625  0  3.041947  0  0  -0.218623  0  3.322845  0  0  -0.228791  0  3.340413  0  0  -0.209786  -0.211424  0  3.310945  0
N  N73  1  0.41410272  0.47121970  0.01797451  1  0  -0.245442  0  3.039063  0  0  -0.218967  0  3.320885  0  0  -0.229088  0  3.338348  0  0  -0.209703  -0.211725  0  3.308513  0
N  N74  1  0.23765011  0.37959050  0.60380838  1  0  -0.441563  0  2.667399  0  0  -0.413326  0  2.902502  0  0  -0.425991  0  2.91327  0  0  -0.333033  -0.404825  0  2.895492  0
N  N75  1  0.75381582  0.12039444  0.89626860  1  0  -0.441602  0  2.668987  0  0  -0.413711  0  2.904574  0  0  -0.426328  0  2.915253  0  0  -0.333073  -0.405083  0  2.897277  0
N  N76  1  0.76233718  0.62041532  0.39619297  1  0  -0.441634  0  2.667417  0  0  -0.413386  0  2.902519  0  0  -0.426051  0  2.913289  0  0  -0.333031  -0.404886  0  2.89551  0
N  N77  1  0.24617881  0.87961733  0.10372691  1  0  -0.441655  0  2.669394  0  0  -0.413779  0  2.904999  0  0  -0.426399  0  2.915682  0  0  -0.333001  -0.405144  0  2.897703  0
