# generated using pymatgen
data_VH4(CO3)2
_symmetry_space_group_name_H-M   'P 1'
_cell_length_a   7.06255622
_cell_length_b   8.12902233
_cell_length_c   8.89020058
_cell_angle_alpha   90.00041742
_cell_angle_beta   90.00097240
_cell_angle_gamma   90.00084866
_symmetry_Int_Tables_number   1
_chemical_formula_structural   VH4(CO3)2
_chemical_formula_sum   'V4 H16 C8 O24'
_cell_volume   510.40132651
_cell_formula_units_Z   4
loop_
 _symmetry_equiv_pos_site_id
 _symmetry_equiv_pos_as_xyz
  1  'x, y, z'
loop_
 _atom_site_type_symbol
 _atom_site_label
 _atom_site_symmetry_multiplicity
 _atom_site_fract_x
 _atom_site_fract_y
 _atom_site_fract_z
 _atom_site_occupancy
 _atom_site_hle17_ddec_charge
 _atom_site_hle17_ddec_spin_density
 _atom_site_hle17_ddec_sum_bond_order
 _atom_site_hle17_magmom
 _atom_site_hse06_10hf_ddec_charge
 _atom_site_hse06_10hf_ddec_spin_density
 _atom_site_hse06_10hf_ddec_sum_bond_order
 _atom_site_hse06_10hf_magmom
 _atom_site_hse06_ddec_charge
 _atom_site_hse06_ddec_spin_density
 _atom_site_hse06_ddec_sum_bond_order
 _atom_site_hse06_magmom
 _atom_site_pbe_cm5_charge
 _atom_site_pbe_ddec_charge
 _atom_site_pbe_ddec_spin_density
 _atom_site_pbe_ddec_sum_bond_order
 _atom_site_pbe_magmom
V  V0  1  0.77506148  0.99999827  0.74999917  1  1.763305  1.358127  2.538741  1.295  1.777099  1.091094  2.939093  1.043  1.863508  1.144773  2.903295  1.096  1.337362  1.715788  1.050064  2.968943  1.002
V  V1  1  0.22497885  0.50000095  0.75000071  1  1.763163  1.357607  2.539404  1.294  1.776629  1.090908  2.940207  1.043  1.863343  1.144531  2.903936  1.096  1.337296  1.715453  1.049855  2.969784  1.002
V  V2  1  0.22496497  0.99999614  0.25000560  1  1.763683  -1.357803  2.538689  -1.294  1.777089  -1.090968  2.939624  -1.043  1.863927  -1.144605  2.903158  -1.096  1.33746  1.715915  -1.049924  2.969269  -1.002
V  V3  1  0.77504916  0.50000482  0.24999547  1  1.763377  -1.357904  2.53848  -1.294  1.776312  -1.091066  2.940012  -1.043  1.863465  -1.144683  2.9031  -1.096  1.337065  1.715384  -1.050013  2.969196  -1.002
H  H4  1  0.83559713  0.15273303  0.43566108  1  0.036785  0.000526  0.94631  0.0  0.044361  0.000372  1.017276  0.0  0.046092  0.000398  1.010607  0.0  0.129349  0.042812  0.000289  1.02249  0.0
H  H5  1  0.16439277  0.34728708  0.43567173  1  0.036881  0.000526  0.946267  0.0  0.04446  0.00037  1.01726  0.0  0.046195  0.000397  1.010588  0.0  0.129365  0.042912  0.000288  1.022467  0.0
H  H6  1  0.16439420  0.65270470  0.06430756  1  0.036799  0.000524  0.946249  0.0  0.044372  0.00037  1.017238  0.0  0.046109  0.000397  1.010568  0.0  0.129328  0.042817  0.000287  1.022454  0.0
H  H7  1  0.83559898  0.84727002  0.06433856  1  0.036901  0.000526  0.946362  0.0  0.044474  0.000371  1.017333  0.0  0.04621  0.000398  1.010668  0.0  0.129386  0.042922  0.000289  1.02255  0.0
H  H8  1  0.16438132  0.84724937  0.56432498  1  0.036918  -0.000526  0.946121  0.0  0.044482  -0.000371  1.017134  0.0  0.046221  -0.000399  1.010471  0.0  0.129382  0.042929  -0.000289  1.022352  0.0
H  H9  1  0.83559559  0.65271378  0.56431883  1  0.036781  -0.000526  0.946012  0.0  0.044371  -0.000372  1.016969  0.0  0.046104  -0.000399  1.010315  0.0  0.129325  0.042813  -0.000289  1.022189  0.0
H  H10  1  0.83558141  0.34728754  0.93567625  1  0.036844  -0.000527  0.94624  0.0  0.044404  -0.000371  1.017195  0.0  0.046138  -0.000398  1.010538  0.0  0.129363  0.042846  -0.000288  1.022417  0.0
H  H11  1  0.16436956  0.15272837  0.93568124  1  0.036841  -0.000527  0.946247  0.0  0.044426  -0.000372  1.017208  0.0  0.046157  -0.0004  1.010554  0.0  0.129391  0.042894  -0.00029  1.022392  0.0
H  H12  1  0.38529295  0.91158797  0.79132042  1  0.442715  -0.000351  0.845752  0.0  0.417168  -0.000192  0.902986  0.0  0.429571  -0.000213  0.884818  0.0  0.304415  0.408236  -0.000127  0.916136  0.0
H  H13  1  0.61473692  0.58841162  0.79133114  1  0.442789  -0.000351  0.845672  0.0  0.417191  -0.000192  0.902947  0.0  0.429611  -0.000213  0.88476  0.0  0.304477  0.408258  -0.000127  0.916098  0.0
H  H14  1  0.61475015  0.41159787  0.70868344  1  0.442718  -0.000351  0.845652  0.0  0.417224  -0.000192  0.902889  0.0  0.429651  -0.000213  0.884687  0.0  0.304471  0.408291  -0.000127  0.91604  0.0
H  H15  1  0.38528662  0.08841235  0.70868767  1  0.442732  -0.000351  0.845691  0.0  0.417132  -0.000192  0.903033  0.0  0.429548  -0.000213  0.884848  0.0  0.304408  0.408199  -0.000127  0.916184  0.0
H  H16  1  0.61473505  0.08841411  0.20868363  1  0.442733  0.000351  0.84569  0.0  0.417192  0.000192  0.90294  0.0  0.429624  0.000213  0.884735  0.0  0.304447  0.408264  0.000127  0.916084  0.0
H  H17  1  0.38524011  0.41159169  0.20868079  1  0.44278  0.000351  0.845632  0.0  0.417242  0.000192  0.902882  0.0  0.429677  0.000213  0.88467  0.0  0.304431  0.408315  0.000127  0.916027  0.0
H  H18  1  0.38524105  0.58841529  0.29132062  1  0.442818  0.000351  0.845726  0.0  0.417256  0.000192  0.902883  0.0  0.429686  0.000213  0.88468  0.0  0.304427  0.408329  0.000127  0.916027  0.0
H  H19  1  0.61473148  0.91158973  0.29132763  1  0.442712  0.000351  0.845755  0.0  0.417169  0.000192  0.902974  0.0  0.429595  0.000213  0.884778  0.0  0.304437  0.408241  0.000127  0.916117  0.0
C  C20  1  0.76858044  0.24879980  0.50537700  1  0.627711  -0.000184  3.757644  0.0  0.56135  -0.000302  4.064307  0.0  0.6018  -0.000125  4.047652  0.0  0.177948  0.533282  -0.000401  4.075069  0.0
C  C21  1  0.23139961  0.25120985  0.50539361  1  0.627795  -0.000185  3.75745  0.0  0.561393  -0.000297  4.064206  0.0  0.60184  -0.000125  4.047561  0.0  0.178018  0.533326  -0.000394  4.074966  0.0
C  C22  1  0.23140896  0.74879829  0.99460565  1  0.627892  -0.000178  3.757538  0.0  0.561498  -0.000296  4.06423  0.0  0.601947  -0.00012  4.047574  0.0  0.178127  0.533436  -0.000391  4.074984  0.0
C  C23  1  0.76858418  0.75120555  0.99462392  1  0.627741  -0.000189  3.757303  0.0  0.561271  -0.000304  4.064078  0.0  0.601713  -0.000127  4.047429  0.0  0.177983  0.5332  -0.000402  4.074841  0.0
C  C24  1  0.23140367  0.75118383  0.49461244  1  0.627868  0.000192  3.757202  0.0  0.561405  0.000305  4.063983  0.0  0.601842  0.000123  4.047329  0.0  0.177948  0.533332  0.000404  4.074755  0.0
C  C25  1  0.76857459  0.74883037  0.49462169  1  0.627828  0.000182  3.758273  0.0  0.561443  0.000297  4.064993  0.0  0.601874  0.000117  4.048343  0.0  0.177965  0.533388  0.000392  4.075749  0.0
C  C26  1  0.76858506  0.25118657  0.00537254  1  0.627686  0.000188  3.758098  0.0  0.561327  0.000297  4.064671  0.0  0.601759  0.000119  4.048028  0.0  0.177951  0.533264  0.000393  4.075431  0.0
C  C27  1  0.23139994  0.24881129  0.00538014  1  0.627815  0.000191  3.757387  0.0  0.561428  0.000305  4.064075  0.0  0.601874  0.000123  4.047412  0.0  0.177969  0.53335  0.000403  4.074857  0.0
O  O28  1  0.00312851  0.99999812  0.75000857  1  -0.679536  -0.288705  1.331719  -0.281  -0.714714  -0.119267  1.608291  -0.119  -0.75479  -0.151545  1.602871  -0.152  -0.578751  -0.687391  -0.100416  1.612815  -0.1
O  O29  1  0.99694580  0.49999864  0.75000482  1  -0.679548  -0.288325  1.332511  -0.281  -0.714517  -0.119155  1.609017  -0.118  -0.75468  -0.151377  1.603516  -0.152  -0.578835  -0.687223  -0.100345  1.613468  -0.099
O  O30  1  0.99692074  0.00000027  0.24999774  1  -0.679717  0.288478  1.332323  0.281  -0.714706  0.119199  1.608884  0.118  -0.754898  0.151443  1.603343  0.152  -0.578907  -0.687442  0.10036  1.613439  0.099
O  O31  1  0.00309495  0.49999237  0.24999924  1  -0.679573  0.288457  1.332159  0.281  -0.714425  0.119194  1.60891  0.118  -0.754724  0.151435  1.603324  0.152  -0.578714  -0.687208  0.100371  1.613295  0.099
O  O32  1  0.46527294  0.00000022  0.75000085  1  -0.860577  -0.00295  1.910899  -0.004  -0.831521  -0.001845  2.108329  -0.001  -0.854072  -0.001285  2.073185  -0.001  -0.611403  -0.814552  -0.002521  2.133711  -0.002
O  O33  1  0.53475621  0.50000422  0.74999944  1  -0.860477  -0.002948  1.910642  -0.004  -0.831464  -0.001845  2.108018  -0.001  -0.854084  -0.001286  2.072799  -0.001  -0.611566  -0.814502  -0.00252  2.133376  -0.002
O  O34  1  0.53474940  0.99999818  0.24999870  1  -0.860564  0.00295  1.910838  0.004  -0.831555  0.001846  2.108191  0.001  -0.854194  0.001285  2.072946  0.001  -0.611501  -0.814602  0.002521  2.133553  0.002
O  O35  1  0.46522649  0.50000648  0.24999225  1  -0.860548  0.002951  1.910524  0.004  -0.831513  0.001848  2.107849  0.001  -0.854199  0.001287  2.072589  0.001  -0.611463  -0.814593  0.002523  2.133179  0.002
O  O36  1  0.72575577  0.21641739  0.64212156  1  -0.612882  -0.001442  2.13269  -0.015  -0.566319  0.008076  2.389641  -0.006  -0.600098  0.007482  2.381097  -0.006  -0.340239  -0.54255  0.008507  2.395395  -0.006
O  O37  1  0.27426966  0.28356641  0.64215019  1  -0.613008  -0.001438  2.13221  -0.015  -0.56637  0.00807  2.389236  -0.006  -0.600204  0.007478  2.380672  -0.006  -0.340362  -0.542612  0.008501  2.394969  -0.006
O  O38  1  0.27428123  0.71644845  0.85784627  1  -0.613081  -0.001441  2.132224  -0.015  -0.566384  0.008067  2.389191  -0.006  -0.600195  0.007474  2.380585  -0.006  -0.340397  -0.542628  0.008498  2.394918  -0.006
O  O39  1  0.72574156  0.78357880  0.85787990  1  -0.613008  -0.001437  2.132785  -0.015  -0.566256  0.008075  2.389604  -0.006  -0.60003  0.007481  2.381077  -0.006  -0.340236  -0.542491  0.008506  2.395361  -0.006
O  O40  1  0.27427648  0.78356747  0.35788138  1  -0.613055  0.00144  2.132929  0.015  -0.566256  -0.008067  2.389802  0.006  -0.600107  -0.007473  2.381266  0.006  -0.340172  -0.54251  -0.008497  2.395548  0.006
O  O41  1  0.72570454  0.71644920  0.35787524  1  -0.613197  0.001448  2.132511  0.015  -0.566409  -0.008067  2.389463  0.006  -0.600304  -0.007473  2.38086  0.006  -0.340275  -0.542699  -0.008501  2.395176  0.006
O  O42  1  0.72570571  0.28355733  0.14212179  1  -0.613122  0.00145  2.132462  0.015  -0.566239  -0.00806  2.389266  0.006  -0.600156  -0.007467  2.380698  0.006  -0.340222  -0.542531  -0.008493  2.394979  0.006
O  O43  1  0.27427653  0.21641714  0.14211403  1  -0.613063  0.00144  2.132826  0.015  -0.566354  -0.008072  2.389743  0.006  -0.600209  -0.007477  2.381184  0.006  -0.340254  -0.542609  -0.008503  2.395501  0.006
O  O44  1  0.73427351  0.11086245  0.95114695  1  -0.605837  0.002971  2.160889  -0.011  -0.571986  0.012769  2.436344  -0.002  -0.604651  0.011767  2.426457  -0.003  -0.345025  -0.548685  0.013667  2.442623  -0.002
O  O45  1  0.26578115  0.38918682  0.95118060  1  -0.606024  0.002949  2.159907  -0.011  -0.572096  0.012745  2.435369  -0.002  -0.604831  0.01175  2.425463  -0.003  -0.345029  -0.548825  0.013641  2.44167  -0.002
O  O46  1  0.26578014  0.61080456  0.54882363  1  -0.606155  0.002948  2.159722  -0.011  -0.57218  0.012746  2.435196  -0.002  -0.60492  0.01175  2.425299  -0.003  -0.345052  -0.548904  0.013641  2.441488  -0.002
O  O47  1  0.73426299  0.88913385  0.54884000  1  -0.605787  0.002972  2.161249  -0.011  -0.571953  0.012766  2.436749  -0.002  -0.604612  0.011765  2.426861  -0.003  -0.344968  -0.548661  0.013664  2.443038  -0.002
O  O48  1  0.26576016  0.88912487  0.04885373  1  -0.60595  -0.002969  2.160477  0.011  -0.572056  -0.012762  2.435976  0.002  -0.604814  -0.011764  2.426066  0.003  -0.345059  -0.548789  -0.01366  2.442271  0.002
O  O49  1  0.73419163  0.61083249  0.04882234  1  -0.605987  -0.002934  2.159716  0.011  -0.571943  -0.012736  2.435219  0.002  -0.604772  -0.011741  2.425309  0.003  -0.345051  -0.548725  -0.013633  2.441498  0.002
O  O50  1  0.73417848  0.38915447  0.45117255  1  -0.60596  -0.002942  2.159909  0.011  -0.571937  -0.012738  2.435379  0.002  -0.604757  -0.011743  2.425452  0.003  -0.345024  -0.548723  -0.013636  2.441664  0.002
O  O51  1  0.26575511  0.11086701  0.45115843  1  -0.605954  -0.002963  2.160317  0.011  -0.572017  -0.012762  2.435786  0.002  -0.604779  -0.011762  2.425876  0.003  -0.344988  -0.548742  -0.013659  2.442079  0.002
