# generated using pymatgen
data_CaH13C22O5
_symmetry_space_group_name_H-M   'P 1'
_cell_length_a   13.47255378
_cell_length_b   16.71103822
_cell_length_c   19.94413747
_cell_angle_alpha   89.90955702
_cell_angle_beta   89.82965372
_cell_angle_gamma   89.58050895
_symmetry_Int_Tables_number   1
_chemical_formula_structural   CaH13C22O5
_chemical_formula_sum   'Ca8 H104 C176 O40'
_cell_volume   4490.08467762
_cell_formula_units_Z   8
loop_
 _symmetry_equiv_pos_site_id
 _symmetry_equiv_pos_as_xyz
  1  'x, y, z'
loop_
 _atom_site_type_symbol
 _atom_site_label
 _atom_site_symmetry_multiplicity
 _atom_site_fract_x
 _atom_site_fract_y
 _atom_site_fract_z
 _atom_site_occupancy
 _atom_site_pbe_bader_charge
 _atom_site_pbe_bader_spin_density
 _atom_site_pbe_cm5_charge
 _atom_site_pbe_ddec_charge
 _atom_site_pbe_ddec_spin_density
 _atom_site_pbe_ddec_sum_bond_order
 _atom_site_pbe_magmom
Ca  Ca0  1  0.79618954  0.50251208  0.77936300  1  1.621304  0  0.906712  1.350787  0  1.575276  0
Ca  Ca1  1  0.54581874  0.50436349  0.72535935  1  1.618108  0  0.911158  1.35002  0  1.575122  0
Ca  Ca2  1  0.94831567  0.49737767  0.27465093  1  1.613984  0  0.911005  1.343377  0  1.589317  0
Ca  Ca3  1  0.69910370  0.50696382  0.22682157  1  1.617761  0  0.915611  1.349027  0  1.563503  0
Ca  Ca4  1  0.29614892  0.50094857  0.77900213  1  1.617728  0  0.904302  1.349937  0  1.571393  0
Ca  Ca5  1  0.04623988  0.49950293  0.72341773  1  1.618454  0  0.907343  1.351983  0  1.566794  0
Ca  Ca6  1  0.44788698  0.50376129  0.27498830  1  1.617436  0  0.912214  1.347613  0  1.583459  0
Ca  Ca7  1  0.19932429  0.49144639  0.22976998  1  1.615985  0  0.917627  1.34696  0  1.574565  0
H  H8  1  0.74188793  0.00332907  0.65466739  1  0.055069  0  0.10344  0.112798  0  0.993999  0
H  H9  1  0.92607949  0.20728618  0.53931967  1  0.079688  0  0.102025  0.102081  0  1.02389  0
H  H10  1  0.93483859  0.79993551  0.54427982  1  0.08092  0  0.101562  0.102713  0  1.014343  0
H  H11  1  0.58272236  0.75052853  0.59921016  1  0.096891  0  0.101039  0.102555  0  1.026566  0
H  H12  1  0.66300312  0.87876591  0.56626065  1  0.08342  0  0.095222  0.096326  0  1.052368  0
H  H13  1  0.83668792  0.69011054  0.71935864  1  0.09439  0  0.107591  0.103679  0  1.05412  0
H  H14  1  0.92019333  0.81496269  0.68284104  1  0.05408  0  0.100976  0.104903  0  1.009892  0
H  H15  1  0.74676230  0.00318757  0.33861747  1  0.063972  0  0.104699  0.115147  0  0.99081  0
H  H16  1  0.55545556  0.20423507  0.45371440  1  0.084713  0  0.104974  0.110784  0  1.001602  0
H  H17  1  0.84889175  0.29374805  0.44729374  1  0.094748  0  0.103813  0.106824  0  1.001384  0
H  H18  1  0.76387959  0.16607271  0.47732521  1  0.054542  0  0.097048  0.098297  0  1.045558  0
H  H19  1  0.71767080  0.28556366  0.25156535  1  0.090541  0  0.106083  0.102496  0  1.034622  0
H  H20  1  0.63824768  0.15530218  0.27932458  1  0.081202  0  0.101621  0.1057  0  1.000422  0
H  H21  1  0.56739193  0.79701862  0.45380936  1  0.086815  0  0.104961  0.108309  0  1.002246  0
H  H22  1  0.87536741  0.71999585  0.43600588  1  0.093081  0  0.10305  0.105486  0  1.005301  0
H  H23  1  0.78679835  0.84611285  0.46830174  1  0.078822  0  0.096237  0.098289  0  1.049085  0
H  H24  1  0.71448838  0.71614672  0.25070814  1  0.07406  0  0.106661  0.100671  0  1.043296  0
H  H25  1  0.62806341  0.84327874  0.28126104  1  0.109455  0  0.101152  0.106424  0  1.002878  0
H  H26  1  0.99952783  0.99444904  0.84211384  1  0.07047  0  0.105088  0.114506  0  0.994657  0
H  H27  1  0.90495456  0.70174581  0.94950896  1  0.09835  0  0.103127  0.105921  0  1.00297  0
H  H28  1  0.98916793  0.82909804  0.98107643  1  0.050949  0  0.096042  0.097277  0  1.05196  0
H  H29  1  0.81902842  0.20033460  0.04063041  1  0.080018  0  0.103648  0.107419  0  1.010274  0
H  H30  1  0.82533230  0.79296062  0.03705345  1  0.079463  0  0.101832  0.102218  0  1.025708  0
H  H31  1  0.68432012  0.20105406  0.95882500  1  0.076196  0  0.104007  0.106653  0  1.014195  0
H  H32  1  0.69226620  0.79365141  0.95425650  1  0.069366  0  0.105277  0.110989  0  1.001479  0
H  H33  1  0.51764395  0.72260158  0.75149303  1  0.061198  0  0.108151  0.106951  0  1.024793  0
H  H34  1  0.59832797  0.85147946  0.78173006  1  0.079116  0  0.102718  0.107869  0  0.997775  0
H  H35  1  0.50756574  0.01077387  0.15083459  1  0.060806  0  0.103095  0.110593  0  0.997696  0
H  H36  1  0.56904719  0.24722269  0.61366340  1  0.076459  0  0.101272  0.100489  0  1.03371  0
H  H37  1  0.65036364  0.11738414  0.58411597  1  0.084035  0  0.09694  0.097838  0  1.037892  0
H  H38  1  0.84362738  0.33001112  0.69716239  1  0.093331  0  0.111573  0.107159  0  1.033191  0
H  H39  1  0.92614860  0.20307706  0.66489596  1  0.064808  0  0.103773  0.107754  0  1.006866  0
H  H40  1  0.90709494  0.66852509  0.19317805  1  0.119703  0  0.111956  0.109008  0  1.039343  0
H  H41  1  0.82477346  0.79516836  0.16029550  1  0.073584  0  0.10149  0.102587  0  1.021281  0
H  H42  1  0.67462825  0.75860609  0.11048719  1  0.087118  0  0.101085  0.100352  0  1.035785  0
H  H43  1  0.59735311  0.88965607  0.08001114  1  0.076204  0  0.09734  0.09844  0  1.040952  0
H  H44  1  0.90600425  0.31285346  0.21134668  1  0.051707  0  0.109572  0.104638  0  1.038892  0
H  H45  1  0.82522204  0.18742942  0.17420010  1  0.061502  0  0.100264  0.101835  0  1.01865  0
H  H46  1  0.67973154  0.24777023  0.10952920  1  0.087962  0  0.100376  0.098995  0  1.035097  0
H  H47  1  0.59738543  0.12048965  0.07757621  1  0.079078  0  0.09559  0.097118  0  1.046441  0
H  H48  1  0.82280209  0.24086621  0.88820084  1  0.060103  0  0.100424  0.097954  0  1.041223  0
H  H49  1  0.90661248  0.11181615  0.91724553  1  0.059509  0  0.097108  0.099587  0  1.03719  0
H  H50  1  0.59753483  0.32414337  0.80062240  1  0.081942  0  0.110261  0.10471  0  1.032783  0
H  H51  1  0.68140511  0.19817180  0.83319893  1  0.062527  0  0.10299  0.107048  0  1.01003  0
H  H52  1  0.87396992  0.47196918  0.62364480  1  0.611295  0  0.360344  0.431564  0  0.836906  0
H  H53  1  0.89006289  0.56317345  0.63729834  1  0.634693  0  0.354294  0.426675  0  0.849779  0
H  H54  1  0.63250066  0.55205737  0.87196933  1  0.671228  0  0.362081  0.433331  0  0.836431  0
H  H55  1  0.63201482  0.45841260  0.87479444  1  0.650189  0  0.359867  0.433045  0  0.839362  0
H  H56  1  0.58980262  0.55642746  0.36756965  1  0.66628  0  0.357142  0.435062  0  0.841685  0
H  H57  1  0.60154606  0.46348930  0.37503619  1  0.622642  0  0.360755  0.436035  0  0.834026  0
H  H58  1  0.82498194  0.43720733  0.13878541  1  0.657042  0  0.338092  0.423289  0  0.874745  0
H  H59  1  0.86375317  0.52246385  0.11952075  1  0.609485  0  0.357466  0.429584  0  0.841049  0
H  H60  1  0.24751465  0.99608357  0.65627166  1  0.082496  0  0.103875  0.113901  0  0.995402  0
H  H61  1  0.42598978  0.20267870  0.53966522  1  0.076789  0  0.101717  0.101908  0  1.024154  0
H  H62  1  0.43393600  0.79533589  0.53826046  1  0.074674  0  0.104374  0.107258  0  1.003079  0
H  H63  1  0.11863137  0.71876004  0.56767412  1  0.090968  0  0.102622  0.106973  0  1.008039  0
H  H64  1  0.20242954  0.84505917  0.53219545  1  0.089847  0  0.096021  0.098562  0  1.050754  0
H  H65  1  0.30273493  0.70857242  0.74274361  1  0.076152  0  0.107951  0.104693  0  1.037735  0
H  H66  1  0.38609332  0.83467593  0.70818083  1  0.089515  0  0.099511  0.102814  0  1.01546  0
H  H67  1  0.24941856  0.00364853  0.34325409  1  0.057879  0  0.10428  0.11405  0  0.992739  0
H  H68  1  0.05848878  0.20715286  0.45529621  1  0.092193  0  0.104917  0.110501  0  1.002429  0
H  H69  1  0.35067314  0.29805731  0.44811964  1  0.110113  0  0.104224  0.107271  0  0.997967  0
H  H70  1  0.26088175  0.17379493  0.48169619  1  0.092425  0  0.096675  0.09824  0  1.045021  0
H  H71  1  0.23403228  0.27669443  0.24892911  1  0.069055  0  0.107376  0.103658  0  1.030034  0
H  H72  1  0.15088543  0.14926617  0.28042043  1  0.071387  0  0.101665  0.10606  0  0.999128  0
H  H73  1  0.06145773  0.79978379  0.45601699  1  0.087265  0  0.102298  0.103475  0  1.018204  0
H  H74  1  0.41587199  0.75360317  0.39682006  1  0.115586  0  0.101438  0.103147  0  1.026316  0
H  H75  1  0.33501293  0.88423531  0.42421967  1  0.087618  0  0.096621  0.098244  0  1.040553  0
H  H76  1  0.15087886  0.67912037  0.29592603  1  0.10371  0  0.108659  0.102552  0  1.037573  0
H  H77  1  0.06808416  0.80716277  0.32562417  1  0.05707  0  0.105259  0.111738  0  0.988933  0
H  H78  1  0.49728906  0.99714180  0.84608894  1  0.065145  0  0.104222  0.112663  0  0.995989  0
H  H79  1  0.40310036  0.70031317  0.95168920  1  0.076372  0  0.10453  0.10886  0  0.996363  0
H  H80  1  0.48918960  0.82664103  0.98367962  1  0.107795  0  0.096355  0.097482  0  1.049985  0
H  H81  1  0.31422081  0.20908165  0.03304959  1  0.072062  0  0.104369  0.107789  0  1.012043  0
H  H82  1  0.32689969  0.80179239  0.04195004  1  0.052227  0  0.101669  0.101872  0  1.022819  0
H  H83  1  0.17954607  0.20464587  0.95174718  1  0.076452  0  0.104239  0.10705  0  1.013907  0
H  H84  1  0.19626112  0.79735785  0.95720414  1  0.05708  0  0.104894  0.110959  0  1.001575  0
H  H85  1  0.03084480  0.71796728  0.75216817  1  0.103275  0  0.10779  0.105377  0  1.025829  0
H  H86  1  0.11022666  0.84741860  0.78180012  1  0.071257  0  0.101731  0.105542  0  1.000149  0
H  H87  1  0.00989222  0.99640357  0.15179653  1  0.06592  0  0.104443  0.11278  0  0.996344  0
H  H88  1  0.07320751  0.24251716  0.61350181  1  0.072096  0  0.10095  0.099889  0  1.038161  0
H  H89  1  0.15382100  0.11235583  0.58455571  1  0.091644  0  0.097803  0.098796  0  1.035055  0
H  H90  1  0.34715297  0.32445175  0.69838650  1  0.095349  0  0.111253  0.107206  0  1.02941  0
H  H91  1  0.42896032  0.19663087  0.66742829  1  0.082724  0  0.103494  0.107614  0  1.007097  0
H  H92  1  0.40393198  0.68800293  0.20763093  1  0.094799  0  0.111865  0.107809  0  1.023388  0
H  H93  1  0.32356386  0.81532880  0.17253156  1  0.103243  0  0.104118  0.109141  0  1.001231  0
H  H94  1  0.18462853  0.75485223  0.11532951  1  0.095096  0  0.101114  0.099898  0  1.032222  0
H  H95  1  0.10301825  0.88394623  0.08487720  1  0.070482  0  0.097438  0.098046  0  1.039346  0
H  H96  1  0.40371407  0.33468397  0.19174618  1  0.11485  0  0.111903  0.110587  0  1.045233  0
H  H97  1  0.32052624  0.21047982  0.15621476  1  0.074979  0  0.100891  0.099811  0  1.024937  0
H  H98  1  0.17097569  0.24734276  0.10367945  1  0.113645  0  0.100226  0.098505  0  1.038353  0
H  H99  1  0.09318881  0.11818680  0.07071300  1  0.066726  0  0.095468  0.097717  0  1.047757  0
H  H100  1  0.32388302  0.23941671  0.88523491  1  0.123253  0  0.099831  0.09819  0  1.041205  0
H  H101  1  0.40698802  0.11097017  0.91622572  1  0.0645  0  0.09689  0.098626  0  1.038126  0
H  H102  1  0.09052751  0.32216416  0.79342227  1  0.092968  0  0.109989  0.101461  0  1.039378  0
H  H103  1  0.17576741  0.19607562  0.82454525  1  0.062851  0  0.104106  0.108651  0  1.001996  0
H  H104  1  0.37955667  0.47318994  0.62445020  1  0.628919  0  0.360953  0.433333  0  0.833287  0
H  H105  1  0.38811137  0.56492558  0.63946320  1  0.633216  0  0.356774  0.430043  0  0.843034  0
H  H106  1  0.13050736  0.54129011  0.87344824  1  0.635367  0  0.361782  0.433262  0  0.834147  0
H  H107  1  0.13802748  0.44775690  0.87154336  1  0.622696  0  0.357733  0.431516  0  0.84178  0
H  H108  1  0.09682881  0.54231516  0.37350086  1  0.650818  0  0.357111  0.434084  0  0.841197  0
H  H109  1  0.08884062  0.44892716  0.37310649  1  0.632537  0  0.358939  0.436497  0  0.836075  0
H  H110  1  0.36521005  0.47891762  0.12292152  1  0.629136  0  0.356535  0.429745  0  0.839853  0
H  H111  1  0.31700038  0.56207273  0.14141474  1  0.657378  0  0.331332  0.419507  0  0.887479  0
C  C112  1  0.65036547  0.37376365  0.67434320  1  1.531115  0  0.206821  0.590628  0  4.226313  0
C  C113  1  0.70084481  0.29682440  0.65680201  1  -0.011674  0  -0.020721  -0.045424  0  3.985838  0
C  C114  1  0.79419726  0.15175402  0.62135581  1  -0.038117  0  -0.003222  0.077781  0  4.000811  0
C  C115  1  0.84185124  0.07679392  0.59781930  1  0.007238  0  -0.006514  0.024637  0  3.98981  0
C  C116  1  0.80379697  0.00344977  0.61925345  1  -0.057767  0  -0.090248  -0.180281  0  3.99219  0
C  C117  1  0.92069671  0.07788484  0.55049220  1  0.021292  0  -0.007274  0.023447  0  3.996902  0
C  C118  1  0.95827028  0.15068653  0.52276696  1  -0.117518  0  -0.091719  -0.130748  0  4.026309  0
C  C119  1  0.95999982  0.00364319  0.52593109  1  -0.031929  0  0.002198  0.008482  0  3.919691  0
C  C120  1  0.65401361  0.63667570  0.68116562  1  1.562239  0  0.208722  0.591183  0  4.2304  0
C  C121  1  0.70460843  0.71223822  0.66101891  1  -0.003173  0  -0.022417  -0.051552  0  3.99464  0
C  C122  1  0.79721325  0.85514061  0.62168215  1  -0.003446  0  -0.002947  0.081305  0  4.000682  0
C  C123  1  0.84363155  0.93037366  0.59811060  1  -0.000172  0  -0.006617  0.025273  0  3.989448  0
C  C124  1  0.92257782  0.92942708  0.55102819  1  0.015565  0  -0.007773  0.023574  0  4.005795  0
C  C125  1  0.96274580  0.85645520  0.52475226  1  -0.076446  0  -0.090953  -0.127012  0  4.021709  0
C  C126  1  0.65599202  0.76579193  0.61796060  1  -0.072395  0  -0.084976  -0.082526  0  3.98009  0
C  C127  1  0.70111060  0.83710643  0.59960135  1  -0.07684  0  -0.094658  -0.141945  0  3.983924  0
C  C128  1  0.79940968  0.73101792  0.68497830  1  -0.119547  0  -0.084362  -0.093042  0  3.973883  0
C  C129  1  0.84600194  0.80120097  0.66461883  1  -0.023472  0  -0.090872  -0.137704  0  3.977352  0
C  C130  1  0.83716357  0.37445969  0.33040191  1  1.552746  0  0.210516  0.597221  0  4.216696  0
C  C131  1  0.78772894  0.29759831  0.34789557  1  -0.042108  0  -0.020715  -0.052598  0  3.992749  0
C  C132  1  0.69651231  0.15175170  0.38028738  1  -0.022975  0  -0.001001  0.081872  0  3.993192  0
C  C133  1  0.64989682  0.07505880  0.40027820  1  0.02365  0  -0.002138  0.032647  0  3.979046  0
C  C134  1  0.68632890  0.00240577  0.37518926  1  -0.125459  0  -0.08786  -0.180103  0  3.980638  0
C  C135  1  0.57344072  0.07488077  0.44911151  1  -0.012982  0  -0.007602  0.023356  0  4.008413  0
C  C136  1  0.53033135  0.14738598  0.47422225  1  -0.030788  0  -0.087654  -0.1197  0  4.003338  0
C  C137  1  0.53648430  0.00033920  0.47356745  1  0.007299  0  -0.00029  0.001957  0  3.934713  0
C  C138  1  0.80149986  0.26339849  0.41132904  1  -0.024834  0  -0.082972  -0.084638  0  3.987795  0
C  C139  1  0.75484077  0.19204453  0.42759809  1  -0.021143  0  -0.088899  -0.129998  0  3.973625  0
C  C140  1  0.72825763  0.25840234  0.30073269  1  -0.040477  0  -0.080745  -0.083108  0  3.971347  0
C  C141  1  0.68425669  0.18543524  0.31633527  1  -0.092916  0  -0.089521  -0.136473  0  3.973487  0
C  C142  1  0.85047325  0.63367835  0.32300703  1  1.534673  0  0.212727  0.600306  0  4.205229  0
C  C143  1  0.79933199  0.70994621  0.34177124  1  -0.046258  0  -0.021358  -0.053033  0  3.992867  0
C  C144  1  0.70178309  0.85321385  0.37715587  1  0.009582  0  -0.001157  0.081828  0  3.997049  0
C  C145  1  0.65214567  0.92872437  0.39886802  1  0.012979  0  -0.00436  0.029101  0  3.979507  0
C  C146  1  0.57608655  0.92673226  0.44800864  1  0.041415  0  -0.009003  0.018835  0  4.008777  0
C  C147  1  0.53712456  0.85305985  0.47326661  1  -0.042998  0  -0.087541  -0.123538  0  4.009887  0
C  C148  1  0.82036710  0.74716822  0.40289254  1  -0.073547  0  -0.083815  -0.085055  0  3.988133  0
C  C149  1  0.77120766  0.81751725  0.42052186  1  -0.039928  0  -0.091099  -0.134096  0  3.975211  0
C  C150  1  0.72990548  0.74516523  0.29831777  1  0.007478  0  -0.080827  -0.083432  0  3.971968  0
C  C151  1  0.68204331  0.81653281  0.31545659  1  -0.127153  0  -0.089938  -0.135941  0  3.96924  0
C  C152  1  0.89891458  0.36653054  0.82310781  1  1.538823  0  0.209995  0.59538  0  4.217423  0
C  C153  1  0.95093753  0.28977921  0.83945489  1  0.074934  0  -0.020646  -0.046964  0  3.986503  0
C  C154  1  0.91199092  0.62641335  0.83007954  1  1.549982  0  0.208148  0.586728  0  4.231535  0
C  C155  1  0.96310281  0.70201432  0.84907892  1  0.012165  0  -0.021649  -0.05389  0  3.993902  0
C  C156  1  0.95127950  0.73366595  0.91361092  1  -0.089556  0  -0.083308  -0.084043  0  3.985997  0
C  C157  1  0.99752352  0.80479411  0.93077758  1  -0.013275  0  -0.090595  -0.132809  0  3.975947  0
C  C158  1  0.94822135  0.99635913  0.11645753  1  -0.072155  0  -0.089592  -0.178233  0  3.993151  0
C  C159  1  0.79081296  0.99671735  0.02464017  1  -0.084351  0  4.6e-05  0.001321  0  3.927315  0
C  C160  1  0.95383058  0.14459913  0.11949347  1  0.018488  0  -0.002662  0.083187  0  4.001366  0
C  C161  1  0.90847198  0.06952590  0.09548390  1  -0.018888  0  -0.004509  0.028985  0  3.991753  0
C  C162  1  0.82922936  0.07079776  0.04893444  1  0.024603  0  -0.007825  0.023718  0  4.006335  0
C  C163  1  0.78887721  0.14388143  0.02293911  1  -0.034347  0  -0.089283  -0.127725  0  4.011435  0
C  C164  1  0.95771643  0.84808530  0.11903945  1  -0.025237  0  -0.001715  0.080381  0  3.993674  0
C  C165  1  0.91006648  0.92302877  0.09537563  1  0.002631  0  -0.006594  0.022654  0  3.988172  0
C  C166  1  0.83059026  0.92227776  0.04874621  1  0.026688  0  -0.007213  0.026499  0  3.992477  0
C  C167  1  0.79286262  0.84970101  0.02110781  1  -0.072742  0  -0.091846  -0.131558  0  4.026864  0
C  C168  1  0.55898335  0.99714726  0.88140074  1  -0.062683  0  -0.088375  -0.179511  0  3.983207  0
C  C169  1  0.71395608  0.99718202  0.97519816  1  -0.084052  0  0.000126  -0.000373  0  3.931068  0
C  C170  1  0.55029114  0.14579476  0.87806195  1  -0.028607  0  -0.002253  0.081447  0  3.987468  0
C  C171  1  0.59761087  0.07064836  0.90210592  1  -0.005395  0  -0.003255  0.029291  0  3.969658  0
C  C172  1  0.67543826  0.07151489  0.94997796  1  -0.051344  0  -0.007512  0.023765  0  3.991019  0
C  C173  1  0.71485949  0.14424481  0.97630201  1  -0.017426  0  -0.088511  -0.125722  0  4.01272  0
C  C174  1  0.54811473  0.84803749  0.88477902  1  -0.013417  0  -0.0009  0.081235  0  3.997695  0
C  C175  1  0.59539938  0.92405371  0.90523670  1  0.015344  0  -0.00242  0.032797  0  3.984725  0
C  C176  1  0.67493006  0.92312302  0.95147357  1  0.016769  0  -0.008489  0.023372  0  4.009108  0
C  C177  1  0.71871207  0.85000156  0.97468722  1  -0.03117  0  -0.087907  -0.119662  0  4.002775  0
C  C178  1  0.51108860  0.74638494  0.80213748  1  0.002836  0  -0.079896  -0.082768  0  3.974089  0
C  C179  1  0.55557082  0.81857772  0.81911502  1  -0.087995  0  -0.089068  -0.137334  0  3.975195  0
C  C180  1  0.59841143  0.37469629  0.17245500  1  1.542017  0  0.213976  0.602567  0  4.208284  0
C  C181  1  0.54735465  0.29965019  0.15213994  1  -0.033972  0  -0.020883  -0.050227  0  3.989247  0
C  C182  1  0.59277420  0.63745257  0.17844240  1  1.535935  0  0.208358  0.591802  0  4.228048  0
C  C183  1  0.54425466  0.71504805  0.16038606  1  -0.076094  0  -0.018089  -0.041631  0  3.979958  0
C  C184  1  0.64679285  0.23618242  0.62553496  1  0.013266  0  -0.083036  -0.083595  0  3.97847  0
C  C185  1  0.69251138  0.16398076  0.60914804  1  -0.121723  0  -0.092015  -0.137646  0  3.981803  0
C  C186  1  0.80133847  0.28377454  0.67181269  1  0.024715  0  -0.081726  -0.090214  0  3.968913  0
C  C187  1  0.84774878  0.21233263  0.65359434  1  -0.094923  0  -0.08914  -0.133548  0  3.976095  0
C  C188  1  0.95001014  0.71527224  0.16867874  1  -0.096918  0  -0.081349  -0.089346  0  3.964057  0
C  C189  1  0.90365260  0.78656322  0.15005380  1  -0.039685  0  -0.089467  -0.133395  0  3.977016  0
C  C190  1  0.59851558  0.77253463  0.12508769  1  -0.000687  0  -0.084079  -0.088602  0  3.98456  0
C  C191  1  0.55500793  0.84537312  0.10797991  1  -0.054887  0  -0.092741  -0.139683  0  3.986299  0
C  C192  1  0.94636689  0.27060894  0.17972762  1  -0.073187  0  -0.08067  -0.085962  0  3.968802  0
C  C193  1  0.90129488  0.20018988  0.15894401  1  -0.023511  0  -0.090632  -0.140451  0  3.983752  0
C  C194  1  0.60132352  0.23861572  0.12027189  1  -0.03486  0  -0.086113  -0.088666  0  3.988136  0
C  C195  1  0.55509586  0.16766387  0.10249571  1  -0.074527  0  -0.092423  -0.134394  0  3.972445  0
C  C196  1  0.89960676  0.22965739  0.87368214  1  -0.069421  0  -0.083671  -0.083426  0  3.982288  0
C  C197  1  0.94659504  0.15782961  0.88967011  1  -0.044502  0  -0.091608  -0.131879  0  3.967061  0
C  C198  1  0.55560341  0.27783182  0.82649757  1  0.010641  0  -0.081988  -0.0895  0  3.969952  0
C  C199  1  0.60294425  0.20670059  0.84500916  1  -0.068647  0  -0.088947  -0.135564  0  3.974881  0
C  C200  1  0.15403893  0.36911219  0.67397558  1  1.522207  0  0.20759  0.590722  0  4.224093  0
C  C201  1  0.20462303  0.29178318  0.65734782  1  0.004006  0  -0.020799  -0.045969  0  3.986173  0
C  C202  1  0.29739115  0.14583911  0.62290968  1  -0.028928  0  -0.003757  0.075297  0  3.997804  0
C  C203  1  0.34499300  0.07099721  0.59870073  1  0.021804  0  -0.005512  0.028012  0  3.980129  0
C  C204  1  0.30809450  0.99700256  0.61986627  1  -0.076531  0  -0.089939  -0.182292  0  3.987197  0
C  C205  1  0.42192084  0.07313903  0.54998253  1  -0.077091  0  -0.007162  0.02383  0  3.994356  0
C  C206  1  0.45810359  0.14644133  0.52226926  1  -0.036657  0  -0.091681  -0.130059  0  4.024092  0
C  C207  1  0.46098885  0.99941793  0.52410727  1  -0.010255  0  0.001152  0.004894  0  3.92571  0
C  C208  1  0.15488445  0.63063729  0.67808413  1  1.528997  0  0.206582  0.587425  0  4.234543  0
C  C209  1  0.20631199  0.70554827  0.65695578  1  0.002153  0  -0.023703  -0.058794  0  3.996506  0
C  C210  1  0.29960491  0.84815368  0.61763946  1  -0.027797  0  -0.001985  0.080852  0  4.002915  0
C  C211  1  0.34558041  0.92449712  0.59560296  1  -0.045855  0  -0.004989  0.029832  0  3.9838  0
C  C212  1  0.42317374  0.92465346  0.54765301  1  0.008814  0  -0.008959  0.020145  0  4.010342  0
C  C213  1  0.46376223  0.85210945  0.52065993  1  -0.121575  0  -0.088668  -0.126198  0  4.010922  0
C  C214  1  0.17797229  0.74437769  0.59762227  1  -0.066599  0  -0.084249  -0.084494  0  3.981317  0
C  C215  1  0.22461903  0.81466643  0.57813093  1  -0.067193  0  -0.09244  -0.134347  0  3.974493  0
C  C216  1  0.28154144  0.73858088  0.69646747  1  -0.018051  0  -0.080385  -0.082925  0  3.972715  0
C  C217  1  0.32769762  0.80938998  0.67711082  1  -0.093682  0  -0.092022  -0.139124  0  3.974839  0
C  C218  1  0.34892648  0.37011357  0.32646455  1  1.541076  0  0.214856  0.602045  0  4.201671  0
C  C219  1  0.29772625  0.29488756  0.34652389  1  -0.067019  0  -0.019477  -0.050635  0  3.98811  0
C  C220  1  0.20137996  0.15251261  0.38317700  1  -0.074378  0  -0.000364  0.083593  0  3.992881  0
C  C221  1  0.15304902  0.07684703  0.40396541  1  -0.001867  0  -0.002952  0.029242  0  3.982836  0
C  C222  1  0.18810386  0.00373005  0.37914164  1  -0.065501  0  -0.089135  -0.180107  0  3.985643  0
C  C223  1  0.07470114  0.07766189  0.45146631  1  0.018129  0  -0.007141  0.025877  0  4.004856  0
C  C224  1  0.03194138  0.15069540  0.47570296  1  -0.01663  0  -0.087861  -0.121297  0  4.006457  0
C  C225  1  0.03541897  0.00354469  0.47527668  1  -0.053174  0  0.001883  0.005046  0  3.923742  0
C  C226  1  0.30566786  0.26545913  0.41208025  1  -0.026029  0  -0.083432  -0.087138  0  3.985512  0
C  C227  1  0.25631464  0.19592347  0.43040492  1  -0.048686  0  -0.090563  -0.132835  0  3.972505  0
C  C228  1  0.24093594  0.25289989  0.29957429  1  0.00021  0  -0.080016  -0.082702  0  3.973991  0
C  C229  1  0.19460615  0.18167476  0.31732001  1  -0.023764  0  -0.089145  -0.135198  0  3.973299  0
C  C230  1  0.33882233  0.63029506  0.32942245  1  1.533362  0  0.208968  0.596572  0  4.215572  0
C  C231  1  0.28858883  0.70798304  0.34521801  1  0.030212  0  -0.021964  -0.050056  0  3.988339  0
C  C232  1  0.19601212  0.85465461  0.37725634  1  -0.002164  0  -0.002761  0.078357  0  4.000064  0
C  C233  1  0.14907671  0.93045393  0.40020170  1  -0.026732  0  -0.005408  0.024057  0  3.985067  0
C  C234  1  0.07219232  0.92938274  0.44893865  1  -0.003666  0  -0.0069  0.025953  0  3.998809  0
C  C235  1  0.03329096  0.85642001  0.47555664  1  -0.061664  0  -0.091069  -0.126815  0  4.019313  0
C  C236  1  0.34021794  0.76650131  0.38079960  1  -0.102978  0  -0.082665  -0.079996  0  3.978144  0
C  C237  1  0.29490631  0.83932504  0.39572752  1  -0.08158  0  -0.091877  -0.136009  0  3.976689  0
C  C238  1  0.19096497  0.72393312  0.32447956  1  -0.105395  0  -0.082762  -0.090172  0  3.975791  0
C  C239  1  0.14465408  0.79614341  0.34092952  1  -0.001458  0  -0.089343  -0.135244  0  3.9788  0
C  C240  1  0.40250617  0.36683410  0.82457966  1  1.571112  0  0.209205  0.594629  0  4.217967  0
C  C241  1  0.45483697  0.29029746  0.84161261  1  -0.0971  0  -0.021622  -0.048424  0  3.984058  0
C  C242  1  0.40581294  0.62762246  0.83072435  1  1.529191  0  0.205486  0.581929  0  4.243476  0
C  C243  1  0.45593496  0.70364715  0.84985973  1  -0.06585  0  -0.022305  -0.054135  0  3.996339  0
C  C244  1  0.44720827  0.73344052  0.91521428  1  -0.032126  0  -0.083788  -0.087899  0  3.988848  0
C  C245  1  0.49436711  0.80410376  0.93259515  1  -0.036251  0  -0.090507  -0.131411  0  3.977286  0
C  C246  1  0.44608187  0.00909588  0.11537303  1  0.02316  0  -0.089592  -0.179496  0  3.99027  0
C  C247  1  0.28958196  0.00462280  0.02312954  1  -0.081886  0  0.000805  0.001765  0  3.924185  0
C  C248  1  0.45305685  0.15697708  0.11375767  1  0.022935  0  -0.00122  0.084871  0  3.987948  0
C  C249  1  0.40658667  0.08142459  0.09180017  1  -0.028055  0  -0.004458  0.029816  0  3.974265  0
C  C250  1  0.32693069  0.08011223  0.04540622  1  0.00148  0  -0.007331  0.023319  0  3.997707  0
C  C251  1  0.28512072  0.15150125  0.01732563  1  -0.098586  0  -0.089336  -0.128147  0  4.01574  0
C  C252  1  0.45469653  0.86069823  0.12282710  1  -0.041685  0  -0.003403  0.077777  0  4.006076  0
C  C253  1  0.40804109  0.93489579  0.09680156  1  -0.073976  0  -0.006824  0.024628  0  3.994425  0
C  C254  1  0.32973748  0.93152836  0.04953980  1  0.083444  0  -0.007792  0.025633  0  3.997355  0
C  C255  1  0.29392359  0.85735810  0.02373962  1  -0.054883  0  -0.091904  -0.13087  0  4.026584  0
C  C256  1  0.06056599  0.99647883  0.87791595  1  0.003195  0  -0.089129  -0.181061  0  3.984988  0
C  C257  1  0.21361314  0.00198797  0.97315038  1  -0.04916  0  -0.000737  -0.000454  0  3.928456  0
C  C258  1  0.04715105  0.14526967  0.87377617  1  -0.023817  0  -0.002098  0.080928  0  3.991018  0
C  C259  1  0.09638817  0.07108203  0.89800167  1  -0.012317  0  -0.003654  0.029782  0  3.97576  0
C  C260  1  0.17358556  0.07475788  0.94613044  1  -0.009078  0  -0.008017  0.021871  0  4.000277  0
C  C261  1  0.21116791  0.14895156  0.97075118  1  -0.02425  0  -0.088701  -0.125458  0  4.012737  0
C  C262  1  0.05387295  0.84733361  0.88345663  1  -0.055444  0  -0.000173  0.08302  0  3.993257  0
C  C263  1  0.09878379  0.92464430  0.90328451  1  -0.04491  0  -0.002439  0.031658  0  3.982082  0
C  C264  1  0.17681703  0.92648741  0.95067167  1  0.01124  0  -0.007759  0.024582  0  4.001803  0
C  C265  1  0.22117501  0.85479989  0.97638519  1  -0.030549  0  -0.087942  -0.120221  0  4.00455  0
C  C266  1  0.02135850  0.74315782  0.80209369  1  -0.049531  0  -0.079634  -0.080434  0  3.971802  0
C  C267  1  0.06528407  0.81569183  0.81872952  1  -0.054889  0  -0.089586  -0.136266  0  3.971475  0
C  C268  1  0.09287470  0.36353353  0.18001626  1  1.547497  0  0.20941  0.593209  0  4.223714  0
C  C269  1  0.04362484  0.28792476  0.15945019  1  -0.025192  0  -0.019389  -0.04403  0  3.987611  0
C  C270  1  0.10145767  0.62631571  0.17384312  1  1.547705  0  0.21623  0.604865  0  4.206053  0
C  C271  1  0.05140549  0.70313933  0.15549675  1  0.022628  0  -0.020776  -0.049139  0  3.986749  0
C  C272  1  0.15066111  0.23118610  0.62598523  1  0.004605  0  -0.083165  -0.083995  0  3.982596  0
C  C273  1  0.19598594  0.15867135  0.60997527  1  -0.043917  0  -0.090888  -0.135597  0  3.979452  0
C  C274  1  0.30478037  0.27820199  0.67310772  1  -0.061403  0  -0.080776  -0.087635  0  3.96703  0
C  C275  1  0.35079688  0.20625861  0.65560758  1  -0.117075  0  -0.089016  -0.135031  0  3.976486  0
C  C276  1  0.44574930  0.73179572  0.17883235  1  -0.041108  0  -0.078351  -0.081979  0  3.961523  0
C  C277  1  0.40088890  0.80339010  0.15928838  1  -0.049799  0  -0.089712  -0.139163  0  3.979141  0
C  C278  1  0.10607745  0.76472389  0.12569027  1  -0.081405  0  -0.083713  -0.083869  0  3.980486  0
C  C279  1  0.06016598  0.83672913  0.10877994  1  -0.071545  0  -0.091258  -0.136594  0  3.9776  0
C  C280  1  0.44606200  0.28855294  0.16549216  1  -0.086603  0  -0.08218  -0.090963  0  3.959768  0
C  C281  1  0.39929730  0.21845813  0.14568068  1  -0.082798  0  -0.08852  -0.133262  0  3.974207  0
C  C282  1  0.09599876  0.23276773  0.11989956  1  -0.05034  0  -0.084542  -0.08737  0  3.986027  0
C  C283  1  0.05230757  0.16108114  0.10140665  1  -0.039732  0  -0.092804  -0.134202  0  3.97403  0
C  C284  1  0.40185553  0.22918269  0.87342051  1  -0.084206  0  -0.084347  -0.084296  0  3.981593  0
C  C285  1  0.44851248  0.15761006  0.89053599  1  -0.00027  0  -0.091485  -0.131124  0  3.964826  0
C  C286  1  0.05025097  0.27637853  0.82101707  1  -0.054195  0  -0.082095  -0.089984  0  3.976698  0
C  C287  1  0.09815029  0.20521433  0.83845341  1  -0.066148  0  -0.088463  -0.135318  0  3.97662  0
O  O288  1  0.56641238  0.39130133  0.64979383  1  -1.195165  0  -0.362808  -0.602589  0  2.096928  0
O  O289  1  0.69424854  0.42073516  0.71622170  1  -1.255309  0  -0.430409  -0.70631  0  2.296794  0
O  O290  1  0.88418903  0.51106869  0.65902986  1  -1.213362  0  -0.557186  -0.776007  0  2.031083  0
O  O291  1  0.84312208  0.59822049  0.86621370  1  -1.201767  0  -0.362212  -0.605688  0  2.079822  0
O  O292  1  0.81506475  0.38277068  0.84867425  1  -1.197252  0  -0.361332  -0.603435  0  2.098653  0
O  O293  1  0.93882298  0.59247180  0.77451335  1  -1.249598  0  -0.424897  -0.698338  0  2.295499  0
O  O294  1  0.68954084  0.59664021  0.73107903  1  -1.243189  0  -0.419432  -0.690709  0  2.268649  0
O  O295  1  0.94146197  0.41476699  0.78133625  1  -1.252579  0  -0.432618  -0.708671  0  2.302504  0
O  O296  1  0.63464256  0.50401609  0.84435093  1  -1.285809  0  -0.557259  -0.779268  0  2.028597  0
O  O297  1  0.57701492  0.61425587  0.65004765  1  -1.203557  0  -0.370955  -0.615902  0  2.107039  0
O  O298  1  0.91139229  0.39897226  0.36306631  1  -1.201137  0  -0.360301  -0.609917  0  2.085222  0
O  O299  1  0.80277416  0.41375761  0.27936739  1  -1.25336  0  -0.432232  -0.701809  0  2.296939  0
O  O300  1  0.60736021  0.50760241  0.34325692  1  -1.253268  0  -0.562101  -0.784333  0  2.000833  0
O  O301  1  0.67165424  0.61526593  0.14869075  1  -1.194596  0  -0.368575  -0.608991  0  2.092143  0
O  O302  1  0.68339328  0.39155061  0.14878020  1  -1.208328  0  -0.356962  -0.62096  0  2.128986  0
O  O303  1  0.55392308  0.59585604  0.22612485  1  -1.242335  0  -0.426583  -0.693975  0  2.293187  0
O  O304  1  0.81312668  0.59298756  0.27401701  1  -1.248179  0  -0.435989  -0.70752  0  2.30177  0
O  O305  1  0.55474812  0.42053841  0.21551046  1  -1.250239  0  -0.423293  -0.68931  0  2.270326  0
O  O306  1  0.85742444  0.48502970  0.15666811  1  -1.240493  0  -0.56519  -0.787269  0  2.00422  0
O  O307  1  0.92807616  0.61041181  0.35308869  1  -1.195511  0  -0.357194  -0.608416  0  2.094218  0
O  O308  1  0.06964953  0.38553838  0.64957942  1  -1.196886  0  -0.363032  -0.601053  0  2.095079  0
O  O309  1  0.19769978  0.41716402  0.71504012  1  -1.245614  0  -0.427168  -0.704826  0  2.288676  0
O  O310  1  0.38444136  0.51224024  0.66042387  1  -1.227042  0  -0.559149  -0.777581  0  2.031177  0
O  O311  1  0.33653550  0.59897910  0.86624846  1  -1.198199  0  -0.361354  -0.604688  0  2.074988  0
O  O312  1  0.31701726  0.38163811  0.84837373  1  -1.195083  0  -0.362827  -0.607859  0  2.104152  0
O  O313  1  0.43459334  0.59372422  0.77567049  1  -1.245296  0  -0.429383  -0.699024  0  2.305391  0
O  O314  1  0.18626788  0.59389526  0.73098529  1  -1.239466  0  -0.417387  -0.690392  0  2.275202  0
O  O315  1  0.44602574  0.41615068  0.78425617  1  -1.256333  0  -0.426648  -0.704895  0  2.289418  0
O  O316  1  0.13478377  0.49546523  0.84340109  1  -1.223068  0  -0.557541  -0.778459  0  2.022405  0
O  O317  1  0.08127754  0.60543548  0.64478711  1  -1.195624  0  -0.371197  -0.617082  0  2.104896  0
O  O318  1  0.42055388  0.39775156  0.35983350  1  -1.199966  0  -0.356053  -0.606483  0  2.071583  0
O  O319  1  0.31725171  0.40549302  0.27258249  1  -1.253607  0  -0.440622  -0.709752  0  2.316436  0
O  O320  1  0.10519905  0.49511058  0.34527547  1  -1.247506  0  -0.564316  -0.786327  0  2.008874  0
O  O321  1  0.18692715  0.60928943  0.15085787  1  -1.20723  0  -0.347977  -0.613326  0  2.13981  0
O  O322  1  0.17062489  0.38672661  0.14992478  1  -1.198547  0  -0.368572  -0.607058  0  2.094906  0
O  O323  1  0.05594481  0.57898843  0.21464492  1  -1.248289  0  -0.424794  -0.695649  0  2.281671  0
O  O324  1  0.29575694  0.58276516  0.28762817  1  -1.253519  0  -0.429827  -0.701842  0  2.288932  0
O  O325  1  0.05558780  0.40272119  0.23000383  1  -1.25646  0  -0.429895  -0.694985  0  2.274581  0
O  O326  1  0.35637491  0.51703488  0.15929667  1  -1.263643  0  -0.571215  -0.79483  0  2.002409  0
O  O327  1  0.42237748  0.61297348  0.35482478  1  -1.197756  0  -0.361809  -0.6116  0  2.106637  0
