# generated using pymatgen
data_CaPH13C3O11
_symmetry_space_group_name_H-M   'P 1'
_cell_length_a   5.74585671
_cell_length_b   7.69018397
_cell_length_c   12.31138695
_cell_angle_alpha   90.00004833
_cell_angle_beta   103.09263161
_cell_angle_gamma   89.99986657
_symmetry_Int_Tables_number   1
_chemical_formula_structural   CaPH13C3O11
_chemical_formula_sum   'Ca2 P2 H26 C6 O22'
_cell_volume   529.85829371
_cell_formula_units_Z   2
loop_
 _symmetry_equiv_pos_site_id
 _symmetry_equiv_pos_as_xyz
  1  'x, y, z'
loop_
 _atom_site_type_symbol
 _atom_site_label
 _atom_site_symmetry_multiplicity
 _atom_site_fract_x
 _atom_site_fract_y
 _atom_site_fract_z
 _atom_site_occupancy
 _atom_site_hle17_bader_spin_density
 _atom_site_hle17_ddec_charge
 _atom_site_hle17_ddec_spin_density
 _atom_site_hle17_ddec_sum_bond_order
 _atom_site_hle17_magmom
 _atom_site_hse06_10hf_bader_spin_density
 _atom_site_hse06_10hf_ddec_charge
 _atom_site_hse06_10hf_ddec_spin_density
 _atom_site_hse06_10hf_ddec_sum_bond_order
 _atom_site_hse06_10hf_magmom
 _atom_site_hse06_bader_spin_density
 _atom_site_hse06_ddec_charge
 _atom_site_hse06_ddec_spin_density
 _atom_site_hse06_ddec_sum_bond_order
 _atom_site_hse06_magmom
 _atom_site_pbe_bader_spin_density
 _atom_site_pbe_cm5_charge
 _atom_site_pbe_ddec_charge
 _atom_site_pbe_ddec_spin_density
 _atom_site_pbe_ddec_sum_bond_order
 _atom_site_pbe_magmom
Ca  Ca0  1  0.24279516  0.49892818  0.21742328  1  0  1.59834  0  1.025412  0  0  1.46395  0  1.375715  0  0  1.503225  0  1.332218  0  0  0.860365  1.434195  0  1.406927  0
Ca  Ca1  1  0.75720446  0.99892526  0.78257663  1  0  1.598343  0  1.025379  0  0  1.463974  0  1.375646  0  0  1.50324  0  1.332153  0  0  0.860389  1.434218  0  1.406863  0
P  P2  1  0.50781268  0.05796449  0.19310161  1  0  1.710107  0  4.85741  0  0  1.521512  0  5.382635  0  0  1.580133  0  5.328656  0  0  0.455041  1.480556  0  5.419483  0
P  P3  1  0.49218648  0.55796596  0.80689803  1  0  1.710101  0  4.857439  0  0  1.521506  0  5.382667  0  0  1.580126  0  5.328688  0  0  0.45504  1.480553  0  5.419507  0
H  H4  1  0.47237494  0.78429588  0.52713577  1  0  0.067803  0  0.917438  0  0  0.075126  0  0.982756  0  0  0.076829  0  0.981634  0  0  0.120482  0.073773  0  0.983845  0
H  H5  1  0.52762532  0.28429735  0.47286329  1  0  0.067809  0  0.917433  0  0  0.075119  0  0.982764  0  0  0.076822  0  0.981641  0  0  0.120475  0.073767  0  0.98385  0
H  H6  1  0.25808199  0.00361114  0.39301894  1  0  0.075928  0  0.923306  0  0  0.090748  0  0.983986  0  0  0.091887  0  0.983209  0  0  0.111259  0.089829  0  0.984643  0
H  H7  1  0.74191912  0.50361060  0.60698087  1  0  0.075917  0  0.923313  0  0  0.090735  0  0.983987  0  0  0.091873  0  0.98321  0  0  0.111256  0.089816  0  0.984642  0
H  H8  1  0.57874178  0.01774188  0.41615052  1  0  0.069798  0  0.954323  0  0  0.077914  0  1.029048  0  0  0.07969  0  1.02671  0  0  0.112205  0.076463  0  1.030906  0
H  H9  1  0.42126108  0.51774317  0.58384948  1  0  0.069778  0  0.954334  0  0  0.077859  0  1.029093  0  0  0.079636  0  1.026754  0  0  0.112175  0.07641  0  1.03095  0
H  H10  1  0.10504767  0.68591747  0.42316141  1  0  0.389378  0  0.911727  0  0  0.360322  0  0.986399  0  0  0.372247  0  0.969558  0  0  0.299102  0.351468  0  0.996373  0
H  H11  1  0.89495289  0.18591714  0.57683763  1  0  0.389324  0  0.911768  0  0  0.360307  0  0.986373  0  0  0.372231  0  0.969566  0  0  0.299104  0.351452  0  0.996341  0
H  H12  1  0.86776770  0.15960289  0.26722750  1  0  0.441123  0  0.858602  0  0  0.407068  0  0.926273  0  0  0.419417  0  0.908522  0  0  0.310414  0.398384  0  0.938743  0
H  H13  1  0.13223115  0.65960229  0.73277216  1  0  0.441133  0  0.858584  0  0  0.407083  0  0.926248  0  0  0.419432  0  0.908497  0  0  0.310421  0.398398  0  0.938719  0
H  H14  1  0.47538619  0.57620168  0.02556954  1  0  0.442793  0  0.857977  0  0  0.409507  0  0.922961  0  0  0.420407  0  0.907233  0  0  0.304145  0.401843  0  0.934005  0
H  H15  1  0.52461471  0.07620124  0.97443110  1  0  0.442834  0  0.85789  0  0  0.409512  0  0.922929  0  0  0.420412  0  0.907202  0  0  0.304166  0.401851  0  0.933969  0
H  H16  1  0.43428200  0.76021946  0.08008975  1  0  0.426511  0  0.879379  0  0  0.392906  0  0.947342  0  0  0.403469  0  0.931907  0  0  0.305463  0.385437  0  0.958245  0
H  H17  1  0.56571477  0.26021887  0.91990975  1  0  0.426517  0  0.879372  0  0  0.392906  0  0.947344  0  0  0.403469  0  0.93191  0  0  0.305468  0.385439  0  0.958247  0
H  H18  1  0.05765789  0.30552477  0.39860570  1  0  0.422908  0  0.879684  0  0  0.388133  0  0.950049  0  0  0.399503  0  0.933528  0  0  0.299173  0.38012  0  0.961658  0
H  H19  1  0.94234232  0.80552518  0.60139499  1  0  0.422919  0  0.879669  0  0  0.388146  0  0.950027  0  0  0.399516  0  0.933507  0  0  0.299198  0.380132  0  0.961637  0
H  H20  1  0.84861804  0.41704802  0.32577502  1  0  0.428264  0  0.875374  0  0  0.394956  0  0.942085  0  0  0.406964  0  0.924788  0  0  0.304581  0.38648  0  0.954268  0
H  H21  1  0.15138539  0.91704731  0.67422444  1  0  0.428264  0  0.875375  0  0  0.394957  0  0.94209  0  0  0.406968  0  0.924789  0  0  0.304564  0.386482  0  0.954274  0
H  H22  1  0.76140859  0.67632265  0.14115932  1  0  0.424211  0  0.880052  0  0  0.393706  0  0.942801  0  0  0.405025  0  0.926446  0  0  0.301223  0.385642  0  0.954432  0
H  H23  1  0.23859024  0.17632255  0.85884278  1  0  0.424163  0  0.880098  0  0  0.393652  0  0.942862  0  0  0.404971  0  0.926506  0  0  0.301186  0.385586  0  0.954494  0
H  H24  1  0.93254982  0.82865830  0.19288860  1  0  0.439356  0  0.840666  0  0  0.408365  0  0.908303  0  0  0.418343  0  0.893448  0  0  0.310944  0.401193  0  0.918997  0
H  H25  1  0.06744677  0.32865582  0.80711417  1  0  0.439288  0  0.840624  0  0  0.408292  0  0.908375  0  0  0.418269  0  0.893522  0  0  0.3109  0.401121  0  0.919066  0
H  H26  1  0.85288231  0.43764419  0.00368829  1  0  0.430781  0  0.867747  0  0  0.400934  0  0.928328  0  0  0.411292  0  0.913126  0  0  0.300584  0.393604  0  0.939078  0
H  H27  1  0.14711929  0.93764391  0.99631261  1  0  0.430768  0  0.867761  0  0  0.400919  0  0.928346  0  0  0.411276  0  0.913145  0  0  0.300583  0.393586  0  0.939098  0
H  H28  1  0.05238633  0.30805437  0.99283334  1  0  0.425754  0  0.864634  0  0  0.39876  0  0.921738  0  0  0.409321  0  0.905951  0  0  0.306025  0.391154  0  0.933121  0
H  H29  1  0.94761388  0.80805527  0.00716817  1  0  0.425727  0  0.864664  0  0  0.398739  0  0.921759  0  0  0.4093  0  0.905973  0  0  0.306024  0.391134  0  0.93314  0
C  C30  1  0.67241862  0.67382103  0.41524360  1  0  0.659784  0  3.83657  0  0  0.601678  0  4.148544  0  0  0.634111  0  4.141541  0  0  0.22739  0.579589  0  4.15276  0
C  C31  1  0.32758556  0.17381910  0.58475662  1  0  0.66001  0  3.836288  0  0  0.601806  0  4.148401  0  0  0.634243  0  4.141393  0  0  0.227446  0.579718  0  4.152621  0
C  C32  1  0.44767720  0.76173461  0.43664498  1  0  0.07541  0  3.677974  0  0  0.050367  0  3.937944  0  0  0.051633  0  3.945443  0  0  -0.003079  0.049184  0  3.933095  0
C  C33  1  0.55232490  0.26173486  0.56335344  1  0  0.075385  0  3.677948  0  0  0.050384  0  3.937911  0  0  0.05165  0  3.945407  0  0  -0.003007  0.049198  0  3.933063  0
C  C34  1  0.42038702  0.93917768  0.38028202  1  0  0.076214  0  3.606006  0  0  0.00537  0  3.880741  0  0  0.013277  0  3.883635  0  0  -0.060265  0.000191  0  3.878856  0
C  C35  1  0.57961278  0.43917796  0.61971789  1  0  0.076238  0  3.606029  0  0  0.005438  0  3.880711  0  0  0.013346  0  3.883605  0  0  -0.06027  0.000263  0  3.878824  0
O  O36  1  0.43826183  0.98385259  0.07536542  1  0  -0.887197  0  1.980906  0  0  -0.792179  0  2.203457  0  0  -0.819485  0  2.180583  0  0  -0.349163  -0.772928  0  2.219009  0
O  O37  1  0.56173605  0.48385202  0.92463512  1  0  -0.887171  0  1.980875  0  0  -0.792162  0  2.203416  0  0  -0.819466  0  2.180541  0  0  -0.349171  -0.77291  0  2.218968  0
O  O38  1  0.79016528  0.04269546  0.23770844  1  0  -0.793892  0  1.990006  0  0  -0.720902  0  2.215905  0  0  -0.742318  0  2.185775  0  0  -0.383442  -0.705839  0  2.23676  0
O  O39  1  0.20983393  0.54269476  0.76229120  1  0  -0.793904  0  1.990005  0  0  -0.720904  0  2.215901  0  0  -0.742318  0  2.185771  0  0  -0.383445  -0.705841  0  2.236755  0
O  O40  1  0.42733931  0.23742842  0.21440841  1  0  -0.940911  0  1.893587  0  0  -0.857513  0  2.161552  0  0  -0.885705  0  2.138951  0  0  -0.437348  -0.837206  0  2.176641  0
O  O41  1  0.57265753  0.73742582  0.78559189  1  0  -0.940895  0  1.893643  0  0  -0.857508  0  2.161612  0  0  -0.885694  0  2.139009  0  0  -0.437347  -0.837196  0  2.176693  0
O  O42  1  0.39794373  0.91370749  0.26261465  1  0  -0.536374  0  2.245037  0  0  -0.446409  0  2.497289  0  0  -0.46774  0  2.488515  0  0  -0.20888  -0.431536  0  2.503124  0
O  O43  1  0.60205792  0.41370789  0.73738462  1  0  -0.536391  0  2.245076  0  0  -0.446429  0  2.497314  0  0  -0.467762  0  2.48854  0  0  -0.208862  -0.431569  0  2.50316  0
O  O44  1  0.25049091  0.65081023  0.39459064  1  0  -0.639991  0  2.176703  0  0  -0.585496  0  2.421482  0  0  -0.603685  0  2.406618  0  0  -0.431857  -0.572  0  2.429734  0
O  O45  1  0.74951154  0.15080889  0.60540858  1  0  -0.639978  0  2.176713  0  0  -0.585519  0  2.421468  0  0  -0.603706  0  2.406629  0  0  -0.431908  -0.572023  0  2.429725  0
O  O46  1  0.64174223  0.55193445  0.34410320  1  0  -0.659074  0  2.030523  0  0  -0.59412  0  2.268095  0  0  -0.620836  0  2.25845  0  0  -0.321157  -0.575298  0  2.274125  0
O  O47  1  0.35826049  0.05193257  0.65589274  1  0  -0.659164  0  2.030451  0  0  -0.59418  0  2.268084  0  0  -0.620897  0  2.258431  0  0  -0.321194  -0.575357  0  2.274119  0
O  O48  1  0.87334893  0.73236565  0.46822412  1  0  -0.622429  0  2.00704  0  0  -0.56202  0  2.231389  0  0  -0.587058  0  2.219033  0  0  -0.304116  -0.544318  0  2.239191  0
O  O49  1  0.12664970  0.23236660  0.53177556  1  0  -0.622496  0  2.006939  0  0  -0.562075  0  2.231327  0  0  -0.587114  0  2.218975  0  0  -0.304122  -0.544366  0  2.239126  0
O  O50  1  0.46503415  0.63453845  0.09753597  1  0  -0.895853  0  1.86162  0  0  -0.833172  0  2.052481  0  0  -0.856353  0  2.021249  0  0  -0.612737  -0.81645  0  2.074097  0
O  O51  1  0.53496477  0.13453789  0.90246288  1  0  -0.895897  0  1.861572  0  0  -0.833173  0  2.052465  0  0  -0.856356  0  2.021236  0  0  -0.612763  -0.816452  0  2.074078  0
O  O52  1  0.98130064  0.33394066  0.31904600  1  0  -0.860201  0  1.878883  0  0  -0.795695  0  2.060465  0  0  -0.819215  0  2.027645  0  0  -0.581364  -0.778924  0  2.083229  0
O  O53  1  0.01869948  0.83394148  0.68095388  1  0  -0.860188  0  1.878863  0  0  -0.795707  0  2.060459  0  0  -0.819228  0  2.027629  0  0  -0.581366  -0.778936  0  2.083224  0
O  O54  1  0.93181315  0.71637487  0.15451956  1  0  -0.885256  0  1.831533  0  0  -0.824018  0  2.015328  0  0  -0.845231  0  1.983012  0  0  -0.60628  -0.808727  0  2.038083  0
O  O55  1  0.06818557  0.21637245  0.84548337  1  0  -0.885156  0  1.831539  0  0  -0.823912  0  2.015413  0  0  -0.845122  0  1.983101  0  0  -0.606196  -0.808613  0  2.038171  0
O  O56  1  0.00089685  0.38367226  0.04747903  1  0  -0.883305  0  1.778226  0  0  -0.829802  0  1.94858  0  0  -0.849148  0  1.916394  0  0  -0.628726  -0.81589  0  1.971225  0
O  O57  1  0.99910491  0.88367044  0.95252187  1  0  -0.883258  0  1.77823  0  0  -0.829763  0  1.94859  0  0  -0.849109  0  1.916409  0  0  -0.628726  -0.81585  0  1.971236  0
