# generated using pymatgen
data_CdH11C7S2N3O2
_symmetry_space_group_name_H-M   'P 1'
_cell_length_a   10.54352901
_cell_length_b   10.37868350
_cell_length_c   13.34906369
_cell_angle_alpha   90.00018112
_cell_angle_beta   89.99986384
_cell_angle_gamma   119.90604887
_symmetry_Int_Tables_number   1
_chemical_formula_structural   CdH11C7S2N3O2
_chemical_formula_sum   'Cd4 H44 C28 S8 N12 O8'
_cell_volume   1266.25180244
_cell_formula_units_Z   4
loop_
 _symmetry_equiv_pos_site_id
 _symmetry_equiv_pos_as_xyz
  1  'x, y, z'
loop_
 _atom_site_type_symbol
 _atom_site_label
 _atom_site_symmetry_multiplicity
 _atom_site_fract_x
 _atom_site_fract_y
 _atom_site_fract_z
 _atom_site_occupancy
 _atom_site_hle17_bader_spin_density
 _atom_site_hle17_ddec_charge
 _atom_site_hle17_ddec_spin_density
 _atom_site_hle17_ddec_sum_bond_order
 _atom_site_hle17_magmom
 _atom_site_hse06_10hf_bader_spin_density
 _atom_site_hse06_10hf_ddec_charge
 _atom_site_hse06_10hf_ddec_spin_density
 _atom_site_hse06_10hf_ddec_sum_bond_order
 _atom_site_hse06_10hf_magmom
 _atom_site_hse06_bader_spin_density
 _atom_site_hse06_ddec_charge
 _atom_site_hse06_ddec_spin_density
 _atom_site_hse06_ddec_sum_bond_order
 _atom_site_hse06_magmom
 _atom_site_pbe_bader_spin_density
 _atom_site_pbe_cm5_charge
 _atom_site_pbe_ddec_charge
 _atom_site_pbe_ddec_spin_density
 _atom_site_pbe_ddec_sum_bond_order
 _atom_site_pbe_magmom
Cd  Cd0  1  0.29178164  0.08994729  0.93973540  1  0  0.99326  0  1.951084  0  0  0.824422  0  2.424837  0  0  0.870752  0  2.383093  0  0  0.703313  0.793834  0  2.449914  0
Cd  Cd1  1  0.70823318  0.41004592  0.43974828  1  0  0.993288  0  1.951062  0  0  0.824475  0  2.424814  0  0  0.870803  0  2.38307  0  0  0.703307  0.793886  0  2.449892  0
Cd  Cd2  1  0.70822536  0.91005804  0.06025939  1  0  0.993267  0  1.950885  0  0  0.824443  0  2.424598  0  0  0.870772  0  2.382856  0  0  0.703285  0.793862  0  2.44965  0
Cd  Cd3  1  0.29179583  0.58994824  0.56026749  1  0  0.993299  0  1.951175  0  0  0.824498  0  2.424931  0  0  0.87082  0  2.383186  0  0  0.703354  0.793917  0  2.450005  0
H  H4  1  0.50015389  0.50429475  0.71297002  1  0  0.079685  0  0.933344  0  0  0.086561  0  0.99978  0  0  0.087911  0  0.999962  0  0  0.115316  0.085435  0  0.999886  0
H  H5  1  0.49985117  0.99572206  0.21297828  1  0  0.079696  0  0.933328  0  0  0.086552  0  0.999792  0  0  0.087899  0  0.999974  0  0  0.11528  0.085425  0  0.999894  0
H  H6  1  0.49984527  0.49571393  0.28702028  1  0  0.079686  0  0.933269  0  0  0.086594  0  0.999699  0  0  0.087944  0  0.999878  0  0  0.115316  0.085468  0  0.999798  0
H  H7  1  0.50013968  0.00427551  0.78702325  1  0  0.07968  0  0.93331  0  0  0.086553  0  0.999759  0  0  0.087904  0  0.999934  0  0  0.115249  0.085423  0  0.999861  0
H  H8  1  0.50949113  0.68859364  0.79985200  1  0  0.347449  0  0.878373  0  0  0.324713  0  0.944015  0  0  0.33381  0  0.936499  0  0  0.308342  0.318239  0  0.949328  0
H  H9  1  0.49051025  0.81141233  0.29984557  1  0  0.347675  0  0.878042  0  0  0.324879  0  0.943792  0  0  0.333977  0  0.936274  0  0  0.308382  0.318406  0  0.949104  0
H  H10  1  0.49050570  0.31140837  0.20014579  1  0  0.347489  0  0.878307  0  0  0.324707  0  0.944016  0  0  0.333802  0  0.936502  0  0  0.30835  0.318231  0  0.949331  0
H  H11  1  0.50948862  0.18859190  0.70015222  1  0  0.347632  0  0.878109  0  0  0.324781  0  0.943918  0  0  0.33388  0  0.936399  0  0  0.308359  0.318306  0  0.949231  0
H  H12  1  0.65048070  0.71004109  0.87211163  1  0  0.327416  0  0.871781  0  0  0.306933  0  0.938977  0  0  0.313876  0  0.933782  0  0  0.312866  0.301826  0  0.943216  0
H  H13  1  0.34952652  0.78996176  0.37210768  1  0  0.327383  0  0.871775  0  0  0.306915  0  0.938942  0  0  0.313856  0  0.933749  0  0  0.312864  0.301809  0  0.94318  0
H  H14  1  0.34951499  0.28995091  0.12788541  1  0  0.327385  0  0.871809  0  0  0.307007  0  0.938892  0  0  0.313949  0  0.933702  0  0  0.312933  0.301896  0  0.943142  0
H  H15  1  0.65047789  0.21004023  0.62789610  1  0  0.327356  0  0.871743  0  0  0.306914  0  0.938886  0  0  0.313856  0  0.933691  0  0  0.312857  0.301806  0  0.943131  0
H  H16  1  0.48084068  0.58221801  0.90543083  1  0  0.34591  0  0.833204  0  0  0.325346  0  0.894226  0  0  0.333735  0  0.88734  0  0  0.321091  0.319711  0  0.898778  0
H  H17  1  0.51916107  0.91778162  0.40542612  1  0  0.34591  0  0.833246  0  0  0.325325  0  0.894276  0  0  0.333715  0  0.887387  0  0  0.321097  0.31969  0  0.898826  0
H  H18  1  0.51915192  0.41777733  0.09456546  1  0  0.345954  0  0.833104  0  0  0.32531  0  0.894245  0  0  0.333698  0  0.88736  0  0  0.321094  0.319674  0  0.898794  0
H  H19  1  0.48084010  0.08222150  0.59456942  1  0  0.345959  0  0.833135  0  0  0.325346  0  0.89422  0  0  0.333735  0  0.887333  0  0  0.321084  0.319712  0  0.89877  0
H  H20  1  0.69770744  0.44908061  0.72302514  1  0  0.048093  0  0.943098  0  0  0.060686  0  1.005313  0  0  0.060672  0  1.006855  0  0  0.093805  0.060581  0  1.004339  0
H  H21  1  0.30228506  0.05091418  0.22302440  1  0  0.047969  0  0.943079  0  0  0.060583  0  1.005329  0  0  0.060579  0  1.006816  0  0  0.093787  0.060492  0  1.004367  0
H  H22  1  0.30228013  0.55091029  0.27697340  1  0  0.048037  0  0.943082  0  0  0.060622  0  1.005327  0  0  0.06062  0  1.006823  0  0  0.093812  0.060521  0  1.004391  0
H  H23  1  0.69771013  0.94908450  0.77697264  1  0  0.048047  0  0.943071  0  0  0.060671  0  1.005259  0  0  0.060663  0  1.006785  0  0  0.093795  0.060577  0  1.004296  0
H  H24  1  0.73942925  0.66756269  0.62864797  1  0  0.093309  0  0.980611  0  0  0.110489  0  1.052409  0  0  0.111055  0  1.053886  0  0  0.076943  0.110007  0  1.051365  0
H  H25  1  0.26055685  0.83243053  0.12864505  1  0  0.093306  0  0.98063  0  0  0.110456  0  1.05246  0  0  0.111016  0  1.053945  0  0  0.076948  0.109973  0  1.051413  0
H  H26  1  0.26056265  0.33242932  0.37134982  1  0  0.093266  0  0.980677  0  0  0.110458  0  1.052474  0  0  0.111021  0  1.053953  0  0  0.076967  0.109979  0  1.051423  0
H  H27  1  0.73942911  0.16756483  0.87135573  1  0  0.093356  0  0.980548  0  0  0.110474  0  1.05241  0  0  0.111036  0  1.053892  0  0  0.076923  0.10999  0  1.051366  0
H  H28  1  0.90577520  0.70671230  0.68815990  1  0  0.106231  0  0.965408  0  0  0.124127  0  1.030779  0  0  0.125694  0  1.030996  0  0  0.082265  0.122947  0  1.030978  0
H  H29  1  0.09421641  0.79328666  0.18816320  1  0  0.106147  0  0.965416  0  0  0.124028  0  1.030819  0  0  0.125584  0  1.031048  0  0  0.082204  0.122849  0  1.031015  0
H  H30  1  0.09421357  0.29327526  0.31184238  1  0  0.10613  0  0.965329  0  0  0.124032  0  1.030731  0  0  0.125593  0  1.030955  0  0  0.082218  0.122853  0  1.030924  0
H  H31  1  0.90576985  0.20671315  0.81184133  1  0  0.106313  0  0.965359  0  0  0.124187  0  1.030756  0  0  0.125764  0  1.030962  0  0  0.082304  0.123007  0  1.030955  0
H  H32  1  0.80138802  0.78227045  0.73652754  1  0  0.092667  0  0.984802  0  0  0.115194  0  1.046853  0  0  0.115702  0  1.048404  0  0  0.080547  0.11468  0  1.046008  0
H  H33  1  0.19860553  0.71772310  0.23652294  1  0  0.092694  0  0.984806  0  0  0.115202  0  1.046878  0  0  0.115709  0  1.048427  0  0  0.080551  0.114688  0  1.046029  0
H  H34  1  0.19860728  0.21772266  0.26347250  1  0  0.092684  0  0.984813  0  0  0.115196  0  1.046895  0  0  0.115703  0  1.048444  0  0  0.080556  0.11468  0  1.046046  0
H  H35  1  0.80138682  0.28227559  0.76347784  1  0  0.092745  0  0.984809  0  0  0.115301  0  1.046801  0  0  0.11581  0  1.04835  0  0  0.080591  0.114787  0  1.045956  0
H  H36  1  0.89953910  0.57004322  0.84826159  1  0  0.107183  0  0.970176  0  0  0.125783  0  1.036308  0  0  0.127429  0  1.03659  0  0  0.080082  0.124774  0  1.036006  0
H  H37  1  0.10045336  0.92995068  0.34825999  1  0  0.107318  0  0.970022  0  0  0.125932  0  1.03612  0  0  0.127575  0  1.036406  0  0  0.08016  0.124926  0  1.035814  0
H  H38  1  0.10044439  0.42994324  0.15173769  1  0  0.107291  0  0.969979  0  0  0.12589  0  1.036119  0  0  0.127524  0  1.036412  0  0  0.080094  0.124882  0  1.035811  0
H  H39  1  0.89954901  0.07004910  0.65174079  1  0  0.107324  0  0.969997  0  0  0.125943  0  1.036106  0  0  0.127586  0  1.036391  0  0  0.080156  0.124934  0  1.035803  0
H  H40  1  0.73082888  0.44523339  0.90635406  1  0  0.102988  0  0.954074  0  0  0.124238  0  1.014365  0  0  0.125493  0  1.014681  0  0  0.083562  0.123216  0  1.0144  0
H  H41  1  0.26916677  0.05476309  0.40635190  1  0  0.103036  0  0.954052  0  0  0.124259  0  1.014375  0  0  0.125515  0  1.01469  0  0  0.083578  0.123238  0  1.01441  0
H  H42  1  0.26915894  0.55475417  0.09364522  1  0  0.102994  0  0.954099  0  0  0.124267  0  1.014358  0  0  0.125524  0  1.014672  0  0  0.083588  0.123244  0  1.014392  0
H  H43  1  0.73083684  0.94524114  0.59364739  1  0  0.103042  0  0.95409  0  0  0.124306  0  1.014366  0  0  0.125566  0  1.014675  0  0  0.083602  0.123279  0  1.014411  0
H  H44  1  0.80204785  0.64036807  0.91468891  1  0  0.105194  0  0.967268  0  0  0.126216  0  1.028054  0  0  0.127733  0  1.028022  0  0  0.083457  0.125156  0  1.028078  0
H  H45  1  0.19794980  0.85962715  0.41468843  1  0  0.105154  0  0.96729  0  0  0.126212  0  1.028036  0  0  0.127728  0  1.028012  0  0  0.083469  0.125151  0  1.028061  0
H  H46  1  0.19794700  0.35961837  0.08531037  1  0  0.105119  0  0.967253  0  0  0.126161  0  1.028041  0  0  0.127676  0  1.028016  0  0  0.083453  0.1251  0  1.028066  0
H  H47  1  0.80205351  0.14037262  0.58531160  1  0  0.105175  0  0.967245  0  0  0.126219  0  1.028018  0  0  0.127735  0  1.027993  0  0  0.083446  0.12516  0  1.028042  0
C  C48  1  0.94211805  0.96909480  0.87801397  1  0  0.32537  0  3.982596  0  0  0.303417  0  4.27939  0  0  0.326079  0  4.295368  0  0  0.166357  0.288582  0  4.268259  0
C  C49  1  0.05790521  0.53092139  0.37802265  1  0  0.325383  0  3.982777  0  0  0.303416  0  4.279617  0  0  0.326075  0  4.295599  0  0  0.166352  0.288586  0  4.268472  0
C  C50  1  0.05788964  0.03091387  0.12198831  1  0  0.325283  0  3.983241  0  0  0.303323  0  4.280043  0  0  0.32598  0  4.296024  0  0  0.166312  0.288493  0  4.268904  0
C  C51  1  0.94214415  0.46910833  0.62199162  1  0  0.325359  0  3.982655  0  0  0.303407  0  4.279468  0  0  0.32607  0  4.295439  0  0  0.166282  0.288572  0  4.268339  0
C  C52  1  0.38473879  0.83153363  0.94582659  1  0  0.30777  0  3.995716  0  0  0.288316  0  4.294849  0  0  0.310604  0  4.308908  0  0  0.154458  0.273297  0  4.285448  0
C  C53  1  0.61525988  0.66845612  0.44583378  1  0  0.307811  0  3.995135  0  0  0.288361  0  4.294288  0  0  0.310647  0  4.308333  0  0  0.154545  0.273346  0  4.28488  0
C  C54  1  0.61525145  0.16847618  0.05417495  1  0  0.307845  0  3.99488  0  0  0.288401  0  4.294003  0  0  0.310687  0  4.30806  0  0  0.154557  0.273383  0  4.284603  0
C  C55  1  0.38475451  0.33153919  0.55417000  1  0  0.307845  0  3.995401  0  0  0.288399  0  4.294521  0  0  0.310684  0  4.308567  0  0  0.154646  0.273382  0  4.285117  0
C  C56  1  0.45946426  0.36381486  0.83968288  1  0  0.632384  0  3.875545  0  0  0.580762  0  4.179508  0  0  0.613398  0  4.174634  0  0  0.202254  0.558727  0  4.182052  0
C  C57  1  0.54054250  0.13619028  0.33967890  1  0  0.632455  0  3.875629  0  0  0.580867  0  4.179561  0  0  0.613499  0  4.174692  0  0  0.202279  0.558833  0  4.1821  0
C  C58  1  0.54053257  0.63618715  0.16030742  1  0  0.632415  0  3.875668  0  0  0.580786  0  4.179671  0  0  0.613419  0  4.1748  0  0  0.20227  0.558751  0  4.182211  0
C  C59  1  0.45944949  0.86381730  0.66030616  1  0  0.632809  0  3.875232  0  0  0.581197  0  4.179197  0  0  0.613832  0  4.174314  0  0  0.202384  0.55916  0  4.181744  0
C  C60  1  0.55310140  0.51134207  0.78527991  1  0  0.022325  0  3.492467  0  0  0.001111  0  3.725216  0  0  0.000109  0  3.736562  0  0  0.011792  0.001771  0  3.717446  0
C  C61  1  0.44689781  0.98865940  0.28528452  1  0  0.022218  0  3.492625  0  0  0.001056  0  3.725344  0  0  4.4e-05  0  3.736671  0  0  0.01182  0.001731  0  3.717586  0
C  C62  1  0.44689393  0.48865883  0.21471113  1  0  0.022404  0  3.492378  0  0  0.001173  0  3.725136  0  0  0.000168  0  3.736463  0  0  0.011833  0.001852  0  3.717375  0
C  C63  1  0.55309818  0.01133705  0.71471626  1  0  0.022259  0  3.492494  0  0  0.001073  0  3.725209  0  0  7.5e-05  0  3.736552  0  0  0.011898  0.001753  0  3.717448  0
C  C64  1  0.71036101  0.54434463  0.76691821  1  0  0.070228  0  3.652162  0  0  0.078551  0  3.887834  0  0  0.078137  0  3.90679  0  0  -0.092039  0.078953  0  3.874717  0
C  C65  1  0.28963399  0.95565013  0.26691705  1  0  0.070243  0  3.651927  0  0  0.078513  0  3.887651  0  0  0.078156  0  3.906528  0  0  -0.092069  0.078847  0  3.874646  0
C  C66  1  0.28963184  0.45564738  0.23308182  1  0  0.070038  0  3.652026  0  0  0.07834  0  3.887769  0  0  0.077964  0  3.906667  0  0  -0.092146  0.078669  0  3.874759  0
C  C67  1  0.71036120  0.04434855  0.73308223  1  0  0.070254  0  3.652098  0  0  0.078588  0  3.887735  0  0  0.078175  0  3.906695  0  0  -0.092004  0.07892  0  3.87473  0
C  C68  1  0.79343590  0.68283170  0.70151822  1  0  -0.321908  0  3.671831  0  0  -0.400239  0  3.907772  0  0  -0.403015  0  3.91933  0  0  -0.254708  -0.397943  0  3.899702  0
C  C69  1  0.20655430  0.81716063  0.20151686  1  0  -0.321817  0  3.671731  0  0  -0.400061  0  3.907647  0  0  -0.402847  0  3.919212  0  0  -0.254656  -0.397752  0  3.899609  0
C  C70  1  0.20655396  0.31715809  0.29848107  1  0  -0.321698  0  3.671691  0  0  -0.400008  0  3.907621  0  0  -0.402794  0  3.919181  0  0  -0.254667  -0.397704  0  3.899603  0
C  C71  1  0.79343166  0.18283473  0.79848317  1  0  -0.322102  0  3.671759  0  0  -0.400389  0  3.907729  0  0  -0.403181  0  3.919289  0  0  -0.254778  -0.398071  0  3.899668  0
C  C72  1  0.78932085  0.55042859  0.86479093  1  0  -0.328334  0  3.658871  0  0  -0.403449  0  3.890423  0  0  -0.406468  0  3.900563  0  0  -0.25395  -0.401304  0  3.88361  0
C  C73  1  0.21067119  0.94956647  0.36479065  1  0  -0.328424  0  3.658631  0  0  -0.403572  0  3.890213  0  0  -0.406605  0  3.900341  0  0  -0.254047  -0.401403  0  3.883411  0
C  C74  1  0.21066752  0.44956008  0.13520836  1  0  -0.328323  0  3.65857  0  0  -0.403483  0  3.890116  0  0  -0.406502  0  3.900263  0  0  -0.253976  -0.40131  0  3.883312  0
C  C75  1  0.78932888  0.05043442  0.63521163  1  0  -0.328484  0  3.658749  0  0  -0.403658  0  3.890279  0  0  -0.406678  0  3.90042  0  0  -0.254068  -0.401489  0  3.88349  0
S  S76  1  0.08573242  0.05863963  0.80810536  1  0  -0.290038  0  2.20174  0  0  -0.256885  0  2.516345  0  0  -0.275183  0  2.51128  0  0  -0.11033  -0.246051  0  2.519526  0
S  S77  1  0.91429839  0.44137760  0.30810967  1  0  -0.290077  0  2.201825  0  0  -0.256927  0  2.516434  0  0  -0.27522  0  2.511364  0  0  -0.110355  -0.246088  0  2.519608  0
S  S78  1  0.91427924  0.94135011  0.19189917  1  0  -0.290094  0  2.201653  0  0  -0.256944  0  2.516241  0  0  -0.275241  0  2.511171  0  0  -0.110373  -0.246106  0  2.519416  0
S  S79  1  0.08575162  0.55864767  0.69190235  1  0  -0.289912  0  2.201847  0  0  -0.256787  0  2.516499  0  0  -0.275081  0  2.511431  0  0  -0.110225  -0.245952  0  2.519679  0
S  S80  1  0.23271621  0.81683666  0.90348592  1  0  -0.312329  0  2.177837  0  0  -0.272344  0  2.489768  0  0  -0.290485  0  2.482411  0  0  -0.120157  -0.259984  0  2.493672  0
S  S81  1  0.76727700  0.68313406  0.40348161  1  0  -0.312394  0  2.177486  0  0  -0.272441  0  2.489462  0  0  -0.290575  0  2.482097  0  0  -0.120247  -0.260075  0  2.493365  0
S  S82  1  0.76726731  0.18315759  0.09652910  1  0  -0.312434  0  2.177441  0  0  -0.272442  0  2.489333  0  0  -0.290581  0  2.48197  0  0  -0.120217  -0.260085  0  2.493239  0
S  S83  1  0.23273032  0.31685459  0.59651618  1  0  -0.312453  0  2.177478  0  0  -0.2725  0  2.489445  0  0  -0.290635  0  2.482078  0  0  -0.120291  -0.260134  0  2.493349  0
N  N84  1  0.83166324  0.90062969  0.92413333  1  0  -0.574074  0  2.921769  0  0  -0.512997  0  3.201916  0  0  -0.535588  0  3.207239  0  0  -0.40443  -0.497884  0  3.197405  0
N  N85  1  0.16835537  0.59938888  0.42414572  1  0  -0.574098  0  2.921872  0  0  -0.512966  0  3.201909  0  0  -0.535556  0  3.207234  0  0  -0.404409  -0.497851  0  3.197389  0
N  N86  1  0.16832357  0.09937122  0.07585922  1  0  -0.573971  0  2.922339  0  0  -0.512916  0  3.2025  0  0  -0.535508  0  3.207829  0  0  -0.40438  -0.4978  0  3.197984  0
N  N87  1  0.83168565  0.40065088  0.57586705  1  0  -0.574265  0  2.921888  0  0  -0.513192  0  3.202057  0  0  -0.535783  0  3.207373  0  0  -0.404505  -0.498076  0  3.197549  0
N  N88  1  0.49515180  0.83997404  0.97355128  1  0  -0.5287  0  2.877748  0  0  -0.473031  0  3.15794  0  0  -0.494728  0  3.165251  0  0  -0.390815  -0.458551  0  3.152417  0
N  N89  1  0.50485942  0.66004136  0.47355867  1  0  -0.528676  0  2.877613  0  0  -0.472984  0  3.157742  0  0  -0.494707  0  3.165115  0  0  -0.390843  -0.458515  0  3.152244  0
N  N90  1  0.50484361  0.16004243  0.02644726  1  0  -0.528667  0  2.877354  0  0  -0.472972  0  3.157516  0  0  -0.494679  0  3.16485  0  0  -0.390853  -0.458502  0  3.15201  0
N  N91  1  0.49515218  0.33996174  0.52644736  1  0  -0.528678  0  2.877926  0  0  -0.472983  0  3.158059  0  0  -0.494686  0  3.165397  0  0  -0.390885  -0.458517  0  3.152563  0
N  N92  1  0.54871707  0.63223864  0.84435912  1  0  -0.502022  0  3.168776  0  0  -0.455128  0  3.369218  0  0  -0.469604  0  3.365728  0  0  -0.603659  -0.445467  0  3.372189  0
N  N93  1  0.45128640  0.86776413  0.34435517  1  0  -0.502199  0  3.168837  0  0  -0.455264  0  3.369332  0  0  -0.469738  0  3.365839  0  0  -0.603688  -0.445595  0  3.372286  0
N  N94  1  0.45127757  0.36775893  0.15563717  1  0  -0.502104  0  3.168883  0  0  -0.455212  0  3.369298  0  0  -0.46969  0  3.365815  0  0  -0.603727  -0.445536  0  3.372248  0
N  N95  1  0.54871367  0.13223676  0.65564262  1  0  -0.502209  0  3.168682  0  0  -0.455235  0  3.369207  0  0  -0.469711  0  3.365711  0  0  -0.603671  -0.445569  0  3.37217  0
O  O96  1  0.44772582  0.24604447  0.80040882  1  0  -0.637437  0  2.008975  0  0  -0.576351  0  2.252176  0  0  -0.60473  0  2.244432  0  0  -0.324458  -0.55596  0  2.256267  0
O  O97  1  0.55228298  0.25395499  0.30041187  1  0  -0.637318  0  2.009163  0  0  -0.576295  0  2.252358  0  0  -0.604666  0  2.244618  0  0  -0.324394  -0.555907  0  2.256451  0
O  O98  1  0.55228048  0.75395753  0.19958896  1  0  -0.637374  0  2.009  0  0  -0.576315  0  2.252212  0  0  -0.604694  0  2.244474  0  0  -0.324422  -0.555925  0  2.256302  0
O  O99  1  0.44770823  0.74603368  0.69957843  1  0  -0.637703  0  2.008837  0  0  -0.576676  0  2.252096  0  0  -0.605059  0  2.244349  0  0  -0.324562  -0.556281  0  2.256191  0
O  O100  1  0.39787688  0.36463086  0.92080848  1  0  -0.612576  0  1.959359  0  0  -0.556369  0  2.191862  0  0  -0.5823  0  2.183707  0  0  -0.321849  -0.538524  0  2.196725  0
O  O101  1  0.60212648  0.13536787  0.42081411  1  0  -0.612653  0  1.959139  0  0  -0.556487  0  2.191652  0  0  -0.582444  0  2.183545  0  0  -0.321955  -0.538634  0  2.196505  0
O  O102  1  0.60211736  0.63536782  0.07917957  1  0  -0.612679  0  1.959427  0  0  -0.556461  0  2.191917  0  0  -0.582405  0  2.183788  0  0  -0.321897  -0.538617  0  2.196784  0
O  O103  1  0.39788544  0.86464746  0.57918068  1  0  -0.612663  0  1.959477  0  0  -0.556505  0  2.192008  0  0  -0.58243  0  2.183853  0  0  -0.321937  -0.538674  0  2.196901  0
