# generated using pymatgen
data_AgH4C6S6(OF)3
_symmetry_space_group_name_H-M   'P 1'
_cell_length_a   7.62869939
_cell_length_b   9.43454708
_cell_length_c   18.40448204
_cell_angle_alpha   99.54044529
_cell_angle_beta   91.28537665
_cell_angle_gamma   100.93795034
_symmetry_Int_Tables_number   1
_chemical_formula_structural   AgH4C6S6(OF)3
_chemical_formula_sum   'Ag4 H16 C24 S24 O12 F12'
_cell_volume   1280.59171771
_cell_formula_units_Z   4
loop_
 _symmetry_equiv_pos_site_id
 _symmetry_equiv_pos_as_xyz
  1  'x, y, z'
loop_
 _atom_site_type_symbol
 _atom_site_label
 _atom_site_symmetry_multiplicity
 _atom_site_fract_x
 _atom_site_fract_y
 _atom_site_fract_z
 _atom_site_occupancy
 _atom_site_hle17_bader_spin_density
 _atom_site_hle17_ddec_charge
 _atom_site_hle17_ddec_spin_density
 _atom_site_hle17_ddec_sum_bond_order
 _atom_site_hle17_magmom
 _atom_site_hse06_10hf_bader_spin_density
 _atom_site_hse06_10hf_ddec_charge
 _atom_site_hse06_10hf_ddec_spin_density
 _atom_site_hse06_10hf_ddec_sum_bond_order
 _atom_site_hse06_10hf_magmom
 _atom_site_hse06_bader_spin_density
 _atom_site_hse06_ddec_charge
 _atom_site_hse06_ddec_spin_density
 _atom_site_hse06_ddec_sum_bond_order
 _atom_site_hse06_magmom
 _atom_site_pbe_bader_spin_density
 _atom_site_pbe_cm5_charge
 _atom_site_pbe_ddec_charge
 _atom_site_pbe_ddec_spin_density
 _atom_site_pbe_ddec_sum_bond_order
 _atom_site_pbe_magmom
Ag  Ag0  1  0.73973058  0.50014299  0.51384362  1  0  0.427462  0  1.748127  0  0  0.348031  0  2.219562  0  0  0.365368  0  2.181258  0  0  0.328066  0.336616  0  2.245559  0
Ag  Ag1  1  0.26027800  0.49985595  0.48615703  1  0  0.427458  0  1.748144  0  0  0.348033  0  2.219597  0  0  0.365375  0  2.181278  0  0  0.32813  0.336666  0  2.245609  0
Ag  Ag2  1  0.01465884  0.86759383  0.83911971  1  0  0.539829  0  1.440089  0  0  0.431759  0  1.896929  0  0  0.452873  0  1.852789  0  0  0.408019  0.416533  0  1.927872  0
Ag  Ag3  1  0.98533876  0.13240290  0.16088394  1  0  0.539841  0  1.440163  0  0  0.431798  0  1.897014  0  0  0.452911  0  1.852813  0  0  0.40806  0.416598  0  1.927909  0
H  H4  1  0.40397903  0.00246657  0.05371951  1  0  0.127748  0  0.918925  0  0  0.14691  0  0.971109  0  0  0.147582  0  0.972098  0  0  0.113191  0.146317  0  0.970571  0
H  H5  1  0.59602116  0.99753575  0.94627923  1  0  0.12779  0  0.918886  0  0  0.14697  0  0.971054  0  0  0.147645  0  0.972041  0  0  0.113226  0.146426  0  0.970439  0
H  H6  1  0.62690367  0.98711847  0.08113484  1  0  0.105481  0  0.952642  0  0  0.116177  0  1.020957  0  0  0.117918  0  1.01974  0  0  0.096465  0.114709  0  1.022076  0
H  H7  1  0.37309938  0.01288498  0.91886185  1  0  0.10548  0  0.952634  0  0  0.116174  0  1.020955  0  0  0.117917  0  1.019723  0  0  0.096524  0.114788  0  1.022043  0
H  H8  1  0.62305648  0.23945154  0.05879271  1  0  0.137265  0  0.911182  0  0  0.154533  0  0.964651  0  0  0.1559  0  0.964333  0  0  0.11358  0.15347  0  0.965054  0
H  H9  1  0.37693850  0.76055075  0.94120871  1  0  0.137319  0  0.911166  0  0  0.15458  0  0.964625  0  0  0.15589  0  0.964471  0  0  0.113612  0.153533  0  0.964975  0
H  H10  1  0.45188678  0.25767266  0.12314259  1  0  0.128934  0  0.922833  0  0  0.142693  0  0.981707  0  0  0.144211  0  0.981498  0  0  0.105609  0.141643  0  0.981927  0
H  H11  1  0.54811079  0.74232412  0.87685834  1  0  0.128934  0  0.922702  0  0  0.142684  0  0.981599  0  0  0.144198  0  0.981391  0  0  0.105549  0.141578  0  0.981835  0
H  H12  1  0.30489906  0.18224790  0.79355940  1  0  0.097251  0  0.962628  0  0  0.102296  0  1.040235  0  0  0.103626  0  1.04041  0  0  0.090533  0.101345  0  1.040168  0
H  H13  1  0.69509904  0.81775110  0.20644120  1  0  0.097276  0  0.962565  0  0  0.102319  0  1.040165  0  0  0.10366  0  1.040335  0  0  0.090513  0.101345  0  1.040077  0
H  H14  1  0.12391983  0.27268246  0.81619937  1  0  0.127638  0  0.933394  0  0  0.138369  0  0.994345  0  0  0.140197  0  0.993104  0  0  0.103346  0.136892  0  0.995587  0
H  H15  1  0.87608168  0.72731983  0.18380046  1  0  0.127654  0  0.933393  0  0  0.138391  0  0.99433  0  0  0.140499  0  0.992731  0  0  0.103344  0.136919  0  0.995544  0
H  H16  1  0.10675317  0.32470656  0.68480141  1  0  0.110547  0  0.955763  0  0  0.122813  0  1.021272  0  0  0.124156  0  1.02145  0  0  0.089314  0.121791  0  1.021263  0
H  H17  1  0.89325121  0.67529131  0.31519858  1  0  0.110506  0  0.955787  0  0  0.122791  0  1.021313  0  0  0.124135  0  1.021501  0  0  0.089256  0.121725  0  1.021277  0
H  H18  1  0.31603093  0.40524531  0.73267368  1  0  0.114251  0  0.935537  0  0  0.126773  0  1.000324  0  0  0.127681  0  1.000491  0  0  0.099605  0.126001  0  1.000407  0
H  H19  1  0.68397424  0.59475586  0.26732607  1  0  0.114245  0  0.935559  0  0  0.126802  0  1.000321  0  0  0.127717  0  1.000478  0  0  0.099616  0.126059  0  1.000375  0
C  C20  1  0.51888425  0.23356902  0.38587060  1  0  -0.030256  0  3.788615  0  0  -0.024477  0  4.091275  0  0  -0.010441  0  4.107365  0  0  -0.005578  -0.033326  0  4.079543  0
C  C21  1  0.48110388  0.76643227  0.61412743  1  0  -0.030252  0  3.788605  0  0  -0.024472  0  4.091257  0  0  -0.010436  0  4.107346  0  0  -0.005588  -0.033299  0  4.079562  0
C  C22  1  0.50334422  0.09582332  0.25056756  1  0  -0.067961  0  3.783175  0  0  -0.055158  0  4.069075  0  0  -0.052457  0  4.090633  0  0  -0.017447  -0.057693  0  4.055602  0
C  C23  1  0.49666071  0.90417673  0.74943372  1  0  -0.068047  0  3.783012  0  0  -0.055267  0  4.068957  0  0  -0.052545  0  4.090448  0  0  -0.017552  -0.057824  0  4.055542  0
C  C24  1  0.51310597  0.03931388  0.09669972  1  0  -0.136411  0  3.613901  0  0  -0.171587  0  3.873341  0  0  -0.171547  0  3.885345  0  0  -0.143175  -0.171565  0  3.865313  0
C  C25  1  0.48689260  0.96068187  0.90329787  1  0  -0.136428  0  3.613935  0  0  -0.171641  0  3.873371  0  0  -0.171605  0  3.885353  0  0  -0.143039  -0.171495  0  3.865192  0
C  C26  1  0.56543517  0.20468131  0.10866973  1  0  -0.140688  0  3.60982  0  0  -0.180026  0  3.874873  0  0  -0.180222  0  3.886414  0  0  -0.143354  -0.179662  0  3.866833  0
C  C27  1  0.43455636  0.79531775  0.89132920  1  0  -0.140819  0  3.609942  0  0  -0.180124  0  3.874955  0  0  -0.180378  0  3.886659  0  0  -0.143408  -0.179757  0  3.866874  0
C  C28  1  0.63449691  0.21922808  0.25461271  1  0  -0.1124  0  3.764514  0  0  -0.10136  0  4.053585  0  0  -0.102504  0  4.074759  0  0  -0.033674  -0.100581  0  4.039241  0
C  C29  1  0.36550121  0.78077089  0.74538897  1  0  -0.112319  0  3.764293  0  0  -0.101264  0  4.053366  0  0  -0.102408  0  4.074521  0  0  -0.033684  -0.10053  0  4.039078  0
C  C30  1  0.05144255  0.80622524  0.52836076  1  0  -0.038935  0  3.797692  0  0  -0.031968  0  4.106468  0  0  -0.017313  0  4.122009  0  0  -0.00704  -0.041229  0  4.095377  0
C  C31  1  0.94855975  0.19377483  0.47163996  1  0  -0.038979  0  3.797718  0  0  -0.031993  0  4.106498  0  0  -0.01734  0  4.122041  0  0  -0.007071  -0.04121  0  4.095262  0
C  C32  1  0.07360514  0.98554289  0.65283539  1  0  -0.098264  0  3.784239  0  0  -0.086305  0  4.07294  0  0  -0.086192  0  4.095375  0  0  -0.035501  -0.086512  0  4.05784  0
C  C33  1  0.92639715  0.01445719  0.34716479  1  0  -0.098312  0  3.784163  0  0  -0.086381  0  4.072932  0  0  -0.086255  0  4.095353  0  0  -0.035473  -0.086521  0  4.057803  0
C  C34  1  0.18513627  0.21168264  0.77107477  1  0  -0.121262  0  3.605287  0  0  -0.15351  0  3.860669  0  0  -0.15337  0  3.87189  0  0  -0.148101  -0.153557  0  3.853232  0
C  C35  1  0.81486657  0.78831962  0.22892615  1  0  -0.121331  0  3.605317  0  0  -0.153554  0  3.860713  0  0  -0.153332  0  3.871651  0  0  -0.148111  -0.153616  0  3.8532  0
C  C36  1  0.22693692  0.30074132  0.71006363  1  0  -0.14422  0  3.639366  0  0  -0.179877  0  3.898476  0  0  -0.180097  0  3.910881  0  0  -0.152709  -0.179603  0  3.890047  0
C  C37  1  0.77306461  0.69926096  0.28993674  1  0  -0.14418  0  3.639441  0  0  -0.179926  0  3.898616  0  0  -0.180131  0  3.911029  0  0  -0.15274  -0.179676  0  3.890105  0
C  C38  1  0.20401484  0.05106939  0.61198270  1  0  -0.098381  0  3.796907  0  0  -0.087416  0  4.088202  0  0  -0.086188  0  4.110057  0  0  -0.033324  -0.088307  0  4.073431  0
C  C39  1  0.79598511  0.94893180  0.38801756  1  0  -0.098316  0  3.796811  0  0  -0.087372  0  4.088154  0  0  -0.086147  0  4.110009  0  0  -0.033308  -0.088274  0  4.073462  0
C  C40  1  0.77100188  0.61964311  0.01740395  1  0  0.601205  0  3.674446  0  0  0.531468  0  4.043278  0  0  0.559851  0  4.016  0  0  0.287602  0.511589  0  4.062253  0
C  C41  1  0.22899673  0.38035811  0.98259468  1  0  0.601188  0  3.674387  0  0  0.531423  0  4.043223  0  0  0.558953  0  4.017379  0  0  0.287448  0.511544  0  4.062285  0
C  C42  1  0.75319228  0.40665333  0.76972562  1  0  0.603186  0  3.666013  0  0  0.532157  0  4.032494  0  0  0.560491  0  4.005388  0  0  0.286315  0.511411  0  4.052783  0
C  C43  1  0.24681314  0.59334343  0.23027482  1  0  0.603156  0  3.666072  0  0  0.53206  0  4.032724  0  0  0.560386  0  4.005637  0  0  0.286253  0.511527  0  4.052917  0
S  S44  1  0.47998824  0.28618679  0.47528381  1  0  -0.302849  0  2.532236  0  0  -0.284203  0  2.960997  0  0  -0.301208  0  2.953499  0  0  -0.175976  -0.272757  0  2.965754  0
S  S45  1  0.52000748  0.71380783  0.52471637  1  0  -0.302795  0  2.53226  0  0  -0.284166  0  2.961059  0  0  -0.301171  0  2.953564  0  0  -0.175836  -0.272594  0  2.965817  0
S  S46  1  0.40317487  0.07463424  0.33327523  1  0  0.186267  0  2.765526  0  0  0.176947  0  3.128478  0  0  0.177773  0  3.131756  0  0  0.114698  0.175987  0  3.126386  0
S  S47  1  0.59682163  0.92536369  0.66672363  1  0  0.186195  0  2.765522  0  0  0.176886  0  3.128473  0  0  0.177705  0  3.131748  0  0  0.114764  0.176006  0  3.126392  0
S  S48  1  0.41343864  0.96436629  0.17478135  1  0  0.100796  0  2.396138  0  0  0.094964  0  2.740261  0  0  0.09203  0  2.737802  0  0  0.046003  0.097015  0  2.742262  0
S  S49  1  0.58656337  0.03563271  0.82521764  1  0  0.100849  0  2.396201  0  0  0.095029  0  2.740326  0  0  0.09209  0  2.737853  0  0  0.045905  0.096917  0  2.742399  0
S  S50  1  0.74370124  0.28092476  0.17964128  1  0  0.102111  0  2.69309  0  0  0.110968  0  3.105686  0  0  0.108613  0  3.096456  0  0  0.032048  0.112633  0  3.111877  0
S  S51  1  0.25629505  0.71907752  0.82036014  1  0  0.102179  0  2.693342  0  0  0.111024  0  3.10592  0  0  0.108449  0  3.097102  0  0  0.032258  0.112841  0  3.112174  0
S  S52  1  0.67453570  0.33261118  0.34027761  1  0  0.268706  0  2.765632  0  0  0.264578  0  3.135942  0  0  0.267468  0  3.136496  0  0  0.136356  0.261626  0  3.135905  0
S  S53  1  0.32546034  0.66739000  0.65972426  1  0  0.268678  0  2.765634  0  0  0.264553  0  3.135928  0  0  0.267438  0  3.136477  0  0  0.136363  0.261617  0  3.135911  0
S  S54  1  0.99684679  0.65850466  0.46139613  1  0  -0.219257  0  2.44629  0  0  -0.199809  0  2.86334  0  0  -0.214489  0  2.85384  0  0  -0.144365  -0.189561  0  2.869331  0
S  S55  1  0.00316075  0.34149538  0.53860462  1  0  -0.21922  0  2.446274  0  0  -0.199776  0  2.863311  0  0  -0.214456  0  2.853813  0  0  -0.144582  -0.189835  0  2.869383  0
S  S56  1  0.94271900  0.82154734  0.60849504  1  0  0.171977  0  2.90749  0  0  0.166514  0  3.286091  0  0  0.167536  0  3.289062  0  0  0.101244  0.16503  0  3.284525  0
S  S57  1  0.05728331  0.17845272  0.39150623  1  0  0.171965  0  2.907518  0  0  0.166506  0  3.286114  0  0  0.167524  0  3.289082  0  0  0.101231  0.165009  0  3.284475  0
S  S58  1  0.98390450  0.95346435  0.25762252  1  0  0.06717  0  2.722019  0  0  0.075079  0  3.133573  0  0  0.070698  0  3.127924  0  0  0.023974  0.078324  0  3.137566  0
S  S59  1  0.01609676  0.04653682  0.74237829  1  0  0.067124  0  2.72186  0  0  0.075024  0  3.133406  0  0  0.070642  0  3.127756  0  0  0.023888  0.078192  0  3.137456  0
S  S60  1  0.35257192  0.21699355  0.63834260  1  0  0.097365  0  2.517842  0  0  0.093654  0  2.882954  0  0  0.089591  0  2.884526  0  0  0.021289  0.096514  0  2.882007  0
S  S61  1  0.64742696  0.78300878  0.36165613  1  0  0.097357  0  2.517893  0  0  0.093674  0  2.883063  0  0  0.089602  0  2.884653  0  0  0.021346  0.096584  0  2.882085  0
S  S62  1  0.21824271  0.95430235  0.52346247  1  0  0.204326  0  2.672396  0  0  0.19415  0  3.025725  0  0  0.193807  0  3.032741  0  0  0.107321  0.193789  0  3.02119  0
S  S63  1  0.78175828  0.04569772  0.47653824  1  0  0.204339  0  2.672504  0  0  0.194155  0  3.025864  0  0  0.193812  0  3.032885  0  0  0.107304  0.19371  0  3.021401  0
S  S64  1  0.92327976  0.79763493  0.01194492  1  0  1.134961  0  5.776553  0  0  1.033385  0  6.306369  0  0  1.077497  0  6.286899  0  0  0.48729  1.003168  0  6.318582  0
S  S65  1  0.07672616  0.20236408  0.98805301  1  0  1.135076  0  5.776257  0  0  1.033473  0  6.306073  0  0  1.077278  0  6.287327  0  0  0.487399  1.003273  0  6.318265  0
S  S66  1  0.79415483  0.55399133  0.71262471  1  0  1.118795  0  5.806315  0  0  1.018924  0  6.33315  0  0  1.063442  0  6.313022  0  0  0.47352  0.988195  0  6.346406  0
S  S67  1  0.20583620  0.44601102  0.28737452  1  0  1.118634  0  5.80654  0  0  1.018767  0  6.333433  0  0  1.063288  0  6.313338  0  0  0.473458  0.988095  0  6.346549  0
O  O68  1  0.76264953  0.68478500  0.76166316  1  0  -0.612219  0  2.06438  0  0  -0.573357  0  2.352952  0  0  -0.594308  0  2.339824  0  0  -0.342081  -0.558474  0  2.361565  0
O  O69  1  0.23734849  0.31520856  0.23833422  1  0  -0.612207  0  2.064295  0  0  -0.573313  0  2.352809  0  0  -0.594267  0  2.339692  0  0  -0.342024  -0.558437  0  2.36139  0
O  O70  1  0.97933684  0.55623374  0.69410396  1  0  -0.627295  0  2.107286  0  0  -0.587447  0  2.38243  0  0  -0.608786  0  2.372762  0  0  -0.33816  -0.572321  0  2.388785  0
O  O71  1  0.02067507  0.44376309  0.30589218  1  0  -0.627167  0  2.107726  0  0  -0.587283  0  2.382845  0  0  -0.608619  0  2.373177  0  0  -0.338106  -0.572189  0  2.389174  0
O  O72  1  0.66205718  0.50062209  0.65046558  1  0  -0.608723  0  2.08482  0  0  -0.563667  0  2.365242  0  0  -0.584497  0  2.353025  0  0  -0.344292  -0.549063  0  2.373322  0
O  O73  1  0.33794509  0.49937802  0.34953298  1  0  -0.608705  0  2.084704  0  0  -0.563678  0  2.365145  0  0  -0.584508  0  2.352925  0  0  -0.344297  -0.549068  0  2.373195  0
O  O74  1  0.89526784  0.88470514  0.08288408  1  0  -0.63695  0  2.116231  0  0  -0.586982  0  2.404924  0  0  -0.607981  0  2.389611  0  0  -0.347626  -0.571922  0  2.414709  0
O  O75  1  0.10471908  0.11530155  0.91711878  1  0  -0.636899  0  2.116773  0  0  -0.586854  0  2.405394  0  0  -0.607954  0  2.390437  0  0  -0.3476  -0.57191  0  2.415245  0
O  O76  1  0.10109428  0.76592367  0.00265273  1  0  -0.586525  0  1.956526  0  0  -0.561439  0  2.207424  0  0  -0.578849  0  2.193752  0  0  -0.338387  -0.549108  0  2.216185  0
O  O77  1  0.89889082  0.23408632  0.99735041  1  0  -0.586759  0  1.955726  0  0  -0.561682  0  2.206599  0  0  -0.579042  0  2.192989  0  0  -0.338527  -0.549266  0  2.215326  0
O  O78  1  0.15683529  0.15801870  0.05213022  1  0  -0.616413  0  2.068143  0  0  -0.562402  0  2.344785  0  0  -0.583699  0  2.330632  0  0  -0.342915  -0.547273  0  2.354082  0
O  O79  1  0.84315588  0.84199452  0.94787489  1  0  -0.616457  0  2.068184  0  0  -0.562414  0  2.344736  0  0  -0.583713  0  2.330522  0  0  -0.342923  -0.547351  0  2.354085  0
F  F80  1  0.59464365  0.40155518  0.80221509  1  0  -0.224346  0  1.218578  0  0  -0.176794  0  1.384117  0  0  -0.186578  0  1.369378  0  0  -0.087292  -0.169836  0  1.39466  0
F  F81  1  0.40535963  0.59843835  0.19778287  1  0  -0.224378  0  1.218661  0  0  -0.176808  0  1.384242  0  0  -0.186581  0  1.36949  0  0  -0.087583  -0.170223  0  1.394856  0
F  F82  1  0.88485220  0.42772704  0.82301195  1  0  -0.21571  0  1.242423  0  0  -0.172816  0  1.414344  0  0  -0.183834  0  1.400055  0  0  -0.085372  -0.163587  0  1.423404  0
F  F83  1  0.11515105  0.57226096  0.17698714  1  0  -0.215726  0  1.242397  0  0  -0.172835  0  1.414365  0  0  -0.183579  0  1.399863  0  0  -0.085737  -0.164086  0  1.423523  0
F  F84  1  0.75069159  0.27456113  0.72629858  1  0  -0.252572  0  1.270268  0  0  -0.218033  0  1.462228  0  0  -0.22909  0  1.449686  0  0  -0.102935  -0.210088  0  1.471215  0
F  F85  1  0.24931484  0.72543458  0.27369960  1  0  -0.252532  0  1.270287  0  0  -0.217955  0  1.462261  0  0  -0.229007  0  1.449732  0  0  -0.103224  -0.210412  0  1.471315  0
F  F86  1  0.60527563  0.64493315  0.03425674  1  0  -0.235747  0  1.18774  0  0  -0.194147  0  1.351347  0  0  -0.202966  0  1.335125  0  0  -0.104338  -0.187391  0  1.362408  0
F  F87  1  0.39472212  0.35505931  0.96574054  1  0  -0.235758  0  1.187657  0  0  -0.194135  0  1.35124  0  0  -0.203358  0  1.33541  0  0  -0.104405  -0.187534  0  1.362379  0
F  F88  1  0.83044448  0.55481857  0.07129827  1  0  -0.232962  0  1.214872  0  0  -0.185976  0  1.379471  0  0  -0.199557  0  1.367631  0  0  -0.094796  -0.178678  0  1.390228  0
F  F89  1  0.16956444  0.44519246  0.92870240  1  0  -0.232962  0  1.214886  0  0  -0.185923  0  1.379436  0  0  -0.196006  0  1.364161  0  0  -0.094824  -0.178763  0  1.39027  0
F  F90  1  0.75572539  0.52525541  0.95305084  1  0  -0.212801  0  1.237187  0  0  -0.184327  0  1.418808  0  0  -0.193017  0  1.401425  0  0  -0.096341  -0.177738  0  1.430693  0
F  F91  1  0.24427820  0.47473913  0.04695101  1  0  -0.212818  0  1.237203  0  0  -0.184355  0  1.41883  0  0  -0.193396  0  1.401741  0  0  -0.096418  -0.177844  0  1.430762  0
