# generated using pymatgen
data_CuPH14C9N2ClO
_symmetry_space_group_name_H-M   'P 1'
_cell_length_a   8.41499475
_cell_length_b   8.69397889
_cell_length_c   17.60045550
_cell_angle_alpha   88.36857128
_cell_angle_beta   87.61135115
_cell_angle_gamma   64.27700482
_symmetry_Int_Tables_number   1
_chemical_formula_structural   CuPH14C9N2ClO
_chemical_formula_sum   'Cu4 P4 H56 C36 N8 Cl4 O4'
_cell_volume   1158.95859577
_cell_formula_units_Z   4
loop_
 _symmetry_equiv_pos_site_id
 _symmetry_equiv_pos_as_xyz
  1  'x, y, z'
loop_
 _atom_site_type_symbol
 _atom_site_label
 _atom_site_symmetry_multiplicity
 _atom_site_fract_x
 _atom_site_fract_y
 _atom_site_fract_z
 _atom_site_occupancy
 _atom_site_hle17_bader_spin_density
 _atom_site_hle17_ddec_charge
 _atom_site_hle17_ddec_spin_density
 _atom_site_hle17_ddec_sum_bond_order
 _atom_site_hle17_magmom
 _atom_site_hse06_10hf_bader_spin_density
 _atom_site_hse06_10hf_ddec_charge
 _atom_site_hse06_10hf_ddec_spin_density
 _atom_site_hse06_10hf_ddec_sum_bond_order
 _atom_site_hse06_10hf_magmom
 _atom_site_hse06_bader_spin_density
 _atom_site_hse06_ddec_charge
 _atom_site_hse06_ddec_spin_density
 _atom_site_hse06_ddec_sum_bond_order
 _atom_site_hse06_magmom
 _atom_site_pbe_bader_spin_density
 _atom_site_pbe_cm5_charge
 _atom_site_pbe_ddec_charge
 _atom_site_pbe_ddec_spin_density
 _atom_site_pbe_ddec_sum_bond_order
 _atom_site_pbe_magmom
Cu  Cu0  1  0.37761156  0.49247812  0.57388111  1  0  0.301904  0  2.304859  0  0  0.224886  0  2.815093  0  0  0.21891  0  2.770684  0  0  0.450291  0.230769  0  2.843667  0
Cu  Cu1  1  0.62238560  0.50751554  0.42611885  1  0  0.3019  0  2.304897  0  0  0.224889  0  2.815121  0  0  0.218913  0  2.770717  0  0  0.450315  0.230783  0  2.843685  0
Cu  Cu2  1  0.51472121  0.61758971  0.92468439  1  0  0.311785  0  2.264102  0  0  0.235807  0  2.763692  0  0  0.230468  0  2.719705  0  0  0.44974  0.241285  0  2.792106  0
Cu  Cu3  1  0.48528549  0.38240653  0.07531362  1  0  0.311745  0  2.264107  0  0  0.235761  0  2.763703  0  0  0.230427  0  2.719714  0  0  0.449682  0.241233  0  2.792119  0
P  P4  1  0.32317023  0.61809032  0.68218844  1  0  0.728766  0  4.092702  0  0  0.599904  0  4.637651  0  0  0.647451  0  4.597228  0  0  0.233075  0.566809  0  4.664234  0
P  P5  1  0.67683361  0.38191230  0.31781124  1  0  0.728739  0  4.092716  0  0  0.599883  0  4.63767  0  0  0.64743  0  4.597246  0  0  0.23306  0.566787  0  4.664257  0
P  P6  1  0.38255311  0.66643883  0.81738872  1  0  0.728947  0  4.059069  0  0  0.602617  0  4.596447  0  0  0.649404  0  4.557518  0  0  0.23972  0.57004  0  4.622102  0
P  P7  1  0.61745663  0.33356125  0.18261087  1  0  0.728808  0  4.059331  0  0  0.602389  0  4.596731  0  0  0.6492  0  4.557784  0  0  0.23966  0.56982  0  4.622381  0
H  H8  1  0.87253750  0.03215834  0.62068624  1  0  0.103876  0  0.977133  0  0  0.113075  0  1.04202  0  0  0.1158  0  1.041232  0  0  0.09812  0.111145  0  1.042662  0
H  H9  1  0.12746041  0.96784429  0.37931697  1  0  0.103859  0  0.977077  0  0  0.11307  0  1.041959  0  0  0.115795  0  1.04117  0  0  0.098122  0.111141  0  1.042602  0
H  H10  1  0.98342310  0.12391745  0.88421298  1  0  0.104387  0  0.975705  0  0  0.113469  0  1.040908  0  0  0.116275  0  1.039979  0  0  0.099022  0.111499  0  1.041613  0
H  H11  1  0.01658358  0.87607624  0.11578792  1  0  0.104339  0  0.975692  0  0  0.113392  0  1.040941  0  0  0.116188  0  1.040022  0  0  0.09897  0.11142  0  1.041649  0
H  H12  1  0.73292384  0.34782854  0.81948350  1  0  0.078635  0  0.992105  0  0  0.081083  0  1.074095  0  0  0.08542  0  1.069851  0  0  0.086833  0.077903  0  1.07722  0
H  H13  1  0.26708166  0.65216518  0.18052197  1  0  0.078667  0  0.992052  0  0  0.081122  0  1.074017  0  0  0.08546  0  1.069775  0  0  0.086824  0.077939  0  1.077147  0
H  H14  1  0.45513365  0.98087893  0.78471917  1  0  0.110891  0  0.957401  0  0  0.132503  0  1.017149  0  0  0.133719  0  1.017589  0  0  0.089909  0.131547  0  1.016942  0
H  H15  1  0.54485360  0.01912873  0.21527567  1  0  0.110972  0  0.957382  0  0  0.132536  0  1.017153  0  0  0.133781  0  1.017558  0  0  0.089905  0.131579  0  1.01695  0
H  H16  1  0.65942548  0.95105765  0.73975880  1  0  0.111848  0  0.969245  0  0  0.132802  0  1.029813  0  0  0.13358  0  1.031704  0  0  0.087984  0.132222  0  1.02852  0
H  H17  1  0.34056068  0.04895514  0.26023939  1  0  0.111883  0  0.969301  0  0  0.132827  0  1.02985  0  0  0.133606  0  1.031742  0  0  0.087968  0.132247  0  1.028562  0
H  H18  1  0.65199457  0.79771247  0.80702533  1  0  0.096381  0  0.993758  0  0  0.112016  0  1.067227  0  0  0.113542  0  1.066705  0  0  0.083412  0.110909  0  1.067571  0
H  H19  1  0.34799693  0.20229907  0.19297447  1  0  0.096511  0  0.993744  0  0  0.112112  0  1.067218  0  0  0.113634  0  1.066702  0  0  0.083423  0.111004  0  1.067562  0
H  H20  1  0.07051629  0.60706210  0.89160934  1  0  0.108902  0  0.967903  0  0  0.126613  0  1.033225  0  0  0.12814  0  1.033562  0  0  0.08238  0.125494  0  1.033008  0
H  H21  1  0.92948647  0.39294818  0.10838910  1  0  0.108948  0  0.967885  0  0  0.126674  0  1.033162  0  0  0.128201  0  1.033497  0  0  0.08241  0.125553  0  1.032947  0
H  H22  1  0.97772012  0.47145851  0.86114707  1  0  0.111102  0  0.948019  0  0  0.13269  0  1.008981  0  0  0.134192  0  1.00917  0  0  0.086652  0.131577  0  1.008882  0
H  H23  1  0.02227969  0.52855304  0.13885142  1  0  0.111165  0  0.947893  0  0  0.13271  0  1.008904  0  0  0.134212  0  1.009093  0  0  0.086654  0.131596  0  1.008803  0
H  H24  1  0.96096880  0.64910096  0.80333211  1  0  0.10602  0  0.960931  0  0  0.127203  0  1.022725  0  0  0.128161  0  1.023827  0  0  0.085708  0.126447  0  1.02206  0
H  H25  1  0.03903338  0.35091060  0.19666518  1  0  0.105958  0  0.961113  0  0  0.12714  0  1.022903  0  0  0.128096  0  1.024007  0  0  0.085666  0.126381  0  1.02224  0
H  H26  1  0.03761409  0.22068940  0.44698799  1  0  0.155524  0  0.941295  0  0  0.168263  0  1.009834  0  0  0.171555  0  1.006523  0  0  0.112473  0.165688  0  1.012431  0
H  H27  1  0.96238415  0.77929660  0.55301378  1  0  0.155575  0  0.94131  0  0  0.168317  0  1.00981  0  0  0.17161  0  1.0065  0  0  0.112497  0.165738  0  1.0124  0
H  H28  1  0.97682965  0.20534331  0.54313235  1  0  0.162468  0  0.953562  0  0  0.179249  0  1.01137  0  0  0.18122  0  1.011519  0  0  0.105315  0.17771  0  1.011365  0
H  H29  1  0.02317340  0.79464528  0.45687154  1  0  0.162488  0  0.953601  0  0  0.179187  0  1.011472  0  0  0.181157  0  1.011621  0  0  0.105252  0.177651  0  1.01147  0
H  H30  1  0.18567692  0.04958849  0.50554302  1  0  0.159364  0  0.933654  0  0  0.176465  0  0.992521  0  0  0.178537  0  0.991981  0  0  0.109694  0.174813  0  0.993036  0
H  H31  1  0.81432428  0.95039625  0.49445927  1  0  0.159421  0  0.933723  0  0  0.176469  0  0.992605  0  0  0.178547  0  0.99206  0  0  0.109679  0.174804  0  0.993134  0
H  H32  1  0.10360546  0.43583138  0.69279141  1  0  0.104029  0  0.968821  0  0  0.123806  0  1.033323  0  0  0.124985  0  1.033459  0  0  0.086903  0.122946  0  1.033227  0
H  H33  1  0.89639302  0.56416996  0.30720897  1  0  0.103995  0  0.968829  0  0  0.123793  0  1.03331  0  0  0.124973  0  1.033447  0  0  0.086888  0.122932  0  1.033217  0
H  H34  1  0.13224904  0.26095680  0.75404585  1  0  0.110658  0  0.975908  0  0  0.130412  0  1.038691  0  0  0.130938  0  1.041141  0  0  0.087012  0.129992  0  1.037046  0
H  H35  1  0.86774602  0.73905476  0.24595501  1  0  0.110664  0  0.975878  0  0  0.130454  0  1.03863  0  0  0.130983  0  1.041085  0  0  0.08703  0.130028  0  1.036991  0
H  H36  1  0.31787472  0.26671062  0.70343992  1  0  0.105914  0  0.960677  0  0  0.12444  0  1.028665  0  0  0.126332  0  1.027613  0  0  0.088179  0.123003  0  1.029523  0
H  H37  1  0.68211310  0.73329325  0.29656065  1  0  0.105839  0  0.960693  0  0  0.124389  0  1.028654  0  0  0.126282  0  1.027604  0  0  0.088149  0.122954  0  1.02951  0
H  H38  1  0.47444625  0.22513814  0.82915212  1  0  0.10897  0  0.958833  0  0  0.131291  0  1.01804  0  0  0.132037  0  1.019596  0  0  0.087193  0.130713  0  1.016964  0
H  H39  1  0.52554866  0.77486319  0.17084834  1  0  0.108978  0  0.958843  0  0  0.131302  0  1.018046  0  0  0.132046  0  1.019604  0  0  0.087208  0.130726  0  1.016972  0
H  H40  1  0.28636011  0.21932492  0.87754347  1  0  0.099246  0  0.960378  0  0  0.123615  0  1.016889  0  0  0.124187  0  1.018107  0  0  0.085254  0.123204  0  1.016025  0
H  H41  1  0.71363191  0.78068278  0.12245524  1  0  0.099247  0  0.960359  0  0  0.123619  0  1.016875  0  0  0.124191  0  1.018094  0  0  0.085266  0.123208  0  1.016015  0
H  H42  1  0.36783119  0.36578580  0.90599736  1  0  0.103724  0  0.994732  0  0  0.114584  0  1.074359  0  0  0.117268  0  1.072863  0  0  0.078182  0.112551  0  1.075547  0
H  H43  1  0.63216732  0.63421810  0.09400298  1  0  0.103741  0  0.994729  0  0  0.114603  0  1.074338  0  0  0.117287  0  1.072841  0  0  0.078214  0.112571  0  1.075529  0
H  H44  1  0.67803398  0.30189184  0.68278673  1  0  0.084499  0  0.989976  0  0  0.089053  0  1.066046  0  0  0.092568  0  1.063276  0  0  0.088487  0.086473  0  1.068104  0
H  H45  1  0.32196690  0.69810953  0.31721871  1  0  0.084502  0  0.98991  0  0  0.089045  0  1.066  0  0  0.092562  0  1.063229  0  0  0.088442  0.086463  0  1.068065  0
H  H46  1  0.78992278  0.55657248  0.71273367  1  0  0.107613  0  0.962309  0  0  0.13102  0  1.021455  0  0  0.13165  0  1.022986  0  0  0.087937  0.130488  0  1.02047  0
H  H47  1  0.21007815  0.44343398  0.28726714  1  0  0.107608  0  0.962337  0  0  0.130998  0  1.021533  0  0  0.131627  0  1.023062  0  0  0.087934  0.130466  0  1.020543  0
H  H48  1  0.81443019  0.70372765  0.64654526  1  0  0.10382  0  0.960091  0  0  0.125341  0  1.020887  0  0  0.126488  0  1.021295  0  0  0.085045  0.124517  0  1.020584  0
H  H49  1  0.18557016  0.29628009  0.35345554  1  0  0.103774  0  0.960089  0  0  0.125278  0  1.020947  0  0  0.126425  0  1.021354  0  0  0.08502  0.124457  0  1.020641  0
H  H50  1  0.70473407  0.57856481  0.62009720  1  0  0.108242  0  0.968504  0  0  0.123181  0  1.041242  0  0  0.125062  0  1.040906  0  0  0.083492  0.12178  0  1.04152  0
H  H51  1  0.29527514  0.42143912  0.37990347  1  0  0.108296  0  0.968435  0  0  0.123248  0  1.04116  0  0  0.125129  0  1.040821  0  0  0.0835  0.121843  0  1.041443  0
H  H52  1  0.77988363  0.03741965  0.94509991  1  0  0.162445  0  0.942058  0  0  0.178826  0  1.000471  0  0  0.180689  0  1.000722  0  0  0.109494  0.177357  0  1.000418  0
H  H53  1  0.22011904  0.96258300  0.05490376  1  0  0.162474  0  0.942064  0  0  0.178806  0  1.000515  0  0  0.180669  0  1.000765  0  0  0.109512  0.177336  0  1.000464  0
H  H54  1  0.94333901  0.84296801  0.98528013  1  0  0.162877  0  0.930553  0  0  0.177779  0  0.991765  0  0  0.180293  0  0.990627  0  0  0.108753  0.175827  0  0.992707  0
H  H55  1  0.05666116  0.15702696  0.01472315  1  0  0.162866  0  0.930468  0  0  0.177765  0  0.991687  0  0  0.180279  0  0.99055  0  0  0.108756  0.175813  0  0.992628  0
H  H56  1  0.76000617  0.98901164  0.04219928  1  0  0.156115  0  0.932172  0  0  0.169497  0  0.999375  0  0  0.17266  0  0.996395  0  0  0.113398  0.167043  0  1.001677  0
H  H57  1  0.23999698  0.01098459  0.95780108  1  0  0.156094  0  0.932155  0  0  0.169474  0  0.999347  0  0  0.172637  0  0.996368  0  0  0.113389  0.167017  0  1.001652  0
H  H58  1  0.43374779  0.84497744  0.58421437  1  0  0.105757  0  0.997459  0  0  0.120699  0  1.069643  0  0  0.122622  0  1.069368  0  0  0.075807  0.119253  0  1.069888  0
H  H59  1  0.56625649  0.15501622  0.41578146  1  0  0.105796  0  0.997334  0  0  0.120733  0  1.069541  0  0  0.122655  0  1.069264  0  0  0.07583  0.119288  0  1.069786  0
H  H60  1  0.53286215  0.97893805  0.61047092  1  0  0.111225  0  0.940043  0  0  0.135217  0  0.994972  0  0  0.136454  0  0.995643  0  0  0.088774  0.134334  0  0.994482  0
H  H61  1  0.46713388  0.02106069  0.38952387  1  0  0.111189  0  0.940058  0  0  0.135216  0  0.99496  0  0  0.136454  0  0.99563  0  0  0.088754  0.134333  0  0.994471  0
H  H62  1  0.32545138  0.00944515  0.65248833  1  0  0.105386  0  0.959118  0  0  0.125989  0  1.021591  0  0  0.126909  0  1.02297  0  0  0.085757  0.1253  0  1.020649  0
H  H63  1  0.67454698  0.99055103  0.34750475  1  0  0.105403  0  0.959056  0  0  0.126017  0  1.021528  0  0  0.126937  0  1.022906  0  0  0.085763  0.125329  0  1.020588  0
C  C64  1  0.89554983  0.05377984  0.67896637  1  0  -0.167263  0  3.782694  0  0  -0.187423  0  4.034357  0  0  -0.190739  0  4.054598  0  0  -0.104928  -0.185133  0  4.020683  0
C  C65  1  0.10445517  0.94622025  0.32103616  1  0  -0.16721  0  3.782636  0  0  -0.187365  0  4.03429  0  0  -0.190676  0  4.054527  0  0  -0.104937  -0.185076  0  4.02062  0
C  C66  1  0.95731612  0.10484630  0.82603282  1  0  -0.171291  0  3.785295  0  0  -0.191537  0  4.03746  0  0  -0.194798  0  4.057612  0  0  -0.105432  -0.189271  0  4.023813  0
C  C67  1  0.04269117  0.89514868  0.17396917  1  0  -0.171169  0  3.785083  0  0  -0.191398  0  4.037265  0  0  -0.19465  0  4.057415  0  0  -0.105326  -0.18913  0  4.023611  0
C  C68  1  0.81649746  0.23125705  0.78913402  1  0  -0.066547  0  3.811829  0  0  -0.07995  0  4.060644  0  0  -0.081983  0  4.082021  0  0  -0.100548  -0.078472  0  4.046139  0
C  C69  1  0.18350931  0.76874177  0.21086963  1  0  -0.066545  0  3.811844  0  0  -0.079919  0  4.060597  0  0  -0.081966  0  4.082004  0  0  -0.100527  -0.078442  0  4.046094  0
C  C70  1  0.17138020  0.29208780  0.52560671  1  0  0.425974  0  3.650311  0  0  0.422792  0  3.91228  0  0  0.435145  0  3.927729  0  0  0.223297  0.41406  0  3.902372  0
C  C71  1  0.82862040  0.70789819  0.47439160  1  0  0.426196  0  3.65014  0  0  0.422985  0  3.912055  0  0  0.435337  0  3.927501  0  0  0.223421  0.414255  0  3.902145  0
C  C72  1  0.58071266  0.88510809  0.76102362  1  0  -0.377876  0  3.640788  0  0  -0.455728  0  3.871651  0  0  -0.45944  0  3.880719  0  0  -0.249079  -0.452866  0  3.865388  0
C  C73  1  0.41927818  0.11489961  0.23897455  1  0  -0.378106  0  3.640995  0  0  -0.455889  0  3.871805  0  0  -0.459622  0  3.880855  0  0  -0.249057  -0.453013  0  3.865517  0
C  C74  1  0.04705929  0.54792693  0.84156492  1  0  -0.371652  0  3.617561  0  0  -0.448578  0  3.846243  0  0  -0.452785  0  3.856041  0  0  -0.248974  -0.445454  0  3.83956  0
C  C75  1  0.95294104  0.45208078  0.15843248  1  0  -0.371731  0  3.617601  0  0  -0.448626  0  3.846276  0  0  -0.452835  0  3.856074  0  0  -0.24898  -0.4455  0  3.839593  0
C  C76  1  0.08993616  0.18510996  0.50431769  1  0  -0.381834  0  3.722103  0  0  -0.447563  0  3.941005  0  0  -0.451323  0  3.944153  0  0  -0.210515  -0.444628  0  3.939284  0
C  C77  1  0.91006028  0.81487475  0.49568300  1  0  -0.382072  0  3.722333  0  0  -0.447645  0  3.941118  0  0  -0.451413  0  3.944266  0  0  -0.210478  -0.444694  0  3.939407  0
C  C78  1  0.03703363  0.92343400  0.71568426  1  0  0.190767  0  3.753306  0  0  0.179058  0  4.013728  0  0  0.185673  0  4.032266  0  0  0.077134  0.17439  0  4.001241  0
C  C79  1  0.96297550  0.07656482  0.28431764  1  0  0.19061  0  3.753259  0  0  0.178873  0  4.013731  0  0  0.185488  0  4.032266  0  0  0.077045  0.174204  0  4.001247  0
C  C80  1  0.06981110  0.95016125  0.79126280  1  0  0.193425  0  3.74836  0  0  0.181715  0  4.008522  0  0  0.188348  0  4.027173  0  0  0.077962  0.177082  0  3.995941  0
C  C81  1  0.93020040  0.04983757  0.20873734  1  0  0.193735  0  3.748221  0  0  0.181968  0  4.008389  0  0  0.188616  0  4.027038  0  0  0.078115  0.177346  0  3.995798  0
C  C82  1  0.19265022  0.34435947  0.73359827  1  0  -0.38192  0  3.65173  0  0  -0.461253  0  3.883658  0  0  -0.465039  0  3.893104  0  0  -0.249021  -0.458389  0  3.877147  0
C  C83  1  0.80734472  0.65564440  0.26640044  1  0  -0.381826  0  3.651648  0  0  -0.46126  0  3.883566  0  0  -0.465045  0  3.892995  0  0  -0.248987  -0.458388  0  3.877054  0
C  C84  1  0.34609538  0.30324579  0.85682530  1  0  -0.372381  0  3.638243  0  0  -0.450151  0  3.867369  0  0  -0.454523  0  3.877536  0  0  -0.249194  -0.446831  0  3.860338  0
C  C85  1  0.65390190  0.69675554  0.14317397  1  0  -0.372466  0  3.638306  0  0  -0.450255  0  3.867463  0  0  -0.454623  0  3.877621  0  0  -0.249282  -0.446932  0  3.860421  0
C  C86  1  0.22290154  0.43474575  0.80085357  1  0  0.410716  0  3.554672  0  0  0.42999  0  3.78038  0  0  0.437235  0  3.797435  0  0  0.084806  0.424912  0  3.768783  0
C  C87  1  0.77709627  0.56525174  0.19914461  1  0  0.410716  0  3.5549  0  0  0.430011  0  3.780582  0  0  0.437255  0  3.797643  0  0  0.084835  0.424931  0  3.76898  0
C  C88  1  0.54949988  0.78868536  0.69640608  1  0  0.414531  0  3.556241  0  0  0.431458  0  3.786579  0  0  0.43871  0  3.803994  0  0  0.086165  0.426229  0  3.77516  0
C  C89  1  0.45049096  0.21132235  0.30359323  1  0  0.414523  0  3.556632  0  0  0.431583  0  3.786658  0  0  0.438827  0  3.804109  0  0  0.08617  0.426358  0  3.775246  0
C  C90  1  0.78568269  0.20574778  0.71432707  1  0  -0.067874  0  3.802691  0  0  -0.08084  0  4.049082  0  0  -0.08278  0  4.070946  0  0  -0.101197  -0.079437  0  4.034265  0
C  C91  1  0.21432051  0.79425102  0.28567552  1  0  -0.067987  0  3.802762  0  0  -0.08095  0  4.049164  0  0  -0.082895  0  4.071028  0  0  -0.101152  -0.079545  0  4.034352  0
C  C92  1  0.72525929  0.64820862  0.66695172  1  0  -0.375592  0  3.62877  0  0  -0.453017  0  3.856442  0  0  -0.45721  0  3.866906  0  0  -0.24853  -0.449834  0  3.849225  0
C  C93  1  0.27473991  0.35180167  0.33304850  1  0  -0.375571  0  3.628898  0  0  -0.453047  0  3.856583  0  0  -0.457237  0  3.867045  0  0  -0.248518  -0.449861  0  3.849365  0
C  C94  1  0.69963785  0.84287971  0.96647480  1  0  0.426335  0  3.64814  0  0  0.422268  0  3.90934  0  0  0.434942  0  3.924308  0  0  0.224394  0.413327  0  3.899771  0
C  C95  1  0.30036242  0.15712291  0.03352439  1  0  0.426479  0  3.648143  0  0  0.422398  0  3.909321  0  0  0.435073  0  3.92429  0  0  0.224464  0.413454  0  3.899753  0
C  C96  1  0.80186983  0.93205038  0.98561407  1  0  -0.379437  0  3.718963  0  0  -0.444392  0  3.940718  0  0  -0.44821  0  3.943679  0  0  -0.207748  -0.441459  0  3.939144  0
C  C97  1  0.19813160  0.06794970  0.01438797  1  0  -0.37949  0  3.718962  0  0  -0.444389  0  3.940705  0  0  -0.448206  0  3.943666  0  0  -0.207789  -0.441449  0  3.939129  0
C  C98  1  0.45418281  0.91276061  0.63188128  1  0  -0.376943  0  3.626094  0  0  -0.452324  0  3.854038  0  0  -0.457024  0  3.864034  0  0  -0.249945  -0.448806  0  3.847147  0
C  C99  1  0.54581618  0.08723687  0.36811461  1  0  -0.376983  0  3.626014  0  0  -0.452425  0  3.853925  0  0  -0.457123  0  3.863924  0  0  -0.249951  -0.44891  0  3.847039  0
N  N100  1  0.23653410  0.37936868  0.54261477  1  0  -0.418227  0  3.077696  0  0  -0.381468  0  3.386576  0  0  -0.389428  0  3.387592  0  0  -0.373053  -0.377261  0  3.386465  0
N  N101  1  0.76346537  0.62061988  0.45738637  1  0  -0.418322  0  3.077566  0  0  -0.381575  0  3.38649  0  0  -0.389537  0  3.387505  0  0  -0.373142  -0.377369  0  3.386385  0
N  N102  1  0.43624705  0.70896204  0.72715313  1  0  -0.578218  0  3.197381  0  0  -0.469431  0  3.448509  0  0  -0.49769  0  3.45662  0  0  -0.324639  -0.449893  0  3.44251  0
N  N103  1  0.56375903  0.29103290  0.27284321  1  0  -0.578146  0  3.197326  0  0  -0.469401  0  3.448461  0  0  -0.49766  0  3.456573  0  0  -0.324583  -0.449866  0  3.442462  0
N  N104  1  0.31185558  0.53922116  0.77093075  1  0  -0.576734  0  3.201397  0  0  -0.468679  0  3.452963  0  0  -0.49683  0  3.460733  0  0  -0.324417  -0.449265  0  3.447221  0
N  N105  1  0.68814702  0.46077889  0.22906672  1  0  -0.576503  0  3.20148  0  0  -0.468463  0  3.453018  0  0  -0.496609  0  3.460785  0  0  -0.324388  -0.449052  0  3.447275  0
N  N106  1  0.61797427  0.76919376  0.95185331  1  0  -0.419773  0  3.080671  0  0  -0.38195  0  3.390759  0  0  -0.389775  0  3.390781  0  0  -0.371524  -0.377849  0  3.39131  0
N  N107  1  0.38202657  0.23080758  0.04814531  1  0  -0.419845  0  3.080629  0  0  -0.382023  0  3.390731  0  0  -0.38985  0  3.390751  0  0  -0.371548  -0.377921  0  3.391283  0
Cl  Cl108  1  0.71456799  0.35989612  0.98074435  1  0  -0.530363  0  1.193747  0  0  -0.4606  0  1.515346  0  0  -0.475422  0  1.488482  0  0  -0.307549  -0.450012  0  1.532992  0
Cl  Cl109  1  0.28543691  0.64009882  0.01925372  1  0  -0.530367  0  1.193736  0  0  -0.460607  0  1.515334  0  0  -0.475425  0  1.488466  0  0  -0.307552  -0.45001  0  1.532963  0
Cl  Cl110  1  0.65437576  0.29800107  0.52579989  1  0  -0.526994  0  1.251913  0  0  -0.459511  0  1.585305  0  0  -0.473203  0  1.557101  0  0  -0.299833  -0.449732  0  1.603911  0
Cl  Cl111  1  0.34561781  0.70199003  0.47420019  1  0  -0.526998  0  1.251939  0  0  -0.459474  0  1.58528  0  0  -0.473164  0  1.557072  0  0  -0.29983  -0.449708  0  1.603909  0
O  O112  1  0.12568636  0.78016720  0.67104258  1  0  -0.421998  0  2.387444  0  0  -0.338761  0  2.645621  0  0  -0.360157  0  2.6394  0  0  -0.193897  -0.323669  0  2.649292  0
O  O113  1  0.87431096  0.21983668  0.32895665  1  0  -0.421987  0  2.387605  0  0  -0.338728  0  2.645764  0  0  -0.360128  0  2.639546  0  0  -0.19389  -0.323638  0  2.649442  0
O  O114  1  0.20043554  0.84142086  0.83842927  1  0  -0.420133  0  2.397429  0  0  -0.337511  0  2.652911  0  0  -0.3592  0  2.647922  0  0  -0.193746  -0.322376  0  2.655925  0
O  O115  1  0.79957711  0.15857540  0.16157031  1  0  -0.420399  0  2.397533  0  0  -0.337605  0  2.652904  0  0  -0.35933  0  2.647937  0  0  -0.193861  -0.322478  0  2.655916  0
