# generated using pymatgen
data_GdH20C18N2O11
_symmetry_space_group_name_H-M   'P 1'
_cell_length_a   10.61885879
_cell_length_b   10.94557440
_cell_length_c   12.77110000
_cell_angle_alpha   103.96636494
_cell_angle_beta   109.83482978
_cell_angle_gamma   96.84386251
_symmetry_Int_Tables_number   1
_chemical_formula_structural   GdH20C18N2O11
_chemical_formula_sum   'Gd2 H40 C36 N4 O22'
_cell_volume   1321.76433379
_cell_formula_units_Z   2
loop_
 _symmetry_equiv_pos_site_id
 _symmetry_equiv_pos_as_xyz
  1  'x, y, z'
loop_
 _atom_site_type_symbol
 _atom_site_label
 _atom_site_symmetry_multiplicity
 _atom_site_fract_x
 _atom_site_fract_y
 _atom_site_fract_z
 _atom_site_occupancy
 _atom_site_hle17_bader_spin_density
 _atom_site_hle17_ddec_charge
 _atom_site_hle17_ddec_spin_density
 _atom_site_hle17_ddec_sum_bond_order
 _atom_site_hle17_magmom
 _atom_site_hse06_10hf_bader_spin_density
 _atom_site_hse06_10hf_ddec_charge
 _atom_site_hse06_10hf_ddec_spin_density
 _atom_site_hse06_10hf_ddec_sum_bond_order
 _atom_site_hse06_10hf_magmom
 _atom_site_hse06_bader_spin_density
 _atom_site_hse06_ddec_charge
 _atom_site_hse06_ddec_spin_density
 _atom_site_hse06_ddec_sum_bond_order
 _atom_site_hse06_magmom
 _atom_site_pbe_bader_charge
 _atom_site_pbe_bader_spin_density
 _atom_site_pbe_cm5_charge
 _atom_site_pbe_ddec_charge
 _atom_site_pbe_ddec_spin_density
 _atom_site_pbe_ddec_sum_bond_order
 _atom_site_pbe_magmom
Gd  Gd0  1  0.10092345  0.54547362  0.68266668  1  0  2.191323  0  1.800271  0  0  2.0956  0  2.163871  0  0  2.150978  0  2.10718  0  2.199258  0  1.478346  2.051328  0  2.212016  0
Gd  Gd1  1  0.89907591  0.45452532  0.31733307  1  0  2.191307  0  1.800158  0  0  2.095585  0  2.163741  0  0  2.150961  0  2.107052  0  2.199284  0  1.478318  2.051282  0  2.211941  0
H  H2  1  0.93153556  0.14156908  0.30146569  1  0  0.389114  0  0.892919  0  0  0.361497  0  0.969748  0  0  0.372783  0  0.957146  0  0.64976  0  0.3036  0.353468  0  0.978659  0
H  H3  1  0.06846102  0.85843082  0.69853348  1  0  0.389135  0  0.892902  0  0  0.361475  0  0.969798  0  0  0.372762  0  0.957195  0  0.649765  0  0.303584  0.353446  0  0.978709  0
H  H4  1  0.22922392  0.39361901  0.26765365  1  0  0.382925  0  0.902744  0  0  0.357074  0  0.976851  0  0  0.368758  0  0.963645  0  0.644306  0  0.300905  0.348729  0  0.98617  0
H  H5  1  0.77078348  0.60638861  0.73235409  1  0  0.383031  0  0.902533  0  0  0.35713  0  0.976765  0  0  0.368822  0  0.963538  0  0.644331  0  0.300858  0.348783  0  0.986085  0
H  H6  1  0.17937420  0.90019641  0.93541074  1  0  0.388168  0  0.885133  0  0  0.365074  0  0.952546  0  0  0.376427  0  0.939999  0  0.653185  0  0.304617  0.35697  0  0.96145  0
H  H7  1  0.82062248  0.09979963  0.06458218  1  0  0.388109  0  0.885321  0  0  0.365042  0  0.952667  0  0  0.376395  0  0.940124  0  0.653009  0  0.304653  0.356941  0  0.961563  0
H  H8  1  0.00422741  0.16395846  0.67387047  1  0  0.116283  0  0.958009  0  0  0.123384  0  1.024802  0  0  0.127437  0  1.021868  0  0.087712  0  0.107738  0.120393  0  1.02713  0
H  H9  1  0.99576572  0.83603951  0.32612654  1  0  0.116353  0  0.957953  0  0  0.123377  0  1.024837  0  0  0.127422  0  1.021913  0  0.087727  0  0.107732  0.120394  0  1.027155  0
H  H10  1  0.41020075  0.57297440  0.65521029  1  0  0.132056  0  0.967771  0  0  0.13776  0  1.03629  0  0  0.1421  0  1.032677  0  0.120274  0  0.113889  0.13441  0  1.039349  0
H  H11  1  0.58980911  0.42703515  0.34479854  1  0  0.131926  0  0.967708  0  0  0.13765  0  1.036194  0  0  0.141991  0  1.032582  0  0.120079  0  0.113865  0.1343  0  1.039252  0
H  H12  1  0.55748122  0.82148226  0.87426007  1  0  0.135931  0  0.924553  0  0  0.145567  0  0.982021  0  0  0.15022  0  0.978189  0  0.110012  0  0.113261  0.142048  0  0.985151  0
H  H13  1  0.44251504  0.17852053  0.12573647  1  0  0.135911  0  0.924476  0  0  0.145536  0  0.98196  0  0  0.150192  0  0.978125  0  0.109576  0  0.113253  0.142021  0  0.985092  0
H  H14  1  0.44792896  0.51689477  0.82682121  1  0  0.047183  0  0.935683  0  0  0.055279  0  1.005908  0  0  0.057447  0  1.000333  0  0.116377  0  0.127412  0.053523  0  1.00999  0
H  H15  1  0.55206204  0.48309837  0.17317186  1  0  0.047157  0  0.935623  0  0  0.055273  0  1.005841  0  0  0.057443  0  1.000266  0  0.116225  0  0.127423  0.053515  0  1.009926  0
H  H16  1  0.63217682  0.45703179  0.90516277  1  0  0.101705  0  0.95798  0  0  0.119747  0  1.026104  0  0  0.120936  0  1.025024  0  0.084293  0  0.110142  0.118765  0  1.027045  0
H  H17  1  0.36781531  0.54296618  0.09483866  1  0  0.101608  0  0.958056  0  0  0.119642  0  1.026199  0  0  0.120831  0  1.025119  0  0.08459  0  0.110092  0.118662  0  1.02714  0
H  H18  1  0.63683159  0.29135634  0.85617797  1  0  0.096679  0  0.939179  0  0  0.117255  0  1.002165  0  0  0.117808  0  1.002447  0  0.04174  0  0.105716  0.116786  0  1.002078  0
H  H19  1  0.36316422  0.70864452  0.14382588  1  0  0.096684  0  0.939092  0  0  0.117214  0  1.00213  0  0  0.117765  0  1.002412  0  0.041665  0  0.105697  0.116748  0  1.00204  0
H  H20  1  0.60675145  0.35029375  0.98636848  1  0  0.103449  0  0.946173  0  0  0.122229  0  1.011341  0  0  0.122356  0  1.01204  0  0.071936  0  0.106692  0.122106  0  1.010751  0
H  H21  1  0.39324414  0.64970615  0.01363354  1  0  0.103363  0  0.946248  0  0  0.122167  0  1.01139  0  0  0.122291  0  1.01209  0  0.071984  0  0.106669  0.122054  0  1.010793  0
H  H22  1  0.25776525  0.18947780  0.74217573  1  0  0.12015  0  0.958196  0  0  0.136842  0  1.022923  0  0  0.138255  0  1.022295  0  0.101131  0  0.11218  0.135696  0  1.023544  0
H  H23  1  0.74222921  0.81051727  0.25782732  1  0  0.120109  0  0.958221  0  0  0.136825  0  1.022891  0  0  0.138239  0  1.022261  0  0.101059  0  0.112176  0.135679  0  1.023512  0
H  H24  1  0.36959994  0.16996261  0.87555388  1  0  0.097524  0  0.955718  0  0  0.116339  0  1.02259  0  0  0.115632  0  1.024705  0  0.065435  0  0.102093  0.116809  0  1.021044  0
H  H25  1  0.63039774  0.83003343  0.12444794  1  0  0.097551  0  0.955698  0  0  0.116343  0  1.022562  0  0  0.115639  0  1.024675  0  0.065221  0  0.102077  0.116812  0  1.021016  0
H  H26  1  0.40959085  0.13057127  0.74852088  1  0  0.097361  0  0.913978  0  0  0.120445  0  0.96944  0  0  0.120354  0  0.970214  0  0.032902  0  0.108809  0.120487  0  0.968892  0
H  H27  1  0.59040706  0.86942573  0.25148354  1  0  0.097375  0  0.913943  0  0  0.120434  0  0.969412  0  0  0.120343  0  0.970188  0  0.032891  0  0.108786  0.120476  0  0.968864  0
H  H28  1  0.87645719  0.35850133  0.75050661  1  0  0.043148  0  0.917727  0  0  0.051574  0  0.985995  0  0  0.053812  0  0.980298  0  0.113983  0  0.129298  0.049741  0  0.990213  0
H  H29  1  0.12355586  0.64150050  0.24948978  1  0  0.043145  0  0.917725  0  0  0.051563  0  0.985994  0  0  0.053805  0  0.980292  0  0.113966  0  0.129292  0.049729  0  0.990211  0
H  H30  1  0.79600416  0.18831094  0.78294175  1  0  0.097241  0  0.934205  0  0  0.118545  0  0.995181  0  0  0.118939  0  0.99528  0  0.050889  0  0.111123  0.11815  0  0.995204  0
H  H31  1  0.20399510  0.81169185  0.21705486  1  0  0.097235  0  0.934201  0  0  0.118531  0  0.995194  0  0  0.118924  0  0.995295  0  0.050738  0  0.111117  0.118135  0  0.995216  0
H  H32  1  0.84837864  0.20581188  0.93590371  1  0  0.107281  0  0.947207  0  0  0.124914  0  1.012597  0  0  0.126136  0  1.012262  0  0.089444  0  0.106726  0.123887  0  1.013043  0
H  H33  1  0.15162430  0.79419381  0.06409532  1  0  0.107273  0  0.947315  0  0  0.124947  0  1.012636  0  0  0.126169  0  1.012303  0  0.089227  0  0.106747  0.123908  0  1.013093  0
H  H34  1  0.91848640  0.10351929  0.84920592  1  0  0.120406  0  0.914464  0  0  0.140901  0  0.972004  0  0  0.142439  0  0.971024  0  0.104032  0  0.114449  0.139773  0  0.972765  0
H  H35  1  0.08151096  0.89647965  0.15079171  1  0  0.120426  0  0.914488  0  0  0.140923  0  0.972021  0  0  0.142461  0  0.971042  0  0.10403  0  0.11447  0.139795  0  0.972781  0
H  H36  1  0.19683403  0.39427338  0.98798277  1  0  0.10596  0  0.960712  0  0  0.124797  0  1.025319  0  0  0.126119  0  1.02445  0  0.09298  0  0.10935  0.123714  0  1.02609  0
H  H37  1  0.80316956  0.60572652  0.01201838  1  0  0.105972  0  0.960733  0  0  0.124809  0  1.025334  0  0  0.12613  0  1.024464  0  0.093033  0  0.10937  0.123725  0  1.026105  0
H  H38  1  0.15366967  0.22715311  0.97906397  1  0  0.114231  0  0.919906  0  0  0.135855  0  0.979695  0  0  0.136761  0  0.979144  0  0.09487  0  0.113531  0.135079  0  0.98017  0
H  H39  1  0.84633392  0.77284678  0.02093640  1  0  0.114234  0  0.919927  0  0  0.135859  0  0.979709  0  0  0.136763  0  0.979164  0  0.094895  0  0.113557  0.135082  0  0.98019  0
H  H40  1  0.10059557  0.34571319  0.06813338  1  0  0.109367  0  0.927231  0  0  0.132959  0  0.983534  0  0  0.133151  0  0.984002  0  0.072092  0  0.113044  0.132655  0  0.983365  0
H  H41  1  0.89940279  0.65428575  0.93186453  1  0  0.109308  0  0.927242  0  0  0.132902  0  0.983546  0  0  0.13309  0  0.984014  0  0.072104  0  0.113035  0.132598  0  0.983376  0
C  C42  1  0.97243705  0.02848426  0.39281655  1  0  0.303168  0  3.833097  0  0  0.289827  0  4.098786  0  0  0.300053  0  4.115886  0  0.519032  0  0.077077  0.282653  0  4.087156  0
C  C43  1  0.02755721  0.97151854  0.60718100  1  0  0.303126  0  3.83307  0  0  0.289783  0  4.09879  0  0  0.299994  0  4.115887  0  0.518795  0  0.077033  0.282613  0  4.087161  0
C  C44  1  0.97441095  0.12129432  0.49303595  1  0  -0.173361  0  3.752805  0  0  -0.160055  0  3.993304  0  0  -0.169096  0  4.013625  0  -0.015857  0  -0.030838  -0.15406  0  3.979704  0
C  C45  1  0.02558363  0.87870558  0.50696109  1  0  -0.173216  0  3.752591  0  0  -0.159958  0  3.993153  0  0  -0.168956  0  4.013422  0  -0.015658  0  -0.030795  -0.153975  0  3.979569  0
C  C46  1  0.00180486  0.09110948  0.59785614  1  0  -0.171301  0  3.737759  0  0  -0.204716  0  3.998816  0  0  -0.205985  0  4.015759  0  0.00657  0  -0.101857  -0.203715  0  3.987612  0
C  C47  1  0.99818826  0.90888849  0.40214088  1  0  -0.171355  0  3.737691  0  0  -0.204706  0  3.998787  0  0  -0.205982  0  4.015716  0  0.006576  0  -0.101839  -0.203706  0  3.987583  0
C  C48  1  0.95350952  0.25232693  0.49053142  1  0  0.736719  0  3.818876  0  0  0.690484  0  4.108965  0  0  0.727747  0  4.095341  0  1.532902  0  0.235329  0.665132  0  4.117208  0
C  C49  1  0.04649061  0.74767103  0.50946600  1  0  0.736662  0  3.818933  0  0  0.690429  0  4.10904  0  0  0.727681  0  4.095417  0  1.532893  0  0.235292  0.665079  0  4.117284  0
C  C50  1  0.40891697  0.44536322  0.38188059  1  0  0.30419  0  3.826392  0  0  0.290175  0  4.09346  0  0  0.300338  0  4.110906  0  0.46058  0  0.075267  0.283022  0  4.08176  0
C  C51  1  0.59109256  0.55464923  0.61812953  1  0  0.304399  0  3.825927  0  0  0.290369  0  4.093045  0  0  0.300524  0  4.110496  0  0.460684  0  0.075333  0.283216  0  4.081349  0
C  C52  1  0.35825212  0.48424978  0.47165112  1  0  -0.174622  0  3.762543  0  0  -0.158207  0  4.000189  0  0  -0.167496  0  4.02121  0  -0.050836  0  -0.029438  -0.152725  0  3.986406  0
C  C53  1  0.64175864  0.51576363  0.52835798  1  0  -0.174776  0  3.762561  0  0  -0.158323  0  4.000202  0  0  -0.167602  0  4.021222  0  -0.051292  0  -0.029587  -0.152842  0  3.98642  0
C  C54  1  0.44988446  0.53917896  0.58784609  1  0  -0.166964  0  3.704847  0  0  -0.20138  0  3.961318  0  0  -0.202991  0  3.978863  0  0.071647  0  -0.097937  -0.200042  0  3.949994  0
C  C55  1  0.55012407  0.46083349  0.41216297  1  0  -0.16671  0  3.704783  0  0  -0.201103  0  3.961171  0  0  -0.202719  0  3.978715  0  0.07194  0  -0.097802  -0.199766  0  3.949848  0
C  C56  1  0.20900215  0.46696311  0.44376183  1  0  0.725559  0  3.827604  0  0  0.679008  0  4.116963  0  0  0.715842  0  4.104027  0  1.549237  0  0.231057  0.654778  0  4.123672  0
C  C57  1  0.79100413  0.53303968  0.55624380  1  0  0.7255  0  3.827927  0  0  0.678882  0  4.11737  0  0  0.715711  0  4.104442  0  1.54923  0  0.231028  0.654652  0  4.12408  0
C  C58  1  0.36430149  0.99076734  0.99720363  1  0  0.30157  0  3.835656  0  0  0.285009  0  4.109134  0  0  0.295815  0  4.125508  0  0.449085  0  0.077684  0.277375  0  4.098068  0
C  C59  1  0.63569487  0.00923159  0.00279137  1  0  0.301528  0  3.83564  0  0  0.285008  0  4.109047  0  0  0.295816  0  4.125421  0  0.448828  0  0.07767  0.277374  0  4.097981  0
C  C60  1  0.39909177  0.88943121  0.92668493  1  0  -0.17261  0  3.784559  0  0  -0.159317  0  4.031817  0  0  -0.16835  0  4.053278  0  -0.011586  0  -0.03269  -0.15331  0  4.017402  0
C  C61  1  0.60090713  0.11056579  0.07331195  1  0  -0.172538  0  3.784657  0  0  -0.159263  0  4.031887  0  0  -0.168304  0  4.053364  0  -0.011568  0  -0.032644  -0.153257  0  4.017474  0
C  C62  1  0.53320399  0.90006708  0.92959812  1  0  -0.174933  0  3.711997  0  0  -0.206647  0  3.969468  0  0  -0.207891  0  3.985244  0  0.045755  0  -0.098617  -0.205832  0  3.959125  0
C  C63  1  0.46679414  0.09993089  0.07039561  1  0  -0.17493  0  3.711974  0  0  -0.206615  0  3.969461  0  0  -0.20786  0  3.985244  0  0.046108  0  -0.098628  -0.205805  0  3.959123  0
C  C64  1  0.29499393  0.76984809  0.85133664  1  0  0.642919  0  3.932959  0  0  0.594595  0  4.235743  0  0  0.629626  0  4.226119  0  1.498653  0  0.192418  0.57091  0  4.241027  0
C  C65  1  0.70500420  0.23014988  0.14866179  1  0  0.642736  0  3.933176  0  0  0.594421  0  4.23596  0  0  0.629456  0  4.22634  0  1.498519  0  0.192344  0.570738  0  4.241237  0
C  C66  1  0.37861920  0.42118639  0.79734956  1  0  0.408424  0  3.814279  0  0  0.334965  0  4.105628  0  0  0.363338  0  4.105584  0  1.37093  0  0.184659  0.316044  0  4.104475  0
C  C67  1  0.62137803  0.57880772  0.20264938  1  0  0.40839  0  3.814354  0  0  0.334916  0  4.105737  0  0  0.363282  0  4.1057  0  1.371013  0  0.184586  0.315995  0  4.104581  0
C  C68  1  0.58707451  0.35864996  0.89842439  1  0  -0.17064  0  3.671664  0  0  -0.273988  0  3.921945  0  0  -0.270453  0  3.933248  0  0.265653  0  -0.126459  -0.276126  0  3.914215  0
C  C69  1  0.41291940  0.64134704  0.10157577  1  0  -0.170435  0  3.671648  0  0  -0.273745  0  3.921938  0  0  -0.270202  0  3.933248  0  0.265887  0  -0.126356  -0.275893  0  3.914198  0
C  C70  1  0.36460524  0.19707058  0.79709203  1  0  -0.161235  0  3.637007  0  0  -0.258736  0  3.87601  0  0  -0.254801  0  3.886651  0  0.292181  0  -0.130549  -0.261188  0  3.86871  0
C  C71  1  0.63539099  0.80292353  0.20290663  1  0  -0.161235  0  3.636852  0  0  -0.258671  0  3.875784  0  0  -0.254742  0  3.886424  0  0.292606  0  -0.130482  -0.261123  0  3.868485  0
C  C72  1  0.97691685  0.38398592  0.82394963  1  0  0.415404  0  3.809458  0  0  0.338431  0  4.109361  0  0  0.36731  0  4.107968  0  1.37971  0  0.185167  0.318983  0  4.109662  0
C  C73  1  0.02308829  0.61601204  0.17604999  1  0  0.415193  0  3.809494  0  0  0.338237  0  4.109401  0  0  0.367113  0  4.10801  0  1.380257  0  0.185127  0.318794  0  4.109697  0
C  C74  1  0.88237367  0.19384025  0.86255694  1  0  -0.17794  0  3.663657  0  0  -0.280386  0  3.913247  0  0  -0.277557  0  3.924227  0  0.246495  0  -0.125048  -0.282036  0  3.905869  0
C  C75  1  0.11762814  0.80616062  0.13743999  1  0  -0.178053  0  3.663606  0  0  -0.280515  0  3.913189  0  0  -0.277683  0  3.924164  0  0.246822  0  -0.125079  -0.282153  0  3.905824  0
C  C76  1  0.11897744  0.31844404  0.98681411  1  0  -0.161307  0  3.621711  0  0  -0.261739  0  3.861029  0  0  -0.25817  0  3.871197  0  0.242911  0  -0.125677  -0.263917  0  3.854325  0
C  C77  1  0.88102415  0.68155586  0.01318961  1  0  -0.161372  0  3.621746  0  0  -0.261799  0  3.861077  0  0  -0.258224  0  3.871241  0  0.242567  0  -0.125715  -0.263976  0  3.854371  0
N  N78  1  0.44070284  0.32904903  0.82921523  1  0  -0.090737  0  3.502229  0  0  0.016145  0  3.731785  0  0  -0.004271  0  3.756761  0  -1.220381  0  -0.279249  0.029913  0  3.714324  0
N  N79  1  0.55929039  0.67094508  0.17078258  1  0  -0.090746  0  3.502049  0  0  0.016076  0  3.73169  0  0  -0.00434  0  3.756665  0  -1.22098  0  -0.279259  0.029845  0  3.714232  0
N  N80  1  0.99274557  0.30233581  0.88754430  1  0  -0.077719  0  3.496669  0  0  0.02723  0  3.731257  0  0  0.007279  0  3.756533  0  -1.238442  0  -0.273397  0.040458  0  3.713947  0
N  N81  1  0.00725757  0.69766216  0.11245319  1  0  -0.077392  0  3.496272  0  0  0.027534  0  3.730885  0  0  0.007585  0  3.756163  0  -1.238535  0  -0.273412  0.040759  0  3.713572  0
O  O82  1  0.96853034  0.33549136  0.58483731  1  0  -0.72453  0  2.079051  0  0  -0.682547  0  2.332325  0  0  -0.708711  0  2.32106  0  -1.198127  0  -0.396281  -0.663996  0  2.339544  0
O  O83  1  0.03146469  0.66451047  0.41516339  1  0  -0.724491  0  2.079215  0  0  -0.6825  0  2.332482  0  0  -0.708664  0  2.321221  0  -1.198112  0  -0.396216  -0.663948  0  2.339709  0
O  O84  1  0.92286914  0.27487750  0.39140863  1  0  -0.73159  0  2.100899  0  0  -0.679706  0  2.337005  0  0  -0.70658  0  2.325848  0  -1.180414  0  -0.378113  -0.660488  0  2.344293  0
O  O85  1  0.07713100  0.72512047  0.60859350  1  0  -0.731618  0  2.10085  0  0  -0.679705  0  2.336947  0  0  -0.70658  0  2.325795  0  -1.180342  0  -0.378124  -0.660489  0  2.344231  0
O  O86  1  0.94643191  0.05109080  0.28839969  1  0  -0.518336  0  2.068482  0  0  -0.476537  0  2.274713  0  0  -0.494422  0  2.265267  0  -1.169676  0  -0.365603  -0.463728  0  2.280968  0
O  O87  1  0.05356544  0.94890813  0.71159872  1  0  -0.518341  0  2.068457  0  0  -0.476507  0  2.274721  0  0  -0.494396  0  2.265281  0  -1.169626  0  -0.365577  -0.463697  0  2.280974  0
O  O88  1  0.16293623  0.49030702  0.52439226  1  0  -0.75441  0  2.151358  0  0  -0.714362  0  2.412973  0  0  -0.740566  0  2.401048  0  -1.208685  0  -0.399995  -0.69519  0  2.420787  0
O  O89  1  0.83706749  0.50969770  0.47561463  1  0  -0.754328  0  2.151212  0  0  -0.714271  0  2.412883  0  0  -0.740469  0  2.400956  0  -1.208626  0  -0.399961  -0.695095  0  2.420695  0
O  O90  1  0.12708759  0.42837091  0.33502841  1  0  -0.710023  0  2.025888  0  0  -0.661073  0  2.257204  0  0  -0.686002  0  2.244004  0  -1.185649  0  -0.371455  -0.643051  0  2.265252  0
O  O91  1  0.87291868  0.57163188  0.66497723  1  0  -0.709938  0  2.025939  0  0  -0.660969  0  2.257314  0  0  -0.685907  0  2.244121  0  -1.185579  0  -0.371426  -0.64295  0  2.265357  0
O  O92  1  0.32408759  0.39360743  0.26746816  1  0  -0.526483  0  2.061783  0  0  -0.483713  0  2.267118  0  0  -0.502057  0  2.257344  0  -1.169759  0  -0.369464  -0.470643  0  2.273832  0
O  O93  1  0.67592317  0.60640598  0.73254329  1  0  -0.52664  0  2.061439  0  0  -0.483838  0  2.266805  0  0  -0.502181  0  2.257026  0  -1.169996  0  -0.369393  -0.470766  0  2.273523  0
O  O94  1  0.17189208  0.75681480  0.85010990  1  0  -0.677772  0  1.957262  0  0  -0.631075  0  2.182219  0  0  -0.654138  0  2.170071  0  -1.171999  0  -0.349197  -0.614458  0  2.190084  0
O  O95  1  0.82810551  0.24318510  0.14988720  1  0  -0.677665  0  1.957308  0  0  -0.630988  0  2.182257  0  0  -0.654054  0  2.170111  0  -1.17191  0  -0.349173  -0.61437  0  2.190118  0
O  O96  1  0.32727719  0.67892777  0.78867575  1  0  -0.695064  0  2.020493  0  0  -0.654948  0  2.267587  0  0  -0.680161  0  2.256992  0  -1.184269  0  -0.384006  -0.636911  0  2.27456  0
O  O97  1  0.67272440  0.32107213  0.21132092  1  0  -0.694982  0  2.020601  0  0  -0.65488  0  2.267713  0  0  -0.680091  0  2.25711  0  -1.184247  0  -0.383977  -0.636839  0  2.274685  0
O  O98  1  0.23499670  0.98523128  0.99474959  1  0  -0.514547  0  2.068526  0  0  -0.472111  0  2.270805  0  0  -0.49039  0  2.261296  0  -1.173635  0  -0.361425  -0.459023  0  2.277148  0
O  O99  1  0.76500020  0.01476572  0.00524516  1  0  -0.51455  0  2.068639  0  0  -0.472127  0  2.270886  0  0  -0.490406  0  2.261377  0  -1.173422  0  -0.361488  -0.45904  0  2.277229  0
O  O100  1  0.25288675  0.40352524  0.73953147  1  0  -0.596048  0  2.127748  0  0  -0.55456  0  2.384499  0  0  -0.578688  0  2.379144  0  -1.169837  0  -0.356027  -0.536905  0  2.387365  0
O  O101  1  0.74710557  0.59646501  0.26045668  1  0  -0.596026  0  2.127841  0  0  -0.554527  0  2.38459  0  0  -0.578651  0  2.379238  0  -1.169783  0  -0.355996  -0.536868  0  2.38746  0
O  O102  1  0.06613243  0.48155607  0.84210805  1  0  -0.613386  0  2.070095  0  0  -0.573834  0  2.326752  0  0  -0.597551  0  2.319501  0  -1.178539  0  -0.368287  -0.556565  0  2.331084  0
O  O103  1  0.93387949  0.51844093  0.15789172  1  0  -0.61329  0  2.070234  0  0  -0.573742  0  2.326888  0  0  -0.597456  0  2.319641  0  -1.178709  0  -0.368225  -0.556468  0  2.33122  0
