# generated using pymatgen
data_Zr3H8C20(N3O8)2
_symmetry_space_group_name_H-M   'P 1'
_cell_length_a   16.48843291
_cell_length_b   17.17883790
_cell_length_c   17.20279842
_cell_angle_alpha   71.25034747
_cell_angle_beta   89.95234816
_cell_angle_gamma   89.80801861
_symmetry_Int_Tables_number   1
_chemical_formula_structural   Zr3H8C20(N3O8)2
_chemical_formula_sum   'Zr6 H16 C40 N12 O32'
_cell_volume   4614.11740086
_cell_formula_units_Z   2
loop_
 _symmetry_equiv_pos_site_id
 _symmetry_equiv_pos_as_xyz
  1  'x, y, z'
loop_
 _atom_site_type_symbol
 _atom_site_label
 _atom_site_symmetry_multiplicity
 _atom_site_fract_x
 _atom_site_fract_y
 _atom_site_fract_z
 _atom_site_occupancy
 _atom_site_pbe_bader_charge
 _atom_site_pbe_bader_spin_density
 _atom_site_pbe_cm5_charge
 _atom_site_pbe_ddec_charge
 _atom_site_pbe_ddec_spin_density
 _atom_site_pbe_ddec_sum_bond_order
 _atom_site_pbe_magmom
Zr  Zr0  1  0.10323171  0.89929974  0.10660550  1  2.624465  0  1.583374  2.37662  0  2.746314  0
Zr  Zr1  1  0.88697328  0.90817929  0.09867278  1  2.629662  0  1.59023  2.394264  0  2.730906  0
Zr  Zr2  1  0.11325576  0.07734006  0.92948245  1  2.62328  0  1.582216  2.375317  0  2.755631  0
Zr  Zr3  1  0.89760688  0.08503751  0.92040641  1  2.624033  0  1.581744  2.377649  0  2.745163  0
Zr  Zr4  1  0.00069709  0.90226700  0.92506855  1  2.632576  0  1.615706  2.360761  0  2.753981  0
Zr  Zr5  1  0.99982739  0.08184181  0.10334106  1  2.633217  0  1.619092  2.362117  0  2.76018  0
H  H6  1  0.99891129  0.92050039  0.22471129  1  0.608943  0  0.330721  0.424246  0  0.856674  0
H  H7  1  0.82838546  0.92804249  0.94002101  1  0.60872  0  0.332024  0.426561  0  0.855261  0
H  H8  1  0.00245334  0.20433926  0.94022191  1  0.628797  0  0.336862  0.437592  0  0.832765  0
H  H9  1  0.17385785  0.91866744  0.94902026  1  0.59248  0  0.336826  0.437184  0  0.833737  0
H  H10  1  0.72362089  0.89311021  0.07506233  1  0.590633  0  0.31189  0.408569  0  0.880476  0
H  H11  1  0.75582279  0.00938199  0.00066874  1  0.647063  0  0.283595  0.412402  0  0.926068  0
H  H12  1  0.90208014  0.19351931  0.76928195  1  0.609021  0  0.30597  0.401087  0  0.894199  0
H  H13  1  0.01814931  0.19224311  0.81172108  1  0.643736  0  0.283375  0.407816  0  0.932652  0
H  H14  1  0.27109199  0.09493696  0.95425074  1  0.596446  0  0.30708  0.40224  0  0.891776  0
H  H15  1  0.24464797  0.97837897  0.02978949  1  0.642623  0  0.283923  0.408496  0  0.931359  0
H  H16  1  0.09613577  0.74772721  0.21363921  1  0.584173  0  0.306537  0.402445  0  0.892339  0
H  H17  1  0.98254140  0.79060793  0.21400262  1  0.637374  0  0.282318  0.408465  0  0.932143  0
H  H18  1  0.10184333  0.17412590  0.76865224  1  0.620135  0  0.328653  0.417719  0  0.868939  0
H  H19  1  0.26141842  0.93863485  0.12879221  1  0.622664  0  0.329903  0.418841  0  0.865446  0
H  H20  1  0.89520568  0.79412531  0.25994056  1  0.634403  0  0.333491  0.417821  0  0.861246  0
H  H21  1  0.73933032  0.10841154  0.95945165  1  0.621955  0  0.330614  0.421702  0  0.860912  0
C  C22  1  0.12804728  0.75852358  0.01877647  1  1.678743  0  0.24884  0.706466  0  4.18426  0
C  C23  1  0.86031364  0.99855024  0.23745027  1  1.676709  0  0.245833  0.704655  0  4.187375  0
C  C24  1  0.86513748  0.76631794  0.01006834  1  1.702479  0  0.247554  0.706286  0  4.180335  0
C  C25  1  0.13817642  0.00021864  0.23803520  1  1.661141  0  0.245253  0.703985  0  4.184928  0
C  C26  1  0.14252097  0.21256029  0.02337430  1  1.678389  0  0.247256  0.705825  0  4.184542  0
C  C27  1  0.87366884  0.99503339  0.78088478  1  1.661729  0  0.245918  0.704262  0  4.184798  0
C  C28  1  0.86224552  0.21688639  0.02157828  1  1.664774  0  0.246827  0.705169  0  4.185508  0
C  C29  1  0.13296507  0.98817673  0.78552564  1  1.695145  0  0.247769  0.706217  0  4.185209  0
C  C30  1  0.26025206  0.99722247  0.44566386  1  1.149739  0  0.271892  0.438794  0  4.084442  0
C  C31  1  0.37749165  0.99217705  0.51522604  1  1.175219  0  0.271246  0.441962  0  4.078646  0
C  C32  1  0.25724253  0.98919204  0.57942586  1  1.203389  0  0.270929  0.440094  0  4.081888  0
C  C33  1  0.74137490  0.99653814  0.44648160  1  1.236355  0  0.27109  0.43789  0  4.088474  0
C  C34  1  0.74458133  0.99276424  0.57898614  1  1.182495  0  0.271113  0.43761  0  4.08688  0
C  C35  1  0.62425667  0.99306057  0.51598151  1  1.113298  0  0.271198  0.440294  0  4.080336  0
C  C36  1  0.26024203  0.42104814  0.02439882  1  1.141954  0  0.270998  0.439808  0  4.083669  0
C  C37  1  0.25562704  0.55361130  0.02088992  1  1.136775  0  0.271043  0.440762  0  4.081003  0
C  C38  1  0.37661666  0.49066813  0.02311029  1  1.164241  0  0.271118  0.43979  0  4.084001  0
C  C39  1  0.74094955  0.42354488  0.02506785  1  1.242095  0  0.271438  0.438223  0  4.084387  0
C  C40  1  0.74299120  0.55739777  0.01746496  1  1.181276  0  0.270853  0.4413  0  4.079121  0
C  C41  1  0.62323035  0.49209401  0.02286045  1  1.152365  0  0.270393  0.440064  0  4.083633  0
C  C42  1  0.46308442  0.49258716  0.02342703  1  0.062307  0  0.005787  -0.068794  0  3.932704  0
C  C43  1  0.53673236  0.49296043  0.02349491  1  -0.171137  0  0.005623  -0.068454  0  3.931355  0
C  C44  1  0.53771225  0.99217305  0.51752391  1  0.045124  0  0.006547  -0.068645  0  3.929138  0
C  C45  1  0.46404820  0.99187852  0.51686992  1  -0.150631  0  0.006053  -0.0685  0  3.928391  0
C  C46  1  0.82948381  0.99354702  0.70884391  1  -0.281684  0  -0.003118  -0.108665  0  3.868557  0
C  C47  1  0.79000549  0.99252800  0.64955700  1  0.162929  0  0.00208  -0.057541  0  3.94705  0
C  C48  1  0.78279766  0.99852669  0.37311351  1  -0.005786  0  0.001558  -0.059652  0  3.950549  0
C  C49  1  0.81790450  0.99961927  0.31065107  1  -0.176219  0  -0.003959  -0.108316  0  3.871489  0
C  C50  1  0.17514247  0.98725447  0.71202359  1  0.118475  0  -0.004708  -0.110973  0  3.862681  0
C  C51  1  0.21253698  0.98712985  0.65112035  1  -0.299934  0  0.003688  -0.056457  0  3.940626  0
C  C52  1  0.21843024  0.00070293  0.37203550  1  -0.514542  0  0.002891  -0.055483  0  3.944721  0
C  C53  1  0.18236074  0.00210970  0.31000033  1  0.354319  0  -0.005606  -0.113644  0  3.870679  0
C  C54  1  0.81811532  0.28851707  0.02514792  1  -0.231795  0  -0.003017  -0.108194  0  3.866741  0
C  C55  1  0.78286979  0.35036444  0.02638808  1  0.067767  0  0.002654  -0.058114  0  3.946327  0
C  C56  1  0.82358697  0.69195010  0.01117251  1  0.173832  0  -0.002447  -0.106791  0  3.86194  0
C  C57  1  0.78700839  0.62991483  0.01349043  1  -0.368428  0  0.002201  -0.060019  0  3.943109  0
C  C58  1  0.21967481  0.34760988  0.02531472  1  0.124242  0  0.002717  -0.058245  0  3.946828  0
C  C59  1  0.18535850  0.28516763  0.02520372  1  -0.278478  0  -0.003381  -0.10886  0  3.869993  0
C  C60  1  0.17114598  0.68504549  0.01910520  1  -0.311518  0  -0.002316  -0.107252  0  3.863698  0
C  C61  1  0.20991314  0.62462548  0.01951592  1  0.142953  0  0.00379  -0.057282  0  3.943882  0
N  N62  1  0.34196266  0.99726265  0.44315278  1  -1.083017  0  -0.291937  -0.388292  0  3.071242  0
N  N63  1  0.33881288  0.98767862  0.58557334  1  -1.099248  0  -0.290206  -0.385435  0  3.068482  0
N  N64  1  0.21425640  0.99354745  0.51157279  1  -1.130751  0  -0.290547  -0.385317  0  3.07166  0
N  N65  1  0.78745952  0.99517034  0.51153735  1  -1.102099  0  -0.290728  -0.38423  0  3.074139  0
N  N66  1  0.66303488  0.99134305  0.58549265  1  -1.155761  0  -0.291648  -0.386643  0  3.067751  0
N  N67  1  0.65966466  0.99574660  0.44451176  1  -1.15393  0  -0.291114  -0.384699  0  3.070317  0
N  N68  1  0.21344698  0.48606934  0.02253486  1  -1.102868  0  -0.289479  -0.383412  0  3.067903  0
N  N69  1  0.33712635  0.56014817  0.02095658  1  -1.095897  0  -0.290562  -0.387083  0  3.068234  0
N  N70  1  0.34197787  0.41912963  0.02490105  1  -1.08323  0  -0.291626  -0.387395  0  3.07181  0
N  N71  1  0.78646469  0.48980540  0.02085832  1  -1.119854  0  -0.289183  -0.38259  0  3.065442  0
N  N72  1  0.66134935  0.56281953  0.01785111  1  -1.09778  0  -0.291519  -0.38895  0  3.070774  0
N  N73  1  0.65926728  0.42034483  0.02687650  1  -1.168022  0  -0.291244  -0.386439  0  3.073214  0
O  O74  1  0.14367328  0.78523528  0.07819559  1  -1.165197  0  -0.342235  -0.620956  0  2.238635  0
O  O75  1  0.07999151  0.78976669  0.95901874  1  -1.142994  0  -0.336059  -0.592821  0  2.223441  0
O  O76  1  0.84356146  0.93893745  0.21139981  1  -1.152392  0  -0.341103  -0.622302  0  2.237109  0
O  O77  1  0.91083562  0.05622900  0.20732071  1  -1.159018  0  -0.33848  -0.594314  0  2.221284  0
O  O78  1  0.84503963  0.79622631  0.06603151  1  -1.15268  0  -0.3376  -0.611061  0  2.237302  0
O  O79  1  0.91668022  0.79499602  0.95280630  1  -1.155263  0  -0.341863  -0.598079  0  2.217178  0
O  O80  1  0.15882810  0.94416758  0.20817167  1  -1.162149  0  -0.335192  -0.622041  0  2.236976  0
O  O81  1  0.08231854  0.05370550  0.21250097  1  -1.146311  0  -0.33858  -0.591866  0  2.216897  0
O  O82  1  0.07085121  0.79954674  0.21176509  1  -1.211154  0  -0.652795  -0.926735  0  1.883927  0
O  O83  1  0.23800958  0.92579884  0.08234581  1  -1.250536  0  -0.607009  -0.8191  0  2.000143  0
O  O84  1  0.91825979  0.79495088  0.20763245  1  -1.265058  0  -0.604321  -0.819667  0  2.011721  0
O  O85  1  0.76289632  0.93562599  0.07317359  1  -1.229985  0  -0.653359  -0.93453  0  1.887056  0
O  O86  1  0.99656553  0.88063343  0.05002852  1  -1.209456  0  -0.784959  -1.160927  0  2.075001  0
O  O87  1  0.99827728  0.94218409  0.16520450  1  -1.246384  0  -0.689666  -1.057528  0  2.29967  0
O  O88  1  0.16283681  0.18327611  0.96685448  1  -1.161333  0  -0.341436  -0.620079  0  2.232467  0
O  O89  1  0.08809613  0.18583968  0.07782147  1  -1.151181  0  -0.338295  -0.59456  0  2.22956  0
O  O90  1  0.85828962  0.05545214  0.80635647  1  -1.154703  0  -0.341237  -0.61876  0  2.233793  0
O  O91  1  0.92244294  0.93562285  0.81206346  1  -1.155368  0  -0.336932  -0.592517  0  2.218836  0
O  O92  1  0.84197739  0.18773100  0.96515593  1  -1.158211  0  -0.332543  -0.621821  0  2.234134  0
O  O93  1  0.91820326  0.19086079  0.07472183  1  -1.146021  0  -0.341422  -0.596123  0  2.227557  0
O  O94  1  0.14809284  0.04863717  0.81073188  1  -1.165136  0  -0.334686  -0.62367  0  2.236465  0
O  O95  1  0.08568708  0.92808681  0.81822883  1  -1.160151  0  -0.339689  -0.595856  0  2.219635  0
O  O96  1  0.08203552  0.18643478  0.81685019  1  -1.25525  0  -0.60828  -0.819693  0  1.999962  0
O  O97  1  0.23733636  0.04908862  0.95286256  1  -1.229289  0  -0.653088  -0.927244  0  1.884685  0
O  O98  1  0.92860589  0.19002176  0.82076893  1  -1.236314  0  -0.654094  -0.92874  0  1.885117  0
O  O99  1  0.76288464  0.06146527  0.94731300  1  -1.251759  0  -0.60845  -0.824269  0  1.989883  0
O  O100  1  0.00363773  0.14465670  0.96176623  1  -1.261798  0  -0.680669  -1.035189  0  2.227386  0
O  O101  1  0.00392618  0.02694300  0.90390152  1  -1.208887  0  -0.791059  -1.176034  0  2.126623  0
O  O102  1  0.08835532  0.02792998  0.05350908  1  -1.208608  0  -0.79151  -1.175634  0  2.129787  0
O  O103  1  0.87784791  0.94709572  0.95845661  1  -1.239068  0  -0.689408  -1.062131  0  2.297232  0
O  O104  1  0.12463584  0.93819721  0.96789164  1  -1.220719  0  -0.680708  -1.035358  0  2.228337  0
O  O105  1  0.91038460  0.03226234  0.04976334  1  -1.211674  0  -0.785224  -1.1594  0  2.075639  0
