# generated using pymatgen
data_Zn4H8C40Br4O13F8
_symmetry_space_group_name_H-M   'P 1'
_cell_length_a   23.95450485
_cell_length_b   23.95595132
_cell_length_c   23.95426488
_cell_angle_alpha   66.65826278
_cell_angle_beta   72.43421827
_cell_angle_gamma   107.57473899
_symmetry_Int_Tables_number   1
_chemical_formula_structural   Zn4H8C40Br4O13F8
_chemical_formula_sum   'Zn8 H16 C80 Br8 O26 F16'
_cell_volume   10545.64037223
_cell_formula_units_Z   2
loop_
 _symmetry_equiv_pos_site_id
 _symmetry_equiv_pos_as_xyz
  1  'x, y, z'
loop_
 _atom_site_type_symbol
 _atom_site_label
 _atom_site_symmetry_multiplicity
 _atom_site_fract_x
 _atom_site_fract_y
 _atom_site_fract_z
 _atom_site_occupancy
 _atom_site_pbe_bader_charge
 _atom_site_pbe_bader_spin_density
 _atom_site_pbe_cm5_charge
 _atom_site_pbe_ddec_charge
 _atom_site_pbe_ddec_spin_density
 _atom_site_pbe_ddec_sum_bond_order
 _atom_site_pbe_magmom
Zn  Zn0  1  0.05716929  0.95775641  0.48508292  1  1.322915  0  0.678511  0.978627  0  2.364983  0
Zn  Zn1  1  0.05716941  0.09941175  0.45775961  1  1.322301  0  0.678558  0.978626  0  2.365017  0
Zn  Zn2  1  0.94282391  0.98507809  0.45775028  1  1.32302  0  0.678483  0.978674  0  2.364917  0
Zn  Zn3  1  0.94284150  0.95775260  0.59941533  1  1.322888  0  0.678484  0.978597  0  2.365026  0
Zn  Zn4  1  0.94283069  0.54224274  0.01491818  1  1.322866  0  0.678487  0.978598  0  2.364968  0
Zn  Zn5  1  0.05717774  0.51492480  0.04224800  1  1.322983  0  0.678521  0.978671  0  2.364811  0
Zn  Zn6  1  0.94282860  0.40058585  0.04224603  1  1.322415  0  0.678552  0.978636  0  2.365001  0
Zn  Zn7  1  0.05715738  0.54224185  0.90058536  1  1.322821  0  0.678448  0.97854  0  2.365095  0
H  H8  1  0.92329550  0.71461379  0.17478600  1  0.101755  0  0.119726  0.15052  0  0.971971  0
H  H9  1  0.07668720  0.67477289  0.21465511  1  0.102736  0  0.119684  0.150387  0  0.972112  0
H  H10  1  0.92330471  0.82521766  0.28535476  1  0.102614  0  0.119729  0.150491  0  0.972024  0
H  H11  1  0.07664415  0.78531253  0.32529137  1  0.091806  0  0.119697  0.150388  0  0.972189  0
H  H12  1  0.07670654  0.40188908  0.70869456  1  0.137593  0  0.119789  0.150514  0  0.972036  0
H  H13  1  0.92331022  0.20865763  0.90192817  1  0.137572  0  0.119658  0.150377  0  0.972109  0
H  H14  1  0.07665059  0.29132978  0.59808261  1  0.137753  0  0.119763  0.15047  0  0.972188  0
H  H15  1  0.92330721  0.09808436  0.79132998  1  0.137421  0  0.119738  0.150543  0  0.972014  0
H  H16  1  0.61058791  0.40191138  0.17475157  1  0.095282  0  0.119749  0.150546  0  0.972099  0
H  H17  1  0.61058270  0.20866454  0.21465572  1  0.084665  0  0.119686  0.150457  0  0.972089  0
H  H18  1  0.38941581  0.29133720  0.28533727  1  0.084793  0  0.119644  0.150381  0  0.97208  0
H  H19  1  0.38941290  0.09810566  0.32517205  1  0.118689  0  0.119764  0.150588  0  0.971879  0
H  H20  1  0.38942119  0.67473304  0.90190984  1  0.095153  0  0.119781  0.150552  0  0.972054  0
H  H21  1  0.38940470  0.71464487  0.70865518  1  0.084325  0  0.119688  0.150496  0  0.972055  0
H  H22  1  0.61059803  0.78534514  0.79134693  1  0.084214  0  0.119613  0.150366  0  0.972165  0
H  H23  1  0.61057647  0.82519016  0.59810940  1  0.117982  0  0.119771  0.150453  0  0.97201  0
C  C24  1  0.18124906  0.09063052  0.40937236  1  1.59302  0  0.225435  0.637489  0  4.168305  0
C  C25  1  0.99999924  0.13676193  0.36323806  1  1.612547  0  0.2288  0.62763  0  4.12548  0
C  C26  1  0.99999481  0.90937684  0.40937750  1  1.616196  0  0.225376  0.637392  0  4.168062  0
C  C27  1  0.81875270  0.90936545  0.59063713  1  1.593194  0  0.225262  0.637466  0  4.168497  0
C  C28  1  0.00000364  0.86323464  0.63676293  1  1.612267  0  0.228727  0.627587  0  4.125457  0
C  C29  1  0.99999628  0.09062122  0.59062704  1  1.647246  0  0.225377  0.637278  0  4.168249  0
C  C30  1  0.99999901  0.59061541  0.09063212  1  1.61674  0  0.225297  0.63739  0  4.167931  0
C  C31  1  0.00000339  0.36323977  0.13676248  1  1.612256  0  0.228677  0.627543  0  4.12557  0
C  C32  1  0.81874970  0.40937095  0.09061984  1  1.593552  0  0.225392  0.637378  0  4.168308  0
C  C33  1  0.99999679  0.40936400  0.90938547  1  1.647324  0  0.225403  0.637567  0  4.168216  0
C  C34  1  0.99999651  0.63676212  0.86323771  1  1.612119  0  0.228682  0.627583  0  4.125702  0
C  C35  1  0.18124769  0.59062066  0.90936431  1  1.593689  0  0.22529  0.637435  0  4.168159  0
C  C36  1  0.00000078  0.80509758  0.69489969  1  0.056958  0  -0.016383  -0.099489  0  3.845775  0
C  C37  1  0.99999980  0.69489961  0.80510148  1  0.057749  0  -0.016447  -0.099634  0  3.845751  0
C  C38  1  0.95710087  0.77691040  0.76598581  1  -0.02969  0  -0.015668  0.04665  0  3.87869  0
C  C39  1  0.04290011  0.72308823  0.73401509  1  -0.029605  0  -0.015686  0.046694  0  3.878601  0
C  C40  1  0.95710022  0.72308624  0.81981141  1  -0.033068  0  -0.015715  0.046651  0  3.878692  0
C  C41  1  0.04289989  0.77691151  0.68018968  1  -0.033251  0  -0.015773  0.046495  0  3.878819  0
C  C42  1  0.00000120  0.19489986  0.30509980  1  0.057882  0  -0.016393  -0.099475  0  3.845423  0
C  C43  1  0.00000286  0.30510193  0.19489927  1  0.057834  0  -0.016443  -0.099523  0  3.845592  0
C  C44  1  0.95710076  0.18019306  0.27690519  1  -0.034298  0  -0.015738  0.046506  0  3.878456  0
C  C45  1  0.04290211  0.31980837  0.22309412  1  -0.033631  0  -0.015711  0.046468  0  3.878599  0
C  C46  1  0.95710069  0.23401805  0.22308031  1  -0.029371  0  -0.015597  0.046797  0  3.878489  0
C  C47  1  0.04290261  0.26598381  0.27691912  1  -0.029759  0  -0.015709  0.046692  0  3.878382  0
C  C48  1  0.99999649  0.62801753  0.12803896  1  0.039171  0  -0.028945  -0.262076  0  3.900274  0
C  C49  1  0.95788870  0.65807232  0.13624225  1  0.466773  0  0.115899  0.315069  0  4.04014  0
C  C50  1  0.95710691  0.69288723  0.17061744  1  0.077807  0  -0.09743  -0.280746  0  3.940403  0
C  C51  1  0.99999497  0.69949863  0.19951521  1  0.093217  0  0.011699  0.202792  0  4.142226  0
C  C52  1  0.04288043  0.67060328  0.19291482  1  0.075826  0  -0.097339  -0.28055  0  3.940558  0
C  C53  1  0.04209907  0.63622306  0.15810490  1  0.46771  0  0.11581  0.314822  0  4.040202  0
C  C54  1  0.99998928  0.73476397  0.23479022  1  -0.271124  0  -0.031712  -0.089372  0  4.07975  0
C  C55  1  0.99998289  0.76520611  0.26524390  1  -0.057581  0  -0.031624  -0.089115  0  4.079809  0
C  C56  1  0.99997895  0.80047320  0.30051602  1  0.093309  0  0.011658  0.202828  0  4.142149  0
C  C57  1  0.95710228  0.82937807  0.30710564  1  0.076505  0  -0.097436  -0.280667  0  3.940741  0
C  C58  1  0.95788266  0.86375470  0.34191770  1  0.467321  0  0.115851  0.314759  0  4.040414  0
C  C59  1  0.99998023  0.87195295  0.37199154  1  0.040652  0  -0.028727  -0.261632  0  3.900542  0
C  C60  1  0.04206332  0.84186898  0.36382045  1  0.466092  0  0.115643  0.314628  0  4.040502  0
C  C61  1  0.04284848  0.80706055  0.32944084  1  0.086768  0  -0.097206  -0.280527  0  3.940618  0
C  C62  1  0.00000903  0.37195522  0.87198527  1  0.05249  0  -0.028937  -0.262243  0  3.900264  0
C  C63  1  0.04212137  0.40585078  0.79982605  1  0.459279  0  0.115876  0.315062  0  4.039951  0
C  C64  1  0.04289788  0.37225487  0.76423145  1  0.036094  0  -0.097349  -0.280581  0  3.940021  0
C  C65  1  0.00000079  0.30047785  0.80050715  1  0.105139  0  0.011625  0.202801  0  4.141948  0
C  C66  1  0.95712175  0.26419916  0.87229053  1  0.036472  0  -0.097303  -0.280596  0  3.940528  0
C  C67  1  0.95790981  0.29979115  0.90588696  1  0.457  0  0.115874  0.314976  0  4.039967  0
C  C68  1  0.99999487  0.26521002  0.76523596  1  -0.271003  0  -0.031767  -0.089328  0  4.079813  0
C  C69  1  0.99999158  0.23476962  0.73478076  1  -0.060583  0  -0.031689  -0.089354  0  4.079797  0
C  C70  1  0.99998502  0.19950240  0.69950894  1  0.104851  0  0.01177  0.202975  0  4.141781  0
C  C71  1  0.04285469  0.23578625  0.62772134  1  0.03709  0  -0.097365  -0.280679  0  3.940235  0
C  C72  1  0.04206663  0.20019426  0.59412449  1  0.457169  0  0.115859  0.314866  0  4.040109  0
C  C73  1  0.99997940  0.12802766  0.62802857  1  0.051847  0  -0.028815  -0.261712  0  3.900237  0
C  C74  1  0.95788162  0.09412849  0.70019233  1  0.459314  0  0.115889  0.31474  0  4.04024  0
C  C75  1  0.95710500  0.12772170  0.73578804  1  0.036354  0  -0.097452  -0.280715  0  3.940488  0
C  C76  1  0.74394104  0.37196488  0.12802802  1  0.058985  0  -0.028858  -0.261924  0  3.900296  0
C  C77  1  0.70567858  0.40586662  0.13621820  1  0.458009  0  0.115809  0.314893  0  4.040525  0
C  C78  1  0.63649023  0.37227146  0.17059466  1  0.094038  0  -0.097422  -0.280861  0  3.940685  0
C  C79  1  0.60098750  0.30048894  0.19950135  1  0.125257  0  0.011648  0.202832  0  4.142025  0
C  C80  1  0.63648703  0.26420734  0.19291185  1  0.132384  0  -0.097376  -0.280728  0  3.940686  0
C  C81  1  0.70567569  0.29979861  0.15810335  1  0.420809  0  0.11596  0.315001  0  4.039899  0
C  C82  1  0.53044617  0.26522185  0.23476453  1  -0.349325  0  -0.031781  -0.089306  0  4.079461  0
C  C83  1  0.46955134  0.23478201  0.26520455  1  -0.028176  0  -0.031584  -0.089272  0  4.079627  0
C  C84  1  0.39901296  0.19951528  0.30046878  1  0.115745  0  0.01169  0.20305  0  4.141878  0
C  C85  1  0.36350936  0.23579591  0.30707075  1  0.142461  0  -0.097299  -0.280758  0  3.940224  0
C  C86  1  0.29432114  0.20020509  0.34187561  1  0.420641  0  0.115935  0.315113  0  4.039849  0
C  C87  1  0.25605754  0.12804057  0.37194386  1  0.059577  0  -0.028931  -0.262148  0  3.900005  0
C  C88  1  0.29432066  0.09414469  0.36372361  1  0.457795  0  0.11579  0.314991  0  4.040128  0
C  C89  1  0.36351128  0.12774005  0.32934847  1  0.070802  0  -0.097354  -0.280738  0  3.940422  0
C  C90  1  0.25605775  0.62801567  0.87195925  1  0.059277  0  -0.028774  -0.261698  0  3.900435  0
C  C91  1  0.29432342  0.63619858  0.90586647  1  0.457804  0  0.115871  0.314759  0  4.040366  0
C  C92  1  0.36351242  0.67057940  0.87226965  1  0.094648  0  -0.097459  -0.280774  0  3.940271  0
C  C93  1  0.39901089  0.69949018  0.80048410  1  0.125084  0  0.011699  0.202918  0  4.141741  0
C  C94  1  0.36350666  0.69289960  0.76419922  1  0.13269  0  -0.097462  -0.28082  0  3.940814  0
C  C95  1  0.29431639  0.65808810  0.79979414  1  0.420462  0  0.115942  0.314885  0  4.04013  0
C  C96  1  0.46955237  0.73475898  0.76521894  1  -0.029132  0  -0.031824  -0.089413  0  4.079571  0
C  C97  1  0.53044698  0.76520379  0.73478871  1  -0.347983  0  -0.031579  -0.089174  0  4.079686  0
C  C98  1  0.60098606  0.80047536  0.69952402  1  0.125429  0  0.011621  0.202774  0  4.142016  0
C  C99  1  0.63649616  0.80707804  0.73580400  1  0.133683  0  -0.09729  -0.280631  0  3.940622  0
C  C100  1  0.70568583  0.84188740  0.70020970  1  0.419567  0  0.115863  0.314956  0  4.03992  0
C  C101  1  0.74394358  0.87195426  0.62804456  1  0.057475  0  -0.028888  -0.262086  0  3.900326  0
C  C102  1  0.70567490  0.86374084  0.59414615  1  0.460123  0  0.115762  0.31475  0  4.040254  0
C  C103  1  0.63648485  0.82936313  0.62774456  1  0.071207  0  -0.097366  -0.28052  0  3.9402  0
Br  Br104  1  0.89675675  0.80885495  0.79437944  1  0.031046  0  0.04104  -0.015739  0  1.61057  0
Br  Br105  1  0.10324379  0.69114324  0.70562177  1  0.031431  0  0.041057  -0.015723  0  1.61054  0
Br  Br106  1  0.89675816  0.69113792  0.91210073  1  0.032452  0  0.041048  -0.01578  0  1.610576  0
Br  Br107  1  0.10324301  0.80886143  0.58790024  1  0.031989  0  0.041036  -0.015769  0  1.610626  0
Br  Br108  1  0.89675965  0.08790497  0.30884500  1  0.028798  0  0.041015  -0.015765  0  1.610603  0
Br  Br109  1  0.10324230  0.41209657  0.19115455  1  0.028677  0  0.040996  -0.015758  0  1.61068  0
Br  Br110  1  0.89675738  0.20562581  0.19112454  1  0.034768  0  0.041004  -0.015829  0  1.610554  0
Br  Br111  1  0.10324437  0.29437501  0.30887577  1  0.03499  0  0.041054  -0.015751  0  1.610499  0
O  O112  1  0.99999883  0.99999951  0.49999942  1  -1.233889  0  -0.572338  -1.036663  0  2.537221  0
O  O113  1  0.15240752  0.02571884  0.43393674  1  -1.152591  0  -0.312925  -0.542897  0  2.360413  0
O  O114  1  0.03958436  0.15383056  0.38574927  1  -1.177839  0  -0.313771  -0.540224  0  2.48675  0
O  O115  1  0.95963133  0.93392481  0.41366487  1  -1.153542  0  -0.312801  -0.542885  0  2.360076  0
O  O116  1  0.15240996  0.12669783  0.41367457  1  -1.153036  0  -0.312855  -0.542827  0  2.36028  0
O  O117  1  0.04036585  0.91368199  0.43391663  1  -1.153875  0  -0.312842  -0.542775  0  2.360335  0
O  O118  1  0.96041224  0.07467118  0.38574794  1  -1.177119  0  -0.31373  -0.54018  0  2.486475  0
O  O119  1  0.84758842  0.93392008  0.52572568  1  -1.15211  0  -0.31281  -0.542899  0  2.360481  0
O  O120  1  0.96042684  0.88574886  0.65383411  1  -1.177413  0  -0.313793  -0.540247  0  2.486418  0
O  O121  1  0.84759712  0.91366142  0.62670556  1  -1.153646  0  -0.312759  -0.542745  0  2.360373  0
O  O122  1  0.03958111  0.88574393  0.57467213  1  -1.177182  0  -0.313606  -0.540078  0  2.486612  0
O  O123  1  0.04036088  0.12668797  0.52572090  1  -1.169037  0  -0.312847  -0.542751  0  2.36041  0
O  O124  1  0.95964222  0.02570846  0.62669931  1  -1.169278  0  -0.312839  -0.542848  0  2.360339  0
O  O125  1  0.00000071  0.49999920  0.00000115  1  -1.233919  0  -0.572332  -1.03661  0  2.537178  0
O  O126  1  0.95963822  0.58632280  0.06607891  1  -1.154236  0  -0.312826  -0.542756  0  2.360172  0
O  O127  1  0.03958787  0.42533060  0.11425291  1  -1.17695  0  -0.313731  -0.540233  0  2.486429  0
O  O128  1  0.84758816  0.37330248  0.08632120  1  -1.153188  0  -0.312862  -0.542878  0  2.360358  0
O  O129  1  0.04036511  0.56607183  0.08634039  1  -1.153746  0  -0.312772  -0.54282  0  2.360043  0
O  O130  1  0.84759141  0.47427865  0.06607159  1  -1.152536  0  -0.312889  -0.542854  0  2.360519  0
O  O131  1  0.96041835  0.34616916  0.11425119  1  -1.177682  0  -0.313634  -0.540032  0  2.48674  0
O  O132  1  0.95963086  0.37329769  0.97429250  1  -1.169492  0  -0.312856  -0.542879  0  2.360174  0
O  O133  1  0.03957574  0.61424981  0.84616713  1  -1.177445  0  -0.313664  -0.540101  0  2.486608  0
O  O134  1  0.04034728  0.47427601  0.87331441  1  -1.16888  0  -0.312815  -0.54281  0  2.360438  0
O  O135  1  0.96041550  0.61425032  0.92532849  1  -1.177116  0  -0.313671  -0.540159  0  2.486637  0
O  O136  1  0.15241272  0.56608026  0.97427283  1  -1.152273  0  -0.312819  -0.542894  0  2.360413  0
O  O137  1  0.15240266  0.58632822  0.87329467  1  -1.153783  0  -0.312813  -0.542844  0  2.360241  0
F  F138  1  0.91524705  0.65393823  0.10997941  1  -0.620139  0  -0.090148  -0.123506  0  1.356866  0
F  F139  1  0.08474051  0.60996598  0.15398229  1  -0.620002  0  -0.090153  -0.123414  0  1.356768  0
F  F140  1  0.91525334  0.89002704  0.34602726  1  -0.620023  0  -0.090193  -0.123458  0  1.356799  0
F  F141  1  0.08468596  0.84597783  0.39010821  1  -0.620359  0  -0.090259  -0.123477  0  1.356399  0
F  F142  1  0.08476594  0.47474789  0.76131959  1  -0.61813  0  -0.090279  -0.123636  0  1.356779  0
F  F143  1  0.91527136  0.26128024  0.97478655  1  -0.618615  0  -0.090166  -0.123423  0  1.356547  0
F  F144  1  0.08468864  0.23871000  0.52522168  1  -0.618297  0  -0.090301  -0.123504  0  1.35655  0
F  F145  1  0.91524792  0.02522825  0.73870342  1  -0.618536  0  -0.090176  -0.123415  0  1.356849  0
F  F146  1  0.73606840  0.47476757  0.10994738  1  -0.620344  0  -0.090164  -0.123403  0  1.356678  0
F  F147  1  0.73606197  0.26128308  0.15399239  1  -0.621097  0  -0.090254  -0.123472  0  1.356489  0
F  F148  1  0.26393475  0.23871791  0.34599853  1  -0.621273  0  -0.09023  -0.123488  0  1.356517  0
F  F149  1  0.26392898  0.02524967  0.38997219  1  -0.620454  0  -0.09022  -0.123633  0  1.356882  0
F  F150  1  0.26394215  0.60992115  0.97476829  1  -0.620283  0  -0.090314  -0.123492  0  1.356577  0
F  F151  1  0.26392193  0.65397685  0.76127862  1  -0.621378  0  -0.090151  -0.123422  0  1.356606  0
F  F152  1  0.73607979  0.84601527  0.73872130  1  -0.621102  0  -0.09016  -0.123407  0  1.356439  0
F  F153  1  0.73605904  0.88999987  0.52524783  1  -0.62007  0  -0.09017  -0.123418  0  1.356906  0
