# generated using pymatgen
data_ZnH13C18N5O4
_symmetry_space_group_name_H-M   'P 1'
_cell_length_a   8.47642310
_cell_length_b   10.33202045
_cell_length_c   22.70641457
_cell_angle_alpha   89.99995092
_cell_angle_beta   89.99986163
_cell_angle_gamma   103.22042726
_symmetry_Int_Tables_number   1
_chemical_formula_structural   ZnH13C18N5O4
_chemical_formula_sum   'Zn4 H52 C72 N20 O16'
_cell_volume   1935.89257911
_cell_formula_units_Z   4
loop_
 _symmetry_equiv_pos_site_id
 _symmetry_equiv_pos_as_xyz
  1  'x, y, z'
loop_
 _atom_site_type_symbol
 _atom_site_label
 _atom_site_symmetry_multiplicity
 _atom_site_fract_x
 _atom_site_fract_y
 _atom_site_fract_z
 _atom_site_occupancy
 _atom_site_pbe_bader_charge
 _atom_site_pbe_bader_spin_density
 _atom_site_pbe_cm5_charge
 _atom_site_pbe_ddec_charge
 _atom_site_pbe_ddec_spin_density
 _atom_site_pbe_ddec_sum_bond_order
 _atom_site_pbe_magmom
Zn  Zn0  1  0.92307054  0.43216612  0.40829778  1  1.246452  0  0.694747  0.757961  0  2.360683  0
Zn  Zn1  1  0.07693457  0.06783125  0.90829835  1  1.246448  0  0.694693  0.757859  0  2.360831  0
Zn  Zn2  1  0.07692786  0.56783412  0.59170138  1  1.246409  0  0.694775  0.757938  0  2.360759  0
Zn  Zn3  1  0.92306895  0.93216606  0.09170212  1  1.246424  0  0.694757  0.757979  0  2.360767  0
H  H4  1  0.71129805  0.10243625  0.52705160  1  0.104798  0  0.108464  0.120232  0  1.013839  0
H  H5  1  0.28869669  0.39755731  0.02705206  1  0.110366  0  0.108465  0.120258  0  1.013738  0
H  H6  1  0.28870599  0.89756305  0.47295063  1  0.104794  0  0.108482  0.120272  0  1.013722  0
H  H7  1  0.71130499  0.60244197  0.97294753  1  0.110406  0  0.108454  0.120228  0  1.013796  0
H  H8  1  0.15168680  0.34612881  0.32638781  1  0.135418  0  0.12226  0.102728  0  0.991463  0
H  H9  1  0.84832168  0.15387481  0.82639029  1  0.135673  0  0.122233  0.102757  0  0.991409  0
H  H10  1  0.84831397  0.65387146  0.67361442  1  0.135383  0  0.122258  0.10274  0  0.991479  0
H  H11  1  0.15167986  0.84611951  0.17361150  1  0.135484  0  0.122229  0.10275  0  0.991359  0
H  H12  1  0.20013220  0.62419332  0.46082948  1  0.15785  0  0.120494  0.101384  0  1.017643  0
H  H13  1  0.79987413  0.87580278  0.96082884  1  0.157771  0  0.120515  0.101411  0  1.017764  0
H  H14  1  0.79986634  0.37581189  0.53917099  1  0.157856  0  0.120505  0.101374  0  1.017707  0
H  H15  1  0.20013332  0.12419159  0.03917252  1  0.157855  0  0.120534  0.101408  0  1.017666  0
H  H16  1  0.62828833  0.58449996  0.36628332  1  0.081739  0  0.107483  0.102702  0  1.022538  0
H  H17  1  0.37172039  0.91549845  0.86628482  1  0.081851  0  0.10754  0.102807  0  1.022417  0
H  H18  1  0.37171231  0.41550428  0.63371627  1  0.081754  0  0.107511  0.102725  0  1.022529  0
H  H19  1  0.62828286  0.08449787  0.13371786  1  0.081776  0  0.107512  0.102762  0  1.022493  0
H  H20  1  0.49953200  0.69365097  0.44638451  1  0.090132  0  0.104697  0.109488  0  1.030874  0
H  H21  1  0.50047587  0.80634618  0.94638549  1  0.090114  0  0.104722  0.109526  0  1.030968  0
H  H22  1  0.50046851  0.30635722  0.55361332  1  0.090173  0  0.104715  0.109544  0  1.030778  0
H  H23  1  0.49952829  0.19364916  0.05361674  1  0.090171  0  0.104685  0.109481  0  1.030908  0
H  H24  1  0.44888609  0.41076083  0.30329991  1  0.090139  0  0.103493  0.105869  0  1.028484  0
H  H25  1  0.55112019  0.08924284  0.80330269  1  0.090273  0  0.103492  0.105928  0  1.028532  0
H  H26  1  0.55111467  0.58923943  0.69670144  1  0.090394  0  0.10349  0.105841  0  1.02849  0
H  H27  1  0.44888253  0.91075149  0.19669999  1  0.090206  0  0.103471  0.105848  0  1.028465  0
H  H28  1  0.95560284  0.57830597  0.29374904  1  0.14762  0  0.121421  0.106455  0  0.99676  0
H  H29  1  0.04439461  0.92170150  0.79374952  1  0.147674  0  0.121431  0.106392  0  0.996896  0
H  H30  1  0.04437036  0.42170596  0.70624702  1  0.147259  0  0.121423  0.106363  0  0.996943  0
H  H31  1  0.95560026  0.07830764  0.20624876  1  0.147623  0  0.121395  0.106386  0  0.996786  0
H  H32  1  0.86692874  0.52788309  0.18881575  1  0.149369  0  0.106819  0.125701  0  1.040144  0
H  H33  1  0.13306711  0.97212470  0.68881656  1  0.149434  0  0.106812  0.125671  0  1.040259  0
H  H34  1  0.13306138  0.47211708  0.81118076  1  0.149389  0  0.106817  0.125709  0  1.040158  0
H  H35  1  0.86692868  0.02788345  0.31118391  1  0.149377  0  0.106836  0.125729  0  1.040118  0
H  H36  1  0.66748660  0.22498778  0.35352090  1  0.102052  0  0.114504  0.076259  0  1.039775  0
H  H37  1  0.33252535  0.27501182  0.85352160  1  0.101817  0  0.114499  0.076244  0  1.039714  0
H  H38  1  0.33250419  0.77501935  0.64647737  1  0.101973  0  0.114476  0.076264  0  1.039679  0
H  H39  1  0.66748079  0.72498651  0.14647843  1  0.101837  0  0.114507  0.076278  0  1.039652  0
H  H40  1  0.66514466  0.31336880  0.16768793  1  0.115787  0  0.105319  0.09633  0  1.025062  0
H  H41  1  0.33485315  0.18663524  0.66768779  1  0.115955  0  0.105296  0.09631  0  1.025082  0
H  H42  1  0.33485463  0.68662153  0.83230858  1  0.115902  0  0.105293  0.096371  0  1.025083  0
H  H43  1  0.66514867  0.81336900  0.33231092  1  0.115801  0  0.10531  0.096374  0  1.025072  0
H  H44  1  0.56073042  0.15929220  0.25214608  1  0.092264  0  0.10439  0.106775  0  1.017695  0
H  H45  1  0.43927570  0.34070965  0.75214578  1  0.092198  0  0.104415  0.106843  0  1.017726  0
H  H46  1  0.43927099  0.84070608  0.74785395  1  0.092292  0  0.104408  0.106789  0  1.017698  0
H  H47  1  0.56072940  0.65929363  0.24785513  1  0.091892  0  0.104395  0.106773  0  1.017689  0
H  H48  1  0.71785070  0.68463678  0.53111950  1  0.111429  0  0.110758  0.124524  0  1.014178  0
H  H49  1  0.28215494  0.81535971  0.03112132  1  0.111496  0  0.110741  0.124501  0  1.014161  0
H  H50  1  0.28215124  0.31536350  0.46888097  1  0.111494  0  0.110739  0.124501  0  1.014129  0
H  H51  1  0.71784937  0.18464059  0.96887739  1  0.111445  0  0.110775  0.124519  0  1.01418  0
H  H52  1  0.95661908  0.93491410  0.39128617  1  0.130065  0  0.106392  0.114945  0  1.02348  0
H  H53  1  0.04339827  0.56508629  0.89128370  1  0.129859  0  0.106424  0.115001  0  1.02343  0
H  H54  1  0.04338615  0.06508521  0.60871606  1  0.130037  0  0.106386  0.114922  0  1.023492  0
H  H55  1  0.95660353  0.43490903  0.10871590  1  0.129813  0  0.106435  0.115031  0  1.023381  0
C  C56  1  0.70484834  0.89131421  0.53505976  1  0.256719  0  0.095727  0.191107  0  4.091666  0
C  C57  1  0.29514965  0.60868022  0.03505945  1  0.257136  0  0.09575  0.191274  0  4.091325  0
C  C58  1  0.29515071  0.10868406  0.46494115  1  0.257359  0  0.095705  0.191077  0  4.091621  0
C  C59  1  0.70485203  0.39131906  0.96493971  1  0.256739  0  0.095715  0.191176  0  4.091511  0
C  C60  1  0.88699200  0.16517458  0.42631522  1  1.578832  0  0.196022  0.551354  0  4.231413  0
C  C61  1  0.11301495  0.33482573  0.92631434  1  1.578782  0  0.196058  0.551428  0  4.231492  0
C  C62  1  0.11301192  0.83482869  0.57368746  1  1.578826  0  0.196016  0.551369  0  4.231339  0
C  C63  1  0.88698475  0.66517056  0.07368525  1  1.578744  0  0.19597  0.55128  0  4.231469  0
C  C64  1  0.74585427  0.01620730  0.50790811  1  -0.02343  0  -0.087912  -0.187848  0  3.939329  0
C  C65  1  0.25414389  0.48378535  0.00790769  1  -0.029071  0  -0.087955  -0.188042  0  3.939176  0
C  C66  1  0.25414359  0.98379095  0.49209456  1  -0.023784  0  -0.087933  -0.18791  0  3.939253  0
C  C67  1  0.74585818  0.51621096  0.99209234  1  -0.029068  0  -0.087924  -0.18793  0  3.93926  0
C  C68  1  0.83616107  0.03190647  0.45579284  1  -0.031608  0  -0.021185  -0.019389  0  3.999604  0
C  C69  1  0.16384396  0.46809174  0.95579098  1  -0.031645  0  -0.021091  -0.019189  0  3.999612  0
C  C70  1  0.16383798  0.96809180  0.54420807  1  -0.031539  0  -0.021154  -0.019369  0  3.999665  0
C  C71  1  0.83616009  0.53190756  0.04420817  1  -0.031823  0  -0.021132  -0.019311  0  3.999655  0
C  C72  1  0.23371955  0.42503421  0.35042370  1  0.482451  0  0.05036  0.09026  0  3.931094  0
C  C73  1  0.76628625  0.07496435  0.85042628  1  0.482398  0  0.050329  0.090186  0  3.93127  0
C  C74  1  0.76628095  0.57496506  0.64957678  1  0.482477  0  0.05039  0.090253  0  3.931221  0
C  C75  1  0.23371727  0.92503297  0.14957419  1  0.482545  0  0.050323  0.090165  0  3.931271  0
C  C76  1  0.26029302  0.57921178  0.42663736  1  0.445313  0  0.056781  0.110354  0  3.895667  0
C  C77  1  0.73971211  0.92078343  0.92663896  1  0.44556  0  0.05673  0.110377  0  3.89567  0
C  C78  1  0.73970407  0.42079242  0.57336091  1  0.445308  0  0.056726  0.110315  0  3.895587  0
C  C79  1  0.26029469  0.07921292  0.07336195  1  0.445255  0  0.056687  0.110258  0  3.895747  0
C  C80  1  0.49778598  0.55727528  0.37356063  1  0.003195  0  -0.062867  -0.020107  0  3.94128  0
C  C81  1  0.50221980  0.94272110  0.87356375  1  0.003225  0  -0.062896  -0.020034  0  3.941057  0
C  C82  1  0.50221348  0.44272895  0.62643853  1  0.032383  0  -0.062899  -0.020178  0  3.941256  0
C  C83  1  0.49778608  0.05727623  0.12643760  1  0.003209  0  -0.062868  -0.020045  0  3.941123  0
C  C84  1  0.42688602  0.61781837  0.41808947  1  -0.004413  0  -0.082482  -0.122135  0  3.946748  0
C  C85  1  0.57311917  0.88217687  0.91808992  1  -0.00467  0  -0.082478  -0.122265  0  3.946696  0
C  C86  1  0.57311554  0.38218488  0.58191012  1  -0.033565  0  -0.082481  -0.122161  0  3.946678  0
C  C87  1  0.42688145  0.11781844  0.08191056  1  -0.004513  0  -0.082436  -0.122127  0  3.946855  0
C  C88  1  0.39901411  0.46040699  0.33866835  1  -0.085021  0  -0.086617  -0.135633  0  3.986868  0
C  C89  1  0.60098888  0.03958960  0.83867021  1  -0.085198  0  -0.086638  -0.135792  0  3.98703  0
C  C90  1  0.60098784  0.53959329  0.66133301  1  -0.085347  0  -0.086621  -0.135577  0  3.986909  0
C  C91  1  0.39901266  0.96040472  0.16133026  1  -0.085242  0  -0.08661  -0.135694  0  3.986921  0
C  C92  1  0.87066772  0.48606357  0.28155167  1  0.40701  0  0.048832  0.087366  0  3.914209  0
C  C93  1  0.12933281  0.01394013  0.78155177  1  0.407035  0  0.048841  0.087446  0  3.914357  0
C  C94  1  0.12932201  0.51393958  0.71844528  1  0.407249  0  0.048867  0.087459  0  3.914299  0
C  C95  1  0.87066127  0.98606603  0.21844826  1  0.40651  0  0.048857  0.087493  0  3.914119  0
C  C96  1  0.81907746  0.45739811  0.22386976  1  -0.035497  0  -0.081681  -0.127236  0  3.936261  0
C  C97  1  0.18091955  0.04260872  0.72386981  1  -0.035452  0  -0.081643  -0.127174  0  3.936452  0
C  C98  1  0.18091555  0.54260407  0.77612851  1  -0.035399  0  -0.081648  -0.127198  0  3.93624  0
C  C99  1  0.81907571  0.95739745  0.27612978  1  -0.03497  0  -0.081664  -0.127236  0  3.936235  0
C  C100  1  0.70760908  0.28785076  0.31543207  1  0.442273  0  0.046504  0.091547  0  3.954734  0
C  C101  1  0.29239868  0.21214991  0.81543284  1  0.442291  0  0.0465  0.091568  0  3.954545  0
C  C102  1  0.29238722  0.71215046  0.68456576  1  0.442445  0  0.046422  0.091362  0  3.954615  0
C  C103  1  0.70760261  0.78785234  0.18456852  1  0.442382  0  0.046487  0.091494  0  3.95455  0
C  C104  1  0.70734880  0.33821561  0.21241888  1  -0.016722  0  -0.059622  -0.007013  0  3.948875  0
C  C105  1  0.29264987  0.16178829  0.71241878  1  -0.016937  0  -0.059658  -0.007028  0  3.948977  0
C  C106  1  0.29265129  0.66177771  0.78757895  1  -0.016834  0  -0.059657  -0.007151  0  3.949079  0
C  C107  1  0.70734604  0.83821590  0.28758213  1  -0.016874  0  -0.05964  -0.007102  0  3.948998  0
C  C108  1  0.64937170  0.25260719  0.25906213  1  -0.021656  0  -0.085648  -0.137592  0  3.977286  0
C  C109  1  0.35063346  0.24739563  0.75906151  1  -0.021529  0  -0.085649  -0.137696  0  3.977354  0
C  C110  1  0.35062972  0.74739110  0.74093790  1  -0.021588  0  -0.085609  -0.137532  0  3.977311  0
C  C111  1  0.64936836  0.75260861  0.24093985  1  -0.021112  0  -0.085572  -0.137462  0  3.977225  0
C  C112  1  0.75025981  0.78154912  0.50993735  1  0.045067  0  -0.077145  -0.158291  0  3.90957  0
C  C113  1  0.24974046  0.71844442  0.00993791  1  0.044618  0  -0.077085  -0.15822  0  3.909363  0
C  C114  1  0.24973687  0.21844913  0.49006356  1  0.04472  0  -0.077099  -0.158188  0  3.90945  0
C  C115  1  0.75025989  0.28154989  0.99006124  1  0.045019  0  -0.077078  -0.15816  0  3.909416  0
C  C116  1  0.88354177  0.92287841  0.43114719  1  0.007028  0  -0.080384  -0.120045  0  3.943992  0
C  C117  1  0.11647122  0.57711983  0.93114508  1  0.007292  0  -0.080473  -0.120188  0  3.944233  0
C  C118  1  0.11645873  0.07712086  0.56885548  1  0.006938  0  -0.08043  -0.120076  0  3.944001  0
C  C119  1  0.88353058  0.42287549  0.06885451  1  0.007439  0  -0.080478  -0.120187  0  3.944019  0
C  C120  1  0.83987308  0.79770052  0.45769127  1  -0.075749  0  -0.019206  -0.025636  0  3.986134  0
C  C121  1  0.16013235  0.70229657  0.95769084  1  -0.075782  0  -0.019296  -0.02581  0  3.986162  0
C  C122  1  0.16012597  0.20229775  0.54230964  1  -0.075708  0  -0.019235  -0.025703  0  3.98617  0
C  C123  1  0.83986788  0.29770170  0.04230831  1  -0.07571  0  -0.019267  -0.025746  0  3.986122  0
C  C124  1  0.89019022  0.68302654  0.42844800  1  1.55408  0  0.194641  0.5548  0  4.235502  0
C  C125  1  0.10981635  0.81696966  0.92844801  1  1.554088  0  0.194634  0.55476  0  4.235572  0
C  C126  1  0.10981409  0.31697375  0.57155336  1  1.554069  0  0.194601  0.554731  0  4.235555  0
C  C127  1  0.89018690  0.18302666  0.07155115  1  1.554069  0  0.194646  0.554749  0  4.235691  0
N  N128  1  0.59498109  0.96497528  0.61697234  1  -0.261128  0  0.141299  0.368258  0  4.293938  0
N  N129  1  0.40500986  0.53501684  0.11697591  1  -0.261211  0  0.14136  0.368296  0  4.293902  0
N  N130  1  0.40501888  0.03502200  0.38302681  1  -0.261164  0  0.141403  0.368324  0  4.294047  0
N  N131  1  0.59499261  0.46498543  0.88302280  1  -0.261262  0  0.141339  0.368374  0  4.293827  0
N  N132  1  0.61765276  0.86914825  0.58881907  1  -0.374467  0  -0.151431  -0.223452  0  3.244855  0
N  N133  1  0.38234484  0.63084600  0.08882042  1  -0.374327  0  -0.151464  -0.223561  0  3.244642  0
N  N134  1  0.38234918  0.13085202  0.41118273  1  -0.374465  0  -0.151442  -0.223486  0  3.24473  0
N  N135  1  0.61766039  0.36915332  0.91117873  1  -0.374351  0  -0.151461  -0.223576  0  3.244542  0
N  N136  1  0.56502608  0.04412459  0.64802895  1  0.146447  0  -0.084875  -0.224088  0  2.541035  0
N  N137  1  0.43495687  0.45586749  0.14803189  1  0.146392  0  -0.084895  -0.224059  0  2.541142  0
N  N138  1  0.43496903  0.95587662  0.35197197  1  0.146532  0  -0.084922  -0.224088  0  2.541358  0
N  N139  1  0.56504284  0.54412880  0.85196682  1  0.146467  0  -0.084869  -0.224108  0  2.541282  0
N  N140  1  0.16603852  0.48337449  0.39369123  1  -1.252318  0  -0.32892  -0.228782  0  3.592416  0
N  N141  1  0.83397116  0.01662198  0.89369157  1  -1.252438  0  -0.32886  -0.228727  0  3.592609  0
N  N142  1  0.83396316  0.51662479  0.60630969  1  -1.252327  0  -0.328912  -0.228753  0  3.592271  0
N  N143  1  0.16603446  0.98337436  0.10630758  1  -1.252254  0  -0.32885  -0.22867  0  3.592554  0
N  N144  1  0.81663367  0.40218640  0.32650861  1  -1.252752  0  -0.332371  -0.238441  0  3.590513  0
N  N145  1  0.18337073  0.09781520  0.82650907  1  -1.252753  0  -0.332358  -0.238363  0  3.590406  0
N  N146  1  0.18335633  0.59781774  0.67348790  1  -1.252904  0  -0.332349  -0.238247  0  3.590325  0
N  N147  1  0.81662991  0.90218903  0.17348876  1  -1.252694  0  -0.332438  -0.238564  0  3.590484  0
O  O148  1  0.84038349  0.26313602  0.45169131  1  -1.169847  0  -0.334307  -0.547441  0  2.295873  0
O  O149  1  0.15962038  0.23686220  0.95168998  1  -1.169888  0  -0.334364  -0.547512  0  2.295838  0
O  O150  1  0.15961662  0.73686623  0.54831092  1  -1.169756  0  -0.33432  -0.547427  0  2.295811  0
O  O151  1  0.84038904  0.76313517  0.04830961  1  -1.169793  0  -0.334294  -0.547403  0  2.295929  0
O  O152  1  0.96786409  0.17590805  0.37966625  1  -1.176578  0  -0.320008  -0.555628  0  2.171194  0
O  O153  1  0.03213913  0.32409040  0.87966721  1  -1.176495  0  -0.319984  -0.555629  0  2.171334  0
O  O154  1  0.03213667  0.82409222  0.62033467  1  -1.176682  0  -0.320009  -0.555652  0  2.171208  0
O  O155  1  0.96786084  0.67590689  0.12033371  1  -1.176513  0  -0.319987  -0.555594  0  2.171135  0
O  O156  1  0.95735891  0.69951016  0.37903814  1  -1.177747  0  -0.329274  -0.562916  0  2.138455  0
O  O157  1  0.04264644  0.80048917  0.87903777  1  -1.177724  0  -0.329262  -0.562907  0  2.138604  0
O  O158  1  0.04264356  0.30049211  0.62096366  1  -1.177768  0  -0.329247  -0.562896  0  2.138481  0
O  O159  1  0.95735853  0.19950915  0.12095962  1  -1.17766  0  -0.329245  -0.562863  0  2.13867  0
O  O160  1  0.85615839  0.57023028  0.45658061  1  -1.1646  0  -0.335476  -0.554751  0  2.306454  0
O  O161  1  0.14383706  0.92976474  0.95658099  1  -1.16461  0  -0.335432  -0.554628  0  2.306436  0
O  O162  1  0.14384566  0.42976902  0.54342074  1  -1.164579  0  -0.33544  -0.554651  0  2.306392  0
O  O163  1  0.85616001  0.07023053  0.04341816  1  -1.164662  0  -0.335502  -0.554747  0  2.306451  0
