# generated using pymatgen
data_Al2H15C19O10F3
_symmetry_space_group_name_H-M   'P 1'
_cell_length_a   6.95202123
_cell_length_b   11.81267603
_cell_length_c   17.74237131
_cell_angle_alpha   90.00032245
_cell_angle_beta   89.99828194
_cell_angle_gamma   103.03749822
_symmetry_Int_Tables_number   1
_chemical_formula_structural   Al2H15C19O10F3
_chemical_formula_sum   'Al4 H30 C38 O20 F6'
_cell_volume   1419.47994768
_cell_formula_units_Z   2
loop_
 _symmetry_equiv_pos_site_id
 _symmetry_equiv_pos_as_xyz
  1  'x, y, z'
loop_
 _atom_site_type_symbol
 _atom_site_label
 _atom_site_symmetry_multiplicity
 _atom_site_fract_x
 _atom_site_fract_y
 _atom_site_fract_z
 _atom_site_occupancy
 _atom_site_pbe_bader_charge
 _atom_site_pbe_bader_spin_density
 _atom_site_pbe_cm5_charge
 _atom_site_pbe_ddec_charge
 _atom_site_pbe_ddec_spin_density
 _atom_site_pbe_ddec_sum_bond_order
 _atom_site_pbe_magmom
Al  Al0  1  0.12424274  0.49684586  0.50000695  1  2.489346  0  0.407852  1.653827  0  2.55599  0
Al  Al1  1  0.62785030  0.49843056  0.50000690  1  2.484389  0  0.407277  1.639902  0  2.541803  0
Al  Al2  1  0.75473924  0.00341882  0.99998578  1  2.489023  0  0.40474  1.650355  0  2.543243  0
Al  Al3  1  0.24844970  0.99790620  0.99998911  1  2.484804  0  0.409176  1.645443  0  2.540651  0
H  H4  1  0.79070165  0.17229873  0.80278130  1  0.111546  0  0.108744  0.112461  0  1.000717  0
H  H5  1  0.79069242  0.17230608  0.19722301  1  0.11147  0  0.108735  0.112427  0  1.000742  0
H  H6  1  0.09913102  0.32125602  0.69275128  1  0.104395  0  0.110955  0.10684  0  0.997639  0
H  H7  1  0.09912559  0.32122472  0.30726109  1  0.104554  0  0.111032  0.106915  0  0.997774  0
H  H8  1  0.64466441  0.26408433  0.69229607  1  0.078776  0  0.108369  0.127341  0  1.002358  0
H  H9  1  0.64466378  0.26405828  0.30773981  1  0.079055  0  0.108293  0.127357  0  1.002198  0
H  H10  1  0.13120649  0.67385070  0.68335417  1  0.119051  0  0.105212  0.105353  0  1.068435  0
H  H11  1  0.13122703  0.67385359  0.31665403  1  0.119762  0  0.105261  0.105482  0  1.068359  0
H  H12  1  0.13437264  0.77480658  0.80827167  1  0.125717  0  0.097516  0.094381  0  1.116418  0
H  H13  1  0.13438239  0.77480794  0.19173796  1  0.125492  0  0.09743  0.094311  0  1.116501  0
H  H14  1  0.92623030  0.76778048  0.68151335  1  0.096606  0  0.111771  0.088673  0  0.972485  0
H  H15  1  0.92624132  0.76778851  0.31846549  1  0.097054  0  0.111816  0.088671  0  0.972394  0
H  H16  1  0.63412290  0.49812803  0.90477737  1  0.034183  0  0.082869  0.112415  0  1.008045  0
H  H17  1  0.63050528  0.45964812  0.80821135  1  0.035223  0  0.077689  0.109334  0  1.038355  0
H  H18  1  0.68143487  0.36227787  0.87747154  1  0.014056  0  0.081787  0.110017  0  1.010424  0
H  H19  1  0.28288472  0.43467734  0.86134461  1  -0.004515  0  0.086654  0.076339  0  0.973106  0
H  H20  1  0.33615579  0.33630145  0.92869070  1  0.027738  0  0.086477  0.072959  0  1.001206  0
H  H21  1  0.39817933  0.20594503  0.82271813  1  0.05712  0  0.09996  0.106079  0  0.981961  0
H  H22  1  0.32788309  0.30263124  0.75705025  1  0.031012  0  0.094125  0.091115  0  0.998269  0
H  H23  1  0.63059122  0.45960516  0.19179374  1  0.035551  0  0.077665  0.109194  0  1.038577  0
H  H24  1  0.68149027  0.36220564  0.12254258  1  0.013966  0  0.081705  0.109903  0  1.010198  0
H  H25  1  0.63425385  0.49806812  0.09521873  1  0.034374  0  0.082874  0.112406  0  1.008066  0
H  H26  1  0.33622483  0.33629509  0.07130869  1  0.031057  0  0.086467  0.072808  0  1.001203  0
H  H27  1  0.28299835  0.43469167  0.13865598  1  -0.004498  0  0.086528  0.076153  0  0.973099  0
H  H28  1  0.32786170  0.30262633  0.24295268  1  0.030967  0  0.094089  0.09103  0  0.998434  0
H  H29  1  0.39815393  0.20591983  0.17729426  1  0.056957  0  0.099867  0.105947  0  0.981943  0
H  H30  1  0.32137701  0.34508358  0.49997490  1  0.585143  0  0.348099  0.426987  0  0.856247  0
H  H31  1  0.93605237  0.65413849  0.49997970  1  0.588134  0  0.342944  0.420205  0  0.865664  0
H  H32  1  0.55475446  0.15415684  0.00013519  1  0.589341  0  0.344625  0.424679  0  0.861597  0
H  H33  1  0.93690820  0.84550339  0.00045442  1  0.597383  0  0.340356  0.424847  0  0.866597  0
C  C34  1  0.42533265  0.62670024  0.60511628  1  1.59622  0  0.272061  0.651394  0  4.090913  0
C  C35  1  0.42533255  0.62667580  0.39487719  1  1.595959  0  0.271978  0.651214  0  4.091085  0
C  C36  1  0.82448963  0.36700675  0.39570305  1  1.532191  0  0.259909  0.689113  0  4.098134  0
C  C37  1  0.82447526  0.36704318  0.60432736  1  1.53226  0  0.259944  0.68943  0  4.097588  0
C  C38  1  0.79656686  0.29743136  0.67390748  1  -0.02776  0  -0.09181  -0.252409  0  3.882564  0
C  C39  1  0.79656970  0.29739875  0.32612139  1  -0.028102  0  -0.091744  -0.252271  0  3.882647  0
C  C40  1  0.95274879  0.28148844  0.71474641  1  -0.077325  0  -0.067527  -0.001658  0  4.005499  0
C  C41  1  0.95273989  0.28146450  0.28527169  1  -0.077528  0  -0.067701  -0.001922  0  4.00585  0
C  C42  1  0.09365096  0.20850638  0.82800082  1  -0.056651  0  0.002313  -0.01126  0  3.873357  0
C  C43  1  0.09365414  0.20852205  0.17199437  1  -0.032571  0  0.002267  -0.011388  0  3.873311  0
C  C44  1  0.93763527  0.21772156  0.78408001  1  0.019343  0  -0.080204  -0.114448  0  3.987748  0
C  C45  1  0.93762326  0.21772490  0.21592540  1  -0.004348  0  -0.080252  -0.114358  0  3.987225  0
C  C46  1  0.61090178  0.72713998  0.72078202  1  -0.035101  0  -0.004294  0.016418  0  3.947809  0
C  C47  1  0.61091288  0.72712911  0.27920744  1  -0.035185  0  -0.004365  0.016287  0  3.947524  0
C  C48  1  0.43948717  0.68903422  0.67879965  1  0.042057  0  8e-06  -0.046475  0  3.936758  0
C  C49  1  0.43950695  0.68902592  0.32119413  1  0.041903  0  0.000134  -0.046146  0  3.936524  0
C  C50  1  0.26842267  0.70874795  0.71273172  1  -0.045411  0  -0.071601  -0.081554  0  3.934429  0
C  C51  1  0.26843944  0.70873901  0.28727168  1  -0.046107  0  -0.071676  -0.081796  0  3.934196  0
C  C52  1  0.26949665  0.76509057  0.78217237  1  -0.021922  0  -0.072287  -0.079644  0  3.932101  0
C  C53  1  0.26951520  0.76508643  0.21782785  1  -0.020987  0  -0.072251  -0.079638  0  3.931904  0
C  C54  1  0.44318709  0.80824601  0.82229757  1  -0.007077  0  0.005922  -0.013684  0  3.926408  0
C  C55  1  0.44319421  0.80822718  0.17769377  1  -0.007762  0  0.005955  -0.013624  0  3.926381  0
C  C56  1  0.61072988  0.78528630  0.78896243  1  0.007307  0  -0.011924  -0.087255  0  3.973278  0
C  C57  1  0.61074687  0.78526730  0.21102052  1  0.007754  0  -0.011922  -0.087086  0  3.973245  0
C  C58  1  0.82460969  0.79336111  0.80234125  1  1.129408  0  0.200576  0.41204  0  3.958787  0
C  C59  1  0.82461863  0.79336690  0.19764530  1  1.12923  0  0.200532  0.411833  0  3.959221  0
C  C60  1  0.82483943  0.72379189  0.72528657  1  0.521488  0  0.028376  0.031429  0  3.87016  0
C  C61  1  0.82486096  0.72378709  0.27469404  1  0.521587  0  0.028404  0.031508  0  3.869797  0
C  C62  1  0.45430841  0.87191407  0.10454959  1  1.604901  0  0.272689  0.646001  0  4.08511  0
C  C63  1  0.45432191  0.87193357  0.89543485  1  1.605094  0  0.272532  0.645787  0  4.085592  0
C  C64  1  0.05486512  0.13388469  0.89680050  1  1.539584  0  0.26603  0.63451  0  4.083928  0
C  C65  1  0.05486224  0.13392328  0.10318054  1  1.540373  0  0.265773  0.634396  0  4.083994  0
C  C66  1  0.30486092  0.26891197  0.81484557  1  -0.002514  0  -0.161721  -0.188536  0  3.971834  0
C  C67  1  0.37136678  0.36953748  0.87113470  1  0.012228  0  -0.163382  -0.082737  0  3.950557  0
C  C68  1  0.59110853  0.42543760  0.86506008  1  -0.067318  0  -0.248664  -0.35613  0  3.971153  0
C  C69  1  0.30484892  0.26889830  0.18515973  1  -0.002656  0  -0.161494  -0.188292  0  3.971814  0
C  C70  1  0.37143134  0.36952953  0.12886413  1  0.012502  0  -0.163295  -0.08222  0  3.95014  0
C  C71  1  0.59118612  0.42538832  0.13494460  1  -0.068281  0  -0.248598  -0.356023  0  3.971299  0
O  O72  1  0.58327324  0.60487568  0.42161988  1  -1.243898  0  -0.234093  -0.58591  0  2.308526  0
O  O73  1  0.58326211  0.60490300  0.57836668  1  -1.244166  0  -0.234084  -0.585907  0  2.308547  0
O  O74  1  0.25375059  0.60189215  0.57592536  1  -1.249148  0  -0.231583  -0.589665  0  2.362679  0
O  O75  1  0.25375721  0.60187177  0.42406572  1  -1.24914  0  -0.231465  -0.589444  0  2.362766  0
O  O76  1  0.99902653  0.39514362  0.57681330  1  -1.261697  0  -0.242364  -0.616126  0  2.334467  0
O  O77  1  0.99903644  0.39510853  0.42320925  1  -1.261522  0  -0.242474  -0.616128  0  2.334663  0
O  O78  1  0.35063442  0.42924847  0.50000724  1  -1.390976  0  -0.450279  -0.984266  0  2.121614  0
O  O79  1  0.66987479  0.39362073  0.42304045  1  -1.25123  0  -0.244325  -0.609396  0  2.300525  0
O  O80  1  0.66986790  0.39366019  0.57699394  1  -1.251355  0  -0.244451  -0.60957  0  2.300405  0
O  O81  1  0.90357229  0.57003328  0.49999307  1  -1.397338  0  -0.450493  -0.980036  0  2.123724  0
O  O82  1  0.29645745  0.89327763  0.92204692  1  -1.239262  0  -0.226372  -0.573524  0  2.330533  0
O  O83  1  0.29644470  0.89326631  0.07794949  1  -1.238887  0  -0.226519  -0.57376  0  2.330545  0
O  O84  1  0.62705911  0.89923680  0.07650462  1  -1.241268  0  -0.228531  -0.586358  0  2.378672  0
O  O85  1  0.62707442  0.89927502  0.92346582  1  -1.240908  0  -0.228473  -0.586053  0  2.37896  0
O  O86  1  0.87929177  0.10753675  0.07702709  1  -1.260655  0  -0.239219  -0.606127  0  2.357118  0
O  O87  1  0.87929901  0.10748828  0.92295685  1  -1.260355  0  -0.23912  -0.605954  0  2.357487  0
O  O88  1  0.52668908  0.06999646  0.99999961  1  -1.395552  0  -0.452577  -0.983774  0  2.115704  0
O  O89  1  0.20532138  0.10316812  0.92406804  1  -1.247074  0  -0.232688  -0.594001  0  2.375209  0
O  O90  1  0.20533922  0.10323065  0.07590689  1  -1.247749  0  -0.232572  -0.594114  0  2.375253  0
O  O91  1  0.97335346  0.92967005  0.00000642  1  -1.396184  0  -0.452633  -0.987932  0  2.138865  0
F  F92  1  0.86993440  0.73697811  0.86555114  1  -0.622504  0  -0.095217  -0.172362  0  1.332503  0
F  F93  1  0.86996671  0.73698729  0.13442452  1  -0.622672  0  -0.095224  -0.172589  0  1.332531  0
F  F94  1  0.94413830  0.90371560  0.80207330  1  -0.620379  0  -0.102386  -0.180549  0  1.324789  0
F  F95  1  0.94414263  0.90372049  0.19791167  1  -0.620387  0  -0.102318  -0.180446  0  1.324875  0
F  F96  1  0.85332433  0.61111593  0.73539439  1  -0.623178  0  -0.109101  -0.139514  0  1.34969  0
F  F97  1  0.85336158  0.61111715  0.26459374  1  -0.623529  0  -0.109086  -0.139453  0  1.349777  0
