# generated using pymatgen
data_Zn4H24C24N12O13
_symmetry_space_group_name_H-M   'P 1'
_cell_length_a   18.57235073
_cell_length_b   18.57267304
_cell_length_c   18.57229659
_cell_angle_alpha   89.99919091
_cell_angle_beta   119.99978722
_cell_angle_gamma   119.99976453
_symmetry_Int_Tables_number   1
_chemical_formula_structural   Zn4H24C24N12O13
_chemical_formula_sum   'Zn8 H48 C48 N24 O26'
_cell_volume   4529.99696560
_cell_formula_units_Z   2
loop_
 _symmetry_equiv_pos_site_id
 _symmetry_equiv_pos_as_xyz
  1  'x, y, z'
loop_
 _atom_site_type_symbol
 _atom_site_label
 _atom_site_symmetry_multiplicity
 _atom_site_fract_x
 _atom_site_fract_y
 _atom_site_fract_z
 _atom_site_occupancy
 _atom_site_pbe_bader_charge
 _atom_site_pbe_bader_spin_density
 _atom_site_pbe_cm5_charge
 _atom_site_pbe_ddec_charge
 _atom_site_pbe_ddec_spin_density
 _atom_site_pbe_ddec_sum_bond_order
 _atom_site_pbe_magmom
Zn  Zn0  1  0.58534908  0.62802810  0.04267655  1  1.308229  0  0.677147  0.949557  0  2.404868  0
Zn  Zn1  1  0.41464698  0.45732200  0.87195681  1  1.307417  0  0.677214  0.949631  0  2.405628  0
Zn  Zn2  1  0.41467946  0.45732707  0.04267658  1  1.311115  0  0.677136  0.949416  0  2.40563  0
Zn  Zn3  1  0.58534027  0.45733248  0.04267805  1  1.31099  0  0.677154  0.949441  0  2.404986  0
Zn  Zn4  1  0.41468164  0.87198497  0.45734217  1  1.30884  0  0.677161  0.949422  0  2.405443  0
Zn  Zn5  1  0.58535344  0.04265865  0.45734245  1  1.310758  0  0.677183  0.949507  0  2.405077  0
Zn  Zn6  1  0.58534355  0.04265608  0.62802291  1  1.308894  0  0.677102  0.949371  0  2.405884  0
Zn  Zn7  1  0.41465323  0.04265802  0.45735304  1  1.310787  0  0.677214  0.949472  0  2.405055  0
H  H8  1  0.82444137  0.53003940  0.15164379  1  0.496784  0  0.288646  0.298036  0  1.006907  0
H  H9  1  0.93899398  0.54981790  0.18486087  1  0.417935  0  0.294221  0.281527  0  0.970806  0
H  H10  1  0.17556288  0.96998354  0.32720869  1  0.457872  0  0.288745  0.297993  0  1.006903  0
H  H11  1  0.06103549  0.95022121  0.24588470  1  0.411488  0  0.294322  0.281725  0  0.970663  0
H  H12  1  0.17558927  0.70562388  0.34835661  1  0.490175  0  0.288831  0.298264  0  1.006983  0
H  H13  1  0.06104892  0.61086679  0.31511705  1  0.422817  0  0.294508  0.281836  0  0.971  0
H  H14  1  0.82443472  0.79442393  0.17276168  1  0.452303  0  0.288969  0.29819  0  1.006953  0
H  H15  1  0.93896236  0.88916418  0.25407510  1  0.438936  0  0.294407  0.281637  0  0.971193  0
H  H16  1  0.17556979  0.34834071  0.96997819  1  0.496668  0  0.288961  0.298276  0  1.006819  0
H  H17  1  0.06106246  0.31512256  0.95022697  1  0.418584  0  0.294474  0.281717  0  0.970969  0
H  H18  1  0.82443867  0.17278640  0.53005290  1  0.456935  0  0.288887  0.298215  0  1.006895  0
H  H19  1  0.93895562  0.25408734  0.54981993  1  0.411656  0  0.29444  0.281737  0  0.971314  0
H  H20  1  0.82443436  0.15165600  0.79442636  1  0.489134  0  0.288777  0.298137  0  1.006751  0
H  H21  1  0.93898874  0.18487082  0.88918860  1  0.42179  0  0.294271  0.281637  0  0.970776  0
H  H22  1  0.17558873  0.32724201  0.70561769  1  0.45232  0  0.288801  0.298156  0  1.006819  0
H  H23  1  0.06103635  0.24590129  0.61084921  1  0.439087  0  0.294244  0.281524  0  0.971148  0
H  H24  1  0.37835479  0.53000690  0.17277014  1  0.469312  0  0.288909  0.298245  0  1.006865  0
H  H25  1  0.36491282  0.54978400  0.25407693  1  0.422656  0  0.294434  0.281711  0  0.970952  0
H  H26  1  0.64273621  0.96994507  0.34834497  1  0.478891  0  0.288834  0.298092  0  1.006849  0
H  H27  1  0.70429322  0.95019687  0.31512443  1  0.423199  0  0.294285  0.281561  0  0.970926  0
H  H28  1  0.35724074  0.70556578  0.32722826  1  0.483417  0  0.288832  0.298085  0  1.006884  0
H  H29  1  0.29569508  0.61082320  0.24588401  1  0.421548  0  0.294454  0.281836  0  0.970891  0
H  H30  1  0.62162369  0.79439448  0.15165830  1  0.491172  0  0.288881  0.298221  0  1.006881  0
H  H31  1  0.63505972  0.88915114  0.18487324  1  0.431977  0  0.294407  0.281863  0  0.970988  0
H  H32  1  0.62161794  0.32720889  0.96995670  1  0.469796  0  0.28874  0.298002  0  1.007108  0
H  H33  1  0.63506674  0.24589220  0.95019266  1  0.421972  0  0.294332  0.281727  0  0.970799  0
H  H34  1  0.35723532  0.15164984  0.53002190  1  0.478195  0  0.28879  0.297985  0  1.00696  0
H  H35  1  0.29569198  0.18486696  0.54979259  1  0.422877  0  0.294329  0.28168  0  0.970924  0
H  H36  1  0.64273030  0.17276630  0.79438604  1  0.483951  0  0.288911  0.298273  0  1.007058  0
H  H37  1  0.70426664  0.25408254  0.88913441  1  0.422134  0  0.294451  0.281761  0  0.971342  0
H  H38  1  0.37835843  0.34833295  0.70558334  1  0.492529  0  0.288947  0.298206  0  1.006944  0
H  H39  1  0.36492846  0.31512810  0.61083423  1  0.431746  0  0.294377  0.281773  0  0.970962  0
H  H40  1  0.35727008  0.53003834  0.70560811  1  0.483202  0  0.289008  0.298351  0  1.007013  0
H  H41  1  0.29570709  0.54979352  0.61085010  1  0.417134  0  0.294342  0.28169  0  0.971066  0
H  H42  1  0.62160302  0.96997514  0.79437245  1  0.494008  0  0.288682  0.29815  0  1.007044  0
H  H43  1  0.63507071  0.95020929  0.88914667  1  0.425724  0  0.294373  0.281633  0  0.971148  0
H  H44  1  0.37840148  0.70561834  0.53003093  1  0.494359  0  0.288739  0.298172  0  1.007038  0
H  H45  1  0.36494815  0.61085079  0.54980294  1  0.42562  0  0.294312  0.281574  0  0.971154  0
H  H46  1  0.64273511  0.79441666  0.96995631  1  0.480968  0  0.288921  0.29806  0  1.007067  0
H  H47  1  0.70430769  0.88916145  0.95020213  1  0.417302  0  0.294419  0.281724  0  0.970927  0
H  H48  1  0.35723244  0.32721628  0.15166821  1  0.487488  0  0.288867  0.298145  0  1.006925  0
H  H49  1  0.29569566  0.24588133  0.18488441  1  0.430061  0  0.29444  0.281851  0  0.970695  0
H  H50  1  0.62164003  0.15166855  0.32722333  1  0.480853  0  0.288865  0.298127  0  1.007067  0
H  H51  1  0.63506214  0.18487935  0.24589282  1  0.419782  0  0.294398  0.281756  0  0.970944  0
H  H52  1  0.37836949  0.17278124  0.34835250  1  0.480705  0  0.288983  0.29829  0  1.007051  0
H  H53  1  0.36491327  0.25408014  0.31510915  1  0.419386  0  0.294363  0.281639  0  0.971052  0
H  H54  1  0.64274914  0.34837443  0.17276743  1  0.487369  0  0.288736  0.2983  0  1.006844  0
H  H55  1  0.70425767  0.31510962  0.25407723  1  0.43133  0  0.294414  0.281753  0  0.971155  0
C  C56  1  0.50001731  0.63916074  0.86086924  1  1.443257  0  0.22419  0.627463  0  4.106122  0
C  C57  1  0.22170500  0.36085781  0.86086491  1  1.460199  0  0.22394  0.627083  0  4.105699  0
C  C58  1  0.49999325  0.63914845  0.13914410  1  1.453809  0  0.223737  0.626499  0  4.105642  0
C  C59  1  0.49998001  0.36086341  0.13915213  1  1.432008  0  0.224065  0.626996  0  4.104631  0
C  C60  1  0.77828688  0.63915694  0.13913005  1  1.462009  0  0.223832  0.626576  0  4.104746  0
C  C61  1  0.49999990  0.36084514  0.86086227  1  1.454431  0  0.223992  0.627132  0  4.105007  0
C  C62  1  0.50000592  0.86085615  0.36086747  1  1.441013  0  0.22395  0.626778  0  4.105047  0
C  C63  1  0.77829321  0.13913323  0.63916764  1  1.44193  0  0.223821  0.626559  0  4.104613  0
C  C64  1  0.50001570  0.86085967  0.63914812  1  1.471193  0  0.224061  0.627221  0  4.104341  0
C  C65  1  0.49999032  0.13915175  0.63912968  1  1.445604  0  0.223932  0.626839  0  4.105155  0
C  C66  1  0.22173071  0.86088322  0.36086811  1  1.442227  0  0.224014  0.627158  0  4.104647  0
C  C67  1  0.49998744  0.13913732  0.36085463  1  1.474426  0  0.223805  0.626758  0  4.105567  0
C  C68  1  0.89056290  0.69530460  0.19525949  1  0.073494  0  -0.038363  -0.248864  0  3.943112  0
C  C69  1  0.10946172  0.80473205  0.30473034  1  0.04318  0  -0.038597  -0.249451  0  3.94375  0
C  C70  1  0.94617108  0.65703320  0.22166327  1  0.392076  0  0.07921  0.175508  0  4.043565  0
C  C71  1  0.05382874  0.84299911  0.27549437  1  0.392373  0  0.079218  0.175384  0  4.043429  0
C  C72  1  0.05387142  0.71087087  0.27834978  1  0.458076  0  0.079392  0.176176  0  4.044935  0
C  C73  1  0.94615116  0.78916768  0.22448736  1  0.442233  0  0.07925  0.175872  0  4.044701  0
C  C74  1  0.10945484  0.30472612  0.80475271  1  0.084395  0  -0.038491  -0.249325  0  3.943464  0
C  C75  1  0.89055883  0.19525531  0.69528380  1  0.039051  0  -0.038366  -0.248742  0  3.942864  0
C  C76  1  0.05386769  0.27834441  0.84302875  1  0.389632  0  0.079521  0.176293  0  4.044953  0
C  C77  1  0.94616223  0.22448162  0.65700887  1  0.396877  0  0.079342  0.175744  0  4.044932  0
C  C78  1  0.94618115  0.22165920  0.78916625  1  0.4625  0  0.079132  0.175362  0  4.044188  0
C  C79  1  0.05383850  0.27550383  0.71086035  1  0.440328  0  0.079259  0.17563  0  4.043891  0
C  C80  1  0.49999683  0.69528601  0.19527430  1  0.084053  0  -0.038254  -0.248705  0  3.9428  0
C  C81  1  0.50000369  0.80469555  0.30472771  1  0.046316  0  -0.038249  -0.248798  0  3.942818  0
C  C82  1  0.43532296  0.65698601  0.22448312  1  0.412176  0  0.079327  0.175844  0  4.043992  0
C  C83  1  0.56747934  0.84297951  0.27834233  1  0.395221  0  0.079228  0.175584  0  4.044936  0
C  C84  1  0.43249557  0.71082282  0.27548480  1  0.446327  0  0.079066  0.17534  0  4.044535  0
C  C85  1  0.56466039  0.78915045  0.22166377  1  0.392247  0  0.079371  0.175831  0  4.044627  0
C  C86  1  0.49998494  0.30469556  0.80469784  1  0.089901  0  -0.038206  -0.24886  0  3.943091  0
C  C87  1  0.49998451  0.19527068  0.69528050  1  0.043922  0  -0.038275  -0.24884  0  3.943049  0
C  C88  1  0.56463927  0.27549131  0.84297536  1  0.410991  0  0.079153  0.175481  0  4.045033  0
C  C89  1  0.43250953  0.22167934  0.65700606  1  0.395855  0  0.079232  0.175358  0  4.044223  0
C  C90  1  0.56748528  0.22449423  0.78914595  1  0.445988  0  0.079361  0.176013  0  4.045161  0
C  C91  1  0.43533489  0.27834117  0.71084378  1  0.385585  0  0.079238  0.175872  0  4.045142  0
C  C92  1  0.50002823  0.69528624  0.80473698  1  0.041743  0  -0.0384  -0.249127  0  3.943528  0
C  C93  1  0.49999681  0.80472884  0.69526455  1  0.083117  0  -0.038652  -0.249347  0  3.943328  0
C  C94  1  0.43252302  0.65700414  0.71085859  1  0.436366  0  0.079333  0.175969  0  4.044085  0
C  C95  1  0.56467168  0.84299643  0.78915517  1  0.391378  0  0.079395  0.175818  0  4.043625  0
C  C96  1  0.43534828  0.71084122  0.65700793  1  0.389706  0  0.079253  0.175504  0  4.044306  0
C  C97  1  0.56750511  0.78915672  0.84300192  1  0.436279  0  0.079316  0.175655  0  4.044335  0
C  C98  1  0.49996572  0.30470882  0.19527033  1  0.019312  0  -0.038518  -0.249242  0  3.94327  0
C  C99  1  0.49998798  0.19528014  0.30470802  1  0.049374  0  -0.038197  -0.248886  0  3.943077  0
C  C100  1  0.43249095  0.27549172  0.22166471  1  0.405027  0  0.079212  0.175695  0  4.044859  0
C  C101  1  0.56463892  0.22164639  0.27549104  1  0.445839  0  0.079229  0.175779  0  4.045041  0
C  C102  1  0.43532542  0.22448270  0.27833229  1  0.446428  0  0.079341  0.175882  0  4.044652  0
C  C103  1  0.56746335  0.27832349  0.22449366  1  0.406611  0  0.079246  0.175595  0  4.044278  0
N  N104  1  0.90104281  0.56658325  0.19770251  1  -1.241547  0  -0.614607  -0.622052  0  3.333085  0
N  N105  1  0.09896396  0.93345402  0.29666735  1  -1.196816  0  -0.614919  -0.622143  0  3.332497  0
N  N106  1  0.09900238  0.66557844  0.30231811  1  -1.239187  0  -0.61497  -0.622346  0  3.334566  0
N  N107  1  0.90101783  0.83446498  0.20331502  1  -1.21794  0  -0.615155  -0.622177  0  3.334078  0
N  N108  1  0.09898414  0.30229624  0.93344536  1  -1.242866  0  -0.615126  -0.622302  0  3.334423  0
N  N109  1  0.90102136  0.20332382  0.56658111  1  -1.196122  0  -0.615032  -0.62226  0  3.334591  0
N  N110  1  0.90103601  0.19769800  0.83446811  1  -1.23694  0  -0.614803  -0.622214  0  3.333189  0
N  N111  1  0.09898592  0.29668580  0.66555642  1  -1.218037  0  -0.614856  -0.622159  0  3.333593  0
N  N112  1  0.36884632  0.56654311  0.20330966  1  -1.217793  0  -0.615057  -0.622352  0  3.333304  0
N  N113  1  0.63674290  0.93341196  0.30229518  1  -1.23545  0  -0.614794  -0.621952  0  3.333786  0
N  N114  1  0.36321757  0.66552168  0.29665726  1  -1.22929  0  -0.615129  -0.622414  0  3.333285  0
N  N115  1  0.63111389  0.83444819  0.19768721  1  -1.255175  0  -0.614979  -0.622451  0  3.334193  0
N  N116  1  0.63112471  0.29666069  0.93342619  1  -1.217005  0  -0.614944  -0.622303  0  3.333359  0
N  N117  1  0.36322388  0.19769855  0.56655401  1  -1.234672  0  -0.614937  -0.622066  0  3.333097  0
N  N118  1  0.63675095  0.20332641  0.83443610  1  -1.229668  0  -0.615039  -0.622424  0  3.334652  0
N  N119  1  0.36886890  0.30230668  0.66554060  1  -1.256662  0  -0.615042  -0.622389  0  3.333865  0
N  N120  1  0.36325017  0.56656643  0.66555370  1  -1.224834  0  -0.615022  -0.622462  0  3.333896  0
N  N121  1  0.63113101  0.93344106  0.83444193  1  -1.251589  0  -0.614832  -0.622165  0  3.333591  0
N  N122  1  0.36888519  0.66555671  0.56656950  1  -1.251033  0  -0.614714  -0.621966  0  3.334039  0
N  N123  1  0.63676743  0.83447409  0.93343733  1  -1.222836  0  -0.615129  -0.622171  0  3.333691  0
N  N124  1  0.36321896  0.29665116  0.19769940  1  -1.245241  0  -0.615015  -0.622357  0  3.333572  0
N  N125  1  0.63110900  0.19768111  0.29665117  1  -1.226675  0  -0.614886  -0.622173  0  3.334018  0
N  N126  1  0.36886105  0.20331487  0.30230757  1  -1.226168  0  -0.615105  -0.622346  0  3.333898  0
N  N127  1  0.63675348  0.30232629  0.20332632  1  -1.246523  0  -0.614898  -0.622445  0  3.333551  0
O  O128  1  0.49998894  0.50000719  0.99997496  1  -1.201543  0  -0.579281  -1.014828  0  2.607038  0
O  O129  1  0.55805264  0.67602283  0.94538755  1  -1.173608  0  -0.317695  -0.554251  0  2.379212  0
O  O130  1  0.26941647  0.38736486  0.82403379  1  -1.194337  0  -0.317893  -0.554413  0  2.379296  0
O  O131  1  0.43666514  0.55460592  0.11263349  1  -1.18882  0  -0.31777  -0.554169  0  2.378936  0
O  O132  1  0.44198956  0.55464570  0.82402765  1  -1.172438  0  -0.318027  -0.554553  0  2.37973  0
O  O133  1  0.56334950  0.67599297  0.11796577  1  -1.168741  0  -0.317729  -0.554112  0  2.379292  0
O  O134  1  0.26940327  0.38204077  0.94540155  1  -1.200639  0  -0.317755  -0.554196  0  2.379013  0
O  O135  1  0.44191265  0.38733729  0.11796607  1  -1.167363  0  -0.317844  -0.554248  0  2.378771  0
O  O136  1  0.73061425  0.55461204  0.11793158  1  -1.199858  0  -0.317655  -0.554022  0  2.378668  0
O  O137  1  0.55803711  0.38205034  0.11265961  1  -1.167466  0  -0.31771  -0.554168  0  2.37867  0
O  O138  1  0.73063534  0.67604924  0.11264747  1  -1.187793  0  -0.317763  -0.554157  0  2.378595  0
O  O139  1  0.43665869  0.38202746  0.82402747  1  -1.168283  0  -0.317857  -0.554344  0  2.379726  0
O  O140  1  0.56331712  0.38732146  0.94539400  1  -1.189142  0  -0.317643  -0.554159  0  2.379083  0
O  O141  1  0.50001000  0.99999762  0.50001568  1  -1.201708  0  -0.579629  -1.014904  0  2.607447  0
O  O142  1  0.44196407  0.82398055  0.38736017  1  -1.179399  0  -0.317696  -0.554053  0  2.379073  0
O  O143  1  0.73062155  0.11265586  0.55461419  1  -1.187995  0  -0.317657  -0.554062  0  2.378637  0
O  O144  1  0.56337563  0.94541223  0.67603092  1  -1.188611  0  -0.317752  -0.554223  0  2.378758  0
O  O145  1  0.55809684  0.94539023  0.38208292  1  -1.164185  0  -0.317699  -0.554091  0  2.379184  0
O  O146  1  0.43664863  0.82398689  0.55459421  1  -1.190485  0  -0.317761  -0.554353  0  2.378737  0
O  O147  1  0.73061415  0.11794795  0.67603916  1  -1.170411  0  -0.317839  -0.554207  0  2.378432  0
O  O148  1  0.55800996  0.11263339  0.67596630  1  -1.180372  0  -0.317816  -0.554259  0  2.379115  0
O  O149  1  0.26937320  0.94542631  0.38733733  1  -1.186253  0  -0.317857  -0.554304  0  2.378465  0
O  O150  1  0.44191943  0.11794745  0.55459188  1  -1.165195  0  -0.317739  -0.554152  0  2.378998  0
O  O151  1  0.26940007  0.82401008  0.38205385  1  -1.17084  0  -0.317572  -0.554118  0  2.378575  0
O  O152  1  0.56331914  0.11793102  0.38734885  1  -1.192443  0  -0.317828  -0.554321  0  2.379068  0
O  O153  1  0.43666007  0.11265312  0.38205811  1  -1.190258  0  -0.317526  -0.55397  0  2.378997  0
