# generated using pymatgen
data_ZnH25C20SN2ClO6
_symmetry_space_group_name_H-M   'P 1'
_cell_length_a   9.69420866
_cell_length_b   11.39526417
_cell_length_c   11.53278905
_cell_angle_alpha   95.89766131
_cell_angle_beta   90.00315592
_cell_angle_gamma   115.19033486
_symmetry_Int_Tables_number   1
_chemical_formula_structural   ZnH25C20SN2ClO6
_chemical_formula_sum   'Zn2 H50 C40 S2 N4 Cl2 O12'
_cell_volume   1145.38582260
_cell_formula_units_Z   2
loop_
 _symmetry_equiv_pos_site_id
 _symmetry_equiv_pos_as_xyz
  1  'x, y, z'
loop_
 _atom_site_type_symbol
 _atom_site_label
 _atom_site_symmetry_multiplicity
 _atom_site_fract_x
 _atom_site_fract_y
 _atom_site_fract_z
 _atom_site_occupancy
 _atom_site_hle17_bader_spin_density
 _atom_site_hle17_ddec_charge
 _atom_site_hle17_ddec_spin_density
 _atom_site_hle17_ddec_sum_bond_order
 _atom_site_hle17_magmom
 _atom_site_hse06_10hf_bader_spin_density
 _atom_site_hse06_10hf_ddec_charge
 _atom_site_hse06_10hf_ddec_spin_density
 _atom_site_hse06_10hf_ddec_sum_bond_order
 _atom_site_hse06_10hf_magmom
 _atom_site_hse06_bader_spin_density
 _atom_site_hse06_ddec_charge
 _atom_site_hse06_ddec_spin_density
 _atom_site_hse06_ddec_sum_bond_order
 _atom_site_hse06_magmom
 _atom_site_pbe_bader_spin_density
 _atom_site_pbe_cm5_charge
 _atom_site_pbe_ddec_charge
 _atom_site_pbe_ddec_spin_density
 _atom_site_pbe_ddec_sum_bond_order
 _atom_site_pbe_magmom
Zn  Zn0  1  0.30454889  0.44160908  0.65026338  1  0  1.043289  0  1.912662  0  0  0.864835  0  2.405515  0  0  0.90753  0  2.349802  0  0  0.643845  0.834447  0  2.444229  0
Zn  Zn1  1  0.86306680  0.55848092  0.34963726  1  0  1.0429  0  1.912281  0  0  0.864875  0  2.404759  0  0  0.907535  0  2.349079  0  0  0.644041  0.834475  0  2.443441  0
H  H2  1  0.31465307  0.00833311  0.65798600  1  0  0.13194  0  0.947824  0  0  0.137692  0  1.010062  0  0  0.142575  0  1.006934  0  0  0.115222  0.135602  0  1.01023  0
H  H3  1  0.30642387  0.99192587  0.34191800  1  0  0.132082  0  0.948917  0  0  0.138496  0  1.010271  0  0  0.143354  0  1.007179  0  0  0.115302  0.136406  0  1.010443  0
H  H4  1  0.40915498  0.24818642  0.65584684  1  0  0.085958  0  0.96418  0  0  0.094097  0  1.028744  0  0  0.097363  0  1.024502  0  0  0.116636  0.091345  0  1.032293  0
H  H5  1  0.16113616  0.75205235  0.34389701  1  0  0.086388  0  0.963395  0  0  0.093955  0  1.028582  0  0  0.097116  0  1.024429  0  0  0.116442  0.091279  0  1.032058  0
H  H6  1  0.98823187  0.33689412  0.63757164  1  0  0.108628  0  0.967397  0  0  0.1186  0  1.029996  0  0  0.121502  0  1.028057  0  0  0.107312  0.116169  0  1.032063  0
H  H7  1  0.65141280  0.66294371  0.36215164  1  0  0.108116  0  0.967284  0  0  0.117958  0  1.030298  0  0  0.120845  0  1.028389  0  0  0.107206  0.115566  0  1.032301  0
H  H8  1  0.70811946  0.20899777  0.63668154  1  0  0.133304  0  0.935658  0  0  0.144728  0  0.990906  0  0  0.148375  0  0.988418  0  0  0.114486  0.141988  0  0.992793  0
H  H9  1  0.49894728  0.79055530  0.36320331  1  0  0.133484  0  0.9356  0  0  0.144831  0  0.99099  0  0  0.148361  0  0.988652  0  0  0.114435  0.142149  0  0.99281  0
H  H10  1  0.76400088  0.85497063  0.65005067  1  0  0.122156  0  0.985121  0  0  0.130388  0  1.053412  0  0  0.133694  0  1.051814  0  0  0.106266  0.127615  0  1.055572  0
H  H11  1  0.90881547  0.14493795  0.35013659  1  0  0.121183  0  0.985568  0  0  0.129738  0  1.053598  0  0  0.132966  0  1.052182  0  0  0.106074  0.127049  0  1.055634  0
H  H12  1  0.52256483  0.77097087  0.58558703  1  0  0.094327  0  0.944133  0  0  0.110638  0  1.010679  0  0  0.110461  0  1.011499  0  0  0.097972  0.110642  0  1.01039  0
H  H13  1  0.75142405  0.22882912  0.41439444  1  0  0.094122  0  0.944347  0  0  0.110339  0  1.010922  0  0  0.110155  0  1.011781  0  0  0.097943  0.110331  0  1.010636  0
H  H14  1  0.37399597  0.79813527  0.65898601  1  0  0.11381  0  0.963159  0  0  0.127678  0  1.029339  0  0  0.128986  0  1.028162  0  0  0.103534  0.126374  0  1.030716  0
H  H15  1  0.57556043  0.20150670  0.34104831  1  0  0.113918  0  0.963282  0  0  0.127488  0  1.029668  0  0  0.128781  0  1.028513  0  0  0.103667  0.126182  0  1.031038  0
H  H16  1  0.53660789  0.80760766  0.74123845  1  0  0.075712  0  0.954093  0  0  0.089772  0  1.02568  0  0  0.089949  0  1.025352  0  0  0.086135  0.089688  0  1.026049  0
H  H17  1  0.72867716  0.19204862  0.25875958  1  0  0.075538  0  0.954259  0  0  0.089443  0  1.026025  0  0  0.089657  0  1.025651  0  0  0.0862  0.089338  0  1.026413  0
H  H18  1  0.92232307  0.77687888  0.59878415  1  0  0.060303  0  0.951443  0  0  0.069169  0  1.018238  0  0  0.070169  0  1.017498  0  0  0.112372  0.068355  0  1.019022  0
H  H19  1  0.14559490  0.22329557  0.40133856  1  0  0.060748  0  0.950565  0  0  0.069182  0  1.017197  0  0  0.070179  0  1.016325  0  0  0.112297  0.068342  0  1.018031  0
H  H20  1  0.09466014  0.71077150  0.57046817  1  0  0.370282  0  0.917625  0  0  0.344662  0  0.992617  0  0  0.354221  0  0.981719  0  0  0.296218  0.338028  0  1.000072  0
H  H21  1  0.38410328  0.28942419  0.42958656  1  0  0.370252  0  0.917888  0  0  0.34451  0  0.993302  0  0  0.35407  0  0.982371  0  0  0.296075  0.337857  0  1.000794  0
H  H22  1  0.88406491  0.83241282  0.80606598  1  0  0.062509  0  0.931187  0  0  0.074335  0  0.993421  0  0  0.074525  0  0.994415  0  0  0.115972  0.073764  0  0.993283  0
H  H23  1  0.05166758  0.16756494  0.19406595  1  0  0.06229  0  0.930321  0  0  0.074452  0  0.992592  0  0  0.075076  0  0.993365  0  0  0.116013  0.073873  0  0.992449  0
H  H24  1  0.20119389  0.84951345  0.84379833  1  0  0.098802  0  0.920193  0  0  0.118587  0  0.972264  0  0  0.119994  0  0.972339  0  0  0.102523  0.117471  0  0.972392  0
H  H25  1  0.35165772  0.15046079  0.15635292  1  0  0.099002  0  0.920365  0  0  0.118439  0  0.973064  0  0  0.119795  0  0.973096  0  0  0.102394  0.117326  0  0.973182  0
H  H26  1  0.10647581  0.93346517  0.92287629  1  0  0.07679  0  0.961763  0  0  0.090779  0  1.031514  0  0  0.091898  0  1.031766  0  0  0.091539  0.089966  0  1.031509  0
H  H27  1  0.17295402  0.06654665  0.07724374  1  0  0.076434  0  0.961947  0  0  0.090828  0  1.031396  0  0  0.091868  0  1.031621  0  0  0.091511  0.090007  0  1.031404  0
H  H28  1  0.11783745  0.77436952  0.04817140  1  0  0.058969  0  0.910883  0  0  0.075503  0  0.961963  0  0  0.075893  0  0.963018  0  0  0.099365  0.075115  0  0.961205  0
H  H29  1  0.34358504  0.22555047  0.95193757  1  0  0.058751  0  0.910094  0  0  0.075575  0  0.960479  0  0  0.075924  0  0.961567  0  0  0.099402  0.075194  0  0.959737  0
H  H30  1  0.85118510  0.62796017  0.06390972  1  0  0.071464  0  0.961819  0  0  0.08288  0  1.026127  0  0  0.083445  0  1.026623  0  0  0.089736  0.082228  0  1.026069  0
H  H31  1  0.22342716  0.37193499  0.93607580  1  0  0.071926  0  0.961591  0  0  0.082957  0  1.02613  0  0  0.083548  0  1.026609  0  0  0.089868  0.082373  0  1.025984  0
H  H32  1  0.72143633  0.51640961  0.89060638  1  0  0.090085  0  0.902273  0  0  0.106004  0  0.958394  0  0  0.106966  0  0.958224  0  0  0.117178  0.105245  0  0.958475  0
H  H33  1  0.20521481  0.48354414  0.10932609  1  0  0.090832  0  0.901882  0  0  0.106545  0  0.958452  0  0  0.107525  0  0.958272  0  0  0.117575  0.105771  0  0.958555  0
H  H34  1  0.68485510  0.65182420  0.86914057  1  0  0.084292  0  0.97326  0  0  0.094758  0  1.042565  0  0  0.096327  0  1.041605  0  0  0.10037  0.093595  0  1.043389  0
H  H35  1  0.03310208  0.34812279  0.13074299  1  0  0.084524  0  0.97297  0  0  0.095244  0  1.042186  0  0  0.096746  0  1.041335  0  0  0.100494  0.094121  0  1.042941  0
H  H36  1  0.80146904  0.61316372  0.70798035  1  0  0.2764  0  0.91818  0  0  0.258316  0  0.980637  0  0  0.265555  0  0.975772  0  0  0.312716  0.253224  0  0.984039  0
H  H37  1  0.18833988  0.38687142  0.29199386  1  0  0.275995  0  0.918244  0  0  0.258025  0  0.980644  0  0  0.265257  0  0.975748  0  0  0.312946  0.252926  0  0.984065  0
H  H38  1  0.89155671  0.46874610  0.77587753  1  0  0.083901  0  0.915854  0  0  0.100992  0  0.972099  0  0  0.101656  0  0.972324  0  0  0.113699  0.100281  0  0.972467  0
H  H39  1  0.42301082  0.53128239  0.22420678  1  0  0.084076  0  0.915743  0  0  0.100769  0  0.972548  0  0  0.101422  0  0.97283  0  0  0.11356  0.100045  0  0.972912  0
H  H40  1  0.04755103  0.59539536  0.71788428  1  0  0.096875  0  0.96083  0  0  0.106443  0  1.026412  0  0  0.108411  0  1.025065  0  0  0.111907  0.104657  0  1.028105  0
H  H41  1  0.45225713  0.40457593  0.28213450  1  0  0.096811  0  0.96062  0  0  0.106486  0  1.026098  0  0  0.108489  0  1.024792  0  0  0.111799  0.104666  0  1.027776  0
H  H42  1  0.17726340  0.63266632  0.89778801  1  0  0.088572  0  0.952579  0  0  0.10136  0  1.017383  0  0  0.102824  0  1.017078  0  0  0.086417  0.100211  0  1.017806  0
H  H43  1  0.54484144  0.36761031  0.10222764  1  0  0.088518  0  0.953858  0  0  0.101413  0  1.018533  0  0  0.102926  0  1.018195  0  0  0.086278  0.100241  0  1.018962  0
H  H44  1  0.00991798  0.53462080  0.96641022  1  0  0.082862  0  0.943672  0  0  0.098464  0  1.00404  0  0  0.099485  0  1.004615  0  0  0.088452  0.097613  0  1.003815  0
H  H45  1  0.47522947  0.46541568  0.03358443  1  0  0.082697  0  0.943095  0  0  0.098407  0  1.003488  0  0  0.09943  0  1.004065  0  0  0.088296  0.097555  0  1.003255  0
H  H46  1  0.93903198  0.87521085  0.11781666  1  0  0.067492  0  0.971836  0  0  0.079205  0  1.037285  0  0  0.080161  0  1.039167  0  0  0.090448  0.078447  0  1.036264  0
H  H47  1  0.06390469  0.12459805  0.88233974  1  0  0.06733  0  0.972288  0  0  0.079236  0  1.037572  0  0  0.080194  0  1.039448  0  0  0.090594  0.078481  0  1.036549  0
H  H48  1  0.63640472  0.77890207  0.97183633  1  0  0.118665  0  0.988752  0  0  0.130849  0  1.051246  0  0  0.134055  0  1.049426  0  0  0.084368  0.128424  0  1.052744  0
H  H49  1  0.85759869  0.22115299  0.02799471  1  0  0.118615  0  0.989342  0  0  0.130974  0  1.051624  0  0  0.134185  0  1.049794  0  0  0.084326  0.12855  0  1.053121  0
H  H50  1  0.72513861  0.92268729  0.08312720  1  0  0.122621  0  0.973394  0  0  0.137218  0  1.029945  0  0  0.139834  0  1.02983  0  0  0.08992  0.135336  0  1.030069  0
H  H51  1  0.80249885  0.07727610  0.91677778  1  0  0.122374  0  0.973485  0  0  0.137295  0  1.029733  0  0  0.139921  0  1.029603  0  0  0.089687  0.135406  0  1.029857  0
C  C52  1  0.07834380  0.97308205  0.65835806  1  0  0.051653  0  3.653492  0  0  0.058117  0  3.895353  0  0  0.062299  0  3.91536  0  0  0.009684  0.05482  0  3.88293  0
C  C53  1  0.10530997  0.02706525  0.34175602  1  0  0.055366  0  3.649644  0  0  0.059782  0  3.89324  0  0  0.063948  0  3.913129  0  0  0.009996  0.056452  0  3.880831  0
C  C54  1  0.23339084  0.05108089  0.65882757  1  0  -0.150007  0  3.704948  0  0  -0.172095  0  3.962886  0  0  -0.178906  0  3.980006  0  0  -0.086519  -0.168946  0  3.95141  0
C  C55  1  0.18239705  0.94911728  0.34112102  1  0  -0.151645  0  3.704526  0  0  -0.173799  0  3.962857  0  0  -0.180643  0  3.980002  0  0  -0.086648  -0.170648  0  3.951415  0
C  C56  1  0.28696840  0.18587718  0.65639162  1  0  0.142122  0  3.709172  0  0  0.104601  0  3.968554  0  0  0.11541  0  3.982174  0  0  0.045994  0.098277  0  3.959266  0
C  C57  1  0.10120614  0.81429635  0.34342812  1  0  0.141099  0  3.710402  0  0  0.104032  0  3.970086  0  0  0.114936  0  3.983709  0  0  0.04552  0.097642  0  3.960779  0
C  C58  1  0.03877837  0.17083491  0.65015962  1  0  0.192845  0  3.774734  0  0  0.186191  0  4.017037  0  0  0.191243  0  4.040488  0  0  0.104697  0.183617  0  4.000321  0
C  C59  1  0.86799688  0.82919702  0.34980019  1  0  0.190654  0  3.776533  0  0  0.184922  0  4.017786  0  0  0.189962  0  4.041266  0  0  0.104352  0.18234  0  4.001052  0
C  C60  1  0.93945217  0.23228395  0.64362685  1  0  -0.12754  0  3.738799  0  0  -0.147846  0  3.994383  0  0  -0.150614  0  4.014575  0  0  -0.086971  -0.145915  0  3.98049  0
C  C61  1  0.70718202  0.76758436  0.35625833  1  0  -0.125294  0  3.738523  0  0  -0.145826  0  3.993997  0  0  -0.148581  0  4.014154  0  0  -0.08685  -0.143929  0  3.980109  0
C  C62  1  0.78418652  0.16145164  0.64292010  1  0  -0.133799  0  3.697804  0  0  -0.159083  0  3.951761  0  0  -0.161751  0  3.968858  0  0  -0.082513  -0.156022  0  3.939164  0
C  C63  1  0.62259612  0.83826800  0.35707113  1  0  -0.135163  0  3.697648  0  0  -0.160159  0  3.951856  0  0  -0.162761  0  3.968992  0  0  -0.082811  -0.157125  0  3.939214  0
C  C64  1  0.72043520  0.02438719  0.64800213  1  0  0.284264  0  3.83045  0  0  0.275734  0  4.088989  0  0  0.287732  0  4.105324  0  0  0.090872  0.266878  0  4.078276  0
C  C65  1  0.69582780  0.97538080  0.35210257  1  0  0.284608  0  3.829218  0  0  0.275688  0  4.088655  0  0  0.2877  0  4.104957  0  0  0.090894  0.266836  0  4.077961  0
C  C66  1  0.81429856  0.96061677  0.65214891  1  0  -0.267337  0  3.733616  0  0  -0.297175  0  3.990367  0  0  -0.305182  0  4.013137  0  0  -0.116107  -0.292428  0  3.977225  0
C  C67  1  0.85350722  0.03929110  0.34804596  1  0  -0.266729  0  3.731504  0  0  -0.296597  0  3.98852  0  0  -0.304616  0  4.01132  0  0  -0.116501  -0.291906  0  3.97532  0
C  C68  1  0.97514057  0.03225238  0.65405794  1  0  0.00164  0  3.775251  0  0  0.014029  0  4.008172  0  0  0.011855  0  4.033036  0  0  -0.004374  0.015001  0  3.992086  0
C  C69  1  0.94288034  0.96780764  0.34605142  1  0  0.001431  0  3.773543  0  0  0.013863  0  4.006992  0  0  0.011685  0  4.031858  0  0  -0.004225  0.014867  0  3.990888  0
C  C70  1  0.49669940  0.82656465  0.65900807  1  0  -0.086375  0  3.609524  0  0  -0.182902  0  3.873323  0  0  -0.175736  0  3.877512  0  0  -0.149806  -0.187662  0  3.870335  0
C  C71  1  0.66986732  0.17313987  0.34102199  1  0  -0.086073  0  3.608435  0  0  -0.181807  0  3.87212  0  0  -0.174674  0  3.87631  0  0  -0.150136  -0.186569  0  3.869227  0
C  C72  1  0.02160804  0.82731223  0.66083323  1  0  0.15563  0  3.641135  0  0  0.123499  0  3.895337  0  0  0.128412  0  3.904233  0  0  0.001783  0.119739  0  3.88969  0
C  C73  1  0.19439648  0.17283196  0.33930210  1  0  0.151777  0  3.644132  0  0  0.12271  0  3.895055  0  0  0.128124  0  3.903517  0  0  0.001751  0.118943  0  3.889406  0
C  C74  1  0.96629504  0.79173779  0.78372432  1  0  0.07736  0  3.456649  0  0  0.057028  0  3.689661  0  0  0.0607  0  3.703369  0  0  0.011548  0.055218  0  3.680599  0
C  C75  1  0.17461286  0.20830664  0.21638181  1  0  0.078321  0  3.455768  0  0  0.056633  0  3.689679  0  0  0.05925  0  3.703323  0  0  0.012025  0.054927  0  3.68043  0
C  C76  1  0.09215038  0.83792611  0.88071934  1  0  -0.186192  0  3.63057  0  0  -0.235884  0  3.884521  0  0  -0.23787  0  3.89694  0  0  -0.162755  -0.234623  0  3.876086  0
C  C77  1  0.25424359  0.16208659  0.11940061  1  0  -0.186504  0  3.630342  0  0  -0.236852  0  3.885231  0  0  -0.238278  0  3.897348  0  0  -0.163187  -0.235602  0  3.876784  0
C  C78  1  0.04460051  0.73559838  0.96778514  1  0  0.01217  0  3.60331  0  0  0.006101  0  3.850566  0  0  0.005729  0  3.866707  0  0  -0.082904  0.006507  0  3.839406  0
C  C79  1  0.30912661  0.26438116  0.03228569  1  0  0.012628  0  3.601642  0  0  0.007679  0  3.84715  0  0  0.007268  0  3.863242  0  0  -0.08278  0.008053  0  3.836033  0
C  C80  1  0.87617986  0.69692617  0.99788742  1  0  -0.046603  0  3.650941  0  0  -0.049795  0  3.879161  0  0  -0.05133  0  3.896621  0  0  -0.090167  -0.048831  0  3.867521  0
C  C81  1  0.17943439  0.30301214  0.00212281  1  0  -0.047168  0  3.650588  0  0  -0.050242  0  3.878747  0  0  -0.051735  0  3.896049  0  0  -0.090312  -0.049348  0  3.867224  0
C  C82  1  0.77554625  0.62229671  0.88744313  1  0  -0.021304  0  3.495422  0  0  -0.08234  0  3.743204  0  0  -0.078991  0  3.753234  0  0  -0.058588  -0.08417  0  3.736175  0
C  C83  1  0.15334569  0.37765348  0.11249857  1  0  -0.021877  0  3.4942  0  0  -0.083546  0  3.742769  0  0  -0.080236  0  3.752904  0  0  -0.058811  -0.085419  0  3.735769  0
C  C84  1  0.97078957  0.57249063  0.78995313  1  0  0.007583  0  3.48104  0  0  -0.05064  0  3.734129  0  0  -0.046961  0  3.743686  0  0  -0.063039  -0.053291  0  3.728825  0
C  C85  1  0.39842287  0.42754180  0.21009643  1  0  0.007468  0  3.480659  0  0  -0.05064  0  3.733969  0  0  -0.047127  0  3.743701  0  0  -0.062858  -0.053233  0  3.728607  0
C  C86  1  0.05748880  0.61326403  0.91000498  1  0  -0.164932  0  3.6261  0  0  -0.206589  0  3.880098  0  0  -0.208234  0  3.892829  0  0  -0.166023  -0.20532  0  3.87154  0
C  C87  1  0.44434665  0.38682956  0.09002875  1  0  -0.165092  0  3.625818  0  0  -0.207172  0  3.879564  0  0  -0.208878  0  3.892369  0  0  -0.165845  -0.205884  0  3.870989  0
C  C88  1  0.85028524  0.81108950  0.05218551  1  0  -0.030402  0  3.766663  0  0  -0.040709  0  4.022905  0  0  -0.042006  0  4.047465  0  0  -0.099068  -0.039834  0  4.006384  0
C  C89  1  0.03931885  0.18882879  0.94785352  1  0  -0.029651  0  3.764214  0  0  -0.040158  0  4.020595  0  0  -0.041477  0  4.045216  0  0  -0.098884  -0.03929  0  4.0041  0
C  C90  1  0.73166449  0.83850600  0.03390153  1  0  -0.2948  0  3.669571  0  0  -0.33442  0  3.903989  0  0  -0.339519  0  3.920881  0  0  -0.194174  -0.330773  0  3.892611  0
C  C91  1  0.89324648  0.16148414  0.96601448  1  0  -0.295119  0  3.669123  0  0  -0.335243  0  3.903469  0  0  -0.34037  0  3.920372  0  0  -0.194229  -0.331579  0  3.892087  0
S  S92  1  0.61855904  0.47788434  0.54231157  1  0  1.560418  0  5.812965  0  0  1.437968  0  6.350736  0  0  1.493271  0  6.316344  0  0  0.566834  1.399227  0  6.373528  0
S  S93  1  0.14078097  0.52237898  0.45758309  1  0  1.559697  0  5.813026  0  0  1.437344  0  6.350861  0  0  1.49268  0  6.316501  0  0  0.566523  1.398607  0  6.373623  0
N  N94  1  0.19357023  0.24432503  0.65204148  1  0  -0.390844  0  3.311235  0  0  -0.311182  0  3.597484  0  0  -0.331215  0  3.611446  0  0  -0.33652  -0.29781  0  3.586857  0
N  N95  1  0.94933283  0.75576717  0.34778683  1  0  -0.38909  0  3.311082  0  0  -0.309755  0  3.596741  0  0  -0.32976  0  3.610646  0  0  -0.335518  -0.296395  0  3.58614  0
N  N96  1  0.87376993  0.64561144  0.78380171  1  0  -0.13151  0  3.319518  0  0  -0.048895  0  3.525698  0  0  -0.062161  0  3.54345  0  0  -0.34985  -0.040009  0  3.513702  0
N  N97  1  0.22821567  0.35440188  0.21620674  1  0  -0.130932  0  3.318682  0  0  -0.047657  0  3.524618  0  0  -0.060482  0  3.542222  0  0  -0.350305  -0.03883  0  3.512604  0
Cl  Cl98  1  0.39496729  0.55168212  0.82390695  1  0  -0.575448  0  0.938226  0  0  -0.509505  0  1.209119  0  0  -0.525606  0  1.183509  0  0  -0.282884  -0.497169  0  1.226573  0
Cl  Cl99  1  0.84327541  0.44818986  0.17611388  1  0  -0.575523  0  0.938044  0  0  -0.509643  0  1.208868  0  0  -0.525778  0  1.183313  0  0  -0.282979  -0.497278  0  1.226311  0
O  O100  1  0.56620479  0.96441348  0.64752353  1  0  -0.246638  0  2.322146  0  0  -0.170126  0  2.554201  0  0  -0.189444  0  2.556756  0  0  -0.182371  -0.155873  0  2.549708  0
O  O101  1  0.60154318  0.03529130  0.35258202  1  0  -0.246504  0  2.320768  0  0  -0.170231  0  2.553052  0  0  -0.189561  0  2.555621  0  0  -0.181703  -0.156001  0  2.548574  0
O  O102  1  0.13860813  0.78868112  0.62920152  1  0  -0.552677  0  2.086451  0  0  -0.509083  0  2.315227  0  0  -0.524599  0  2.305934  0  0  -0.397116  -0.49772  0  2.321531  0
O  O103  1  0.35009002  0.21145461  0.37092372  1  0  -0.551722  0  2.087494  0  0  -0.508827  0  2.315316  0  0  -0.524392  0  2.305851  0  0  -0.397034  -0.497449  0  2.321619  0
O  O104  1  0.44600253  0.43134845  0.52640845  1  0  -0.755505  0  2.073597  0  0  -0.673954  0  2.360256  0  0  -0.698617  0  2.337617  0  0  -0.36165  -0.656112  0  2.375368  0
O  O105  1  0.01478216  0.56890507  0.47358404  1  0  -0.755353  0  2.073242  0  0  -0.674004  0  2.3599  0  0  -0.698632  0  2.337202  0  0  -0.361836  -0.656192  0  2.375045  0
O  O106  1  0.65304846  0.39385900  0.61364037  1  0  -0.696116  0  1.873717  0  0  -0.651993  0  2.11108  0  0  -0.671956  0  2.094768  0  0  -0.357567  -0.638051  0  2.122661  0
O  O107  1  0.25933221  0.60645962  0.38627904  1  0  -0.696092  0  1.87291  0  0  -0.651709  0  2.110028  0  0  -0.671661  0  2.093711  0  0  -0.357231  -0.637771  0  2.121603  0
O  O108  1  0.66486206  0.46598202  0.41834570  1  0  -0.735554  0  2.073594  0  0  -0.654765  0  2.368034  0  0  -0.679182  0  2.345061  0  0  -0.361635  -0.636999  0  2.384198  0
O  O109  1  0.19907429  0.53418412  0.58151042  1  0  -0.736065  0  2.075169  0  0  -0.654477  0  2.36874  0  0  -0.679046  0  2.345954  0  0  -0.361505  -0.636766  0  2.384973  0
O  O110  1  0.68874830  0.61588158  0.59397332  1  0  -0.711766  0  1.959161  0  0  -0.661995  0  2.212622  0  0  -0.682417  0  2.197263  0  0  -0.353388  -0.647276  0  2.222754  0
O  O111  1  0.07285389  0.38440445  0.40586992  1  0  -0.710703  0  1.958864  0  0  -0.662013  0  2.213633  0  0  -0.682403  0  2.198134  0  0  -0.353325  -0.647241  0  2.223723  0
