# generated using pymatgen
data_ZnH14C20(NO4)2
_symmetry_space_group_name_H-M   'P 1'
_cell_length_a   8.23010980
_cell_length_b   8.23010006
_cell_length_c   14.62294458
_cell_angle_alpha   86.71294788
_cell_angle_beta   86.71308025
_cell_angle_gamma   73.37706463
_symmetry_Int_Tables_number   1
_chemical_formula_structural   ZnH14C20(NO4)2
_chemical_formula_sum   'Zn2 H28 C40 N4 O16'
_cell_volume   946.65646855
_cell_formula_units_Z   2
loop_
 _symmetry_equiv_pos_site_id
 _symmetry_equiv_pos_as_xyz
  1  'x, y, z'
loop_
 _atom_site_type_symbol
 _atom_site_label
 _atom_site_symmetry_multiplicity
 _atom_site_fract_x
 _atom_site_fract_y
 _atom_site_fract_z
 _atom_site_occupancy
 _atom_site_hle17_bader_spin_density
 _atom_site_hle17_ddec_charge
 _atom_site_hle17_ddec_spin_density
 _atom_site_hle17_ddec_sum_bond_order
 _atom_site_hle17_magmom
 _atom_site_hse06_10hf_bader_charge
 _atom_site_hse06_10hf_bader_spin_density
 _atom_site_hse06_10hf_ddec_charge
 _atom_site_hse06_10hf_ddec_spin_density
 _atom_site_hse06_10hf_ddec_sum_bond_order
 _atom_site_hse06_10hf_magmom
 _atom_site_hse06_bader_spin_density
 _atom_site_hse06_ddec_charge
 _atom_site_hse06_ddec_spin_density
 _atom_site_hse06_ddec_sum_bond_order
 _atom_site_hse06_magmom
 _atom_site_pbe_bader_spin_density
 _atom_site_pbe_cm5_charge
 _atom_site_pbe_ddec_charge
 _atom_site_pbe_ddec_spin_density
 _atom_site_pbe_ddec_sum_bond_order
 _atom_site_pbe_magmom
Zn  Zn0  1  0.74920806  0.25079450  0.74999994  1  0  1.002511  0  1.8435  0  1.28682  0  0.80448  0  2.317984  0  0  0.853307  0  2.263654  0  0  0.70928  0.770575  0  2.355294  0
Zn  Zn1  1  0.25079336  0.74920343  0.24999965  1  0  1.002551  0  1.84353  0  1.286827  0  0.804492  0  2.318007  0  0  0.853322  0  2.263679  0  0  0.709301  0.770588  0  2.355319  0
H  H2  1  0.02556291  0.42349931  0.66026960  1  0  0.095658  0  0.948497  0  0.160133  0  0.099617  0  1.018311  0  0  0.102977  0  1.014803  0  0  0.120485  0.097129  0  1.020904  0
H  H3  1  0.57650418  0.97443711  0.83972977  1  0  0.095652  0  0.948602  0  0.133292  0  0.099617  0  1.018392  0  0  0.102977  0  1.014885  0  0  0.1205  0.097128  0  1.020989  0
H  H4  1  0.97443741  0.57650245  0.33973125  1  0  0.095626  0  0.948591  0  0.13325  0  0.099594  0  1.018381  0  0  0.102953  0  1.014878  0  0  0.120487  0.0971  0  1.020977  0
H  H5  1  0.42350002  0.02555956  0.16026840  1  0  0.095641  0  0.948626  0  0.133218  0  0.099607  0  1.018407  0  0  0.102964  0  1.014905  0  0  0.120494  0.097117  0  1.021001  0
H  H6  1  0.33947346  0.31335345  0.62789395  1  0  0.111809  0  0.97512  0  0.136828  0  0.119956  0  1.03655  0  0  0.122794  0  1.036592  0  0  0.108905  0.117905  0  1.036731  0
H  H7  1  0.68664795  0.66052540  0.87210581  1  0  0.111825  0  0.975082  0  0.136829  0  0.119978  0  1.036522  0  0  0.122817  0  1.036562  0  0  0.108917  0.117928  0  1.0367  0
H  H8  1  0.66052638  0.68664576  0.37210634  1  0  0.111827  0  0.975066  0  0.136833  0  0.119943  0  1.036543  0  0  0.122781  0  1.036586  0  0  0.108903  0.117893  0  1.036725  0
H  H9  1  0.31335503  0.33947126  0.12789240  1  0  0.111831  0  0.975074  0  0.136847  0  0.119946  0  1.036545  0  0  0.122785  0  1.036585  0  0  0.108895  0.117895  0  1.036726  0
H  H10  1  0.48539664  0.00681188  0.65788577  1  0  0.112924  0  0.938769  0  0.138929  0  0.122823  0  0.999656  0  0  0.126349  0  0.996574  0  0  0.112818  0.120194  0  1.002031  0
H  H11  1  0.99318984  0.51460256  0.84211425  1  0  0.112931  0  0.938802  0  0.138917  0  0.122828  0  0.999684  0  0  0.126354  0  0.996603  0  0  0.112814  0.120201  0  1.002058  0
H  H12  1  0.51460563  0.99318735  0.34211442  1  0  0.112932  0  0.93881  0  0.138915  0  0.122845  0  0.999675  0  0  0.126372  0  0.996592  0  0  0.112811  0.120219  0  1.00205  0
H  H13  1  0.00681399  0.48539539  0.15788457  1  0  0.112885  0  0.938715  0  0.13892  0  0.122797  0  0.999598  0  0  0.126324  0  0.996514  0  0  0.112779  0.12017  0  1.001972  0
H  H14  1  0.46227712  0.71673079  0.71846512  1  0  0.102903  0  0.96708  0  0.070501  0  0.113759  0  1.026463  0  0  0.116029  0  1.026873  0  0  0.104748  0.112066  0  1.026327  0
H  H15  1  0.28327019  0.53772194  0.78153447  1  0  0.102915  0  0.967126  0  0.070485  0  0.113773  0  1.026498  0  0  0.116043  0  1.026907  0  0  0.104753  0.112081  0  1.026364  0
H  H16  1  0.53772564  0.28327099  0.28153564  1  0  0.102903  0  0.967095  0  0.07052  0  0.113761  0  1.026475  0  0  0.116029  0  1.026886  0  0  0.104767  0.112068  0  1.026339  0
H  H17  1  0.71673452  0.46227732  0.21846700  1  0  0.102943  0  0.967107  0  0.070511  0  0.1138  0  1.02648  0  0  0.116069  0  1.026891  0  0  0.104766  0.112109  0  1.026351  0
H  H18  1  0.32512543  0.47038344  0.99027284  1  0  0.124336  0  0.93694  0  0.106405  0  0.134028  0  0.993635  0  0  0.137788  0  0.991851  0  0  0.116829  0.131375  0  0.995  0
H  H19  1  0.52961552  0.67487714  0.50972744  1  0  0.124338  0  0.936926  0  0.106392  0  0.13403  0  0.993626  0  0  0.13779  0  0.991841  0  0  0.116817  0.131379  0  0.994991  0
H  H20  1  0.67487477  0.52961448  0.00972679  1  0  0.124336  0  0.936993  0  0.106382  0  0.134039  0  0.993679  0  0  0.137799  0  0.991895  0  0  0.116831  0.131383  0  0.995047  0
H  H21  1  0.47038602  0.32512463  0.49027337  1  0  0.124342  0  0.93698  0  0.106384  0  0.134038  0  0.99367  0  0  0.137798  0  0.991886  0  0  0.116835  0.131388  0  0.995032  0
H  H22  1  0.29296900  0.24967975  0.89209441  1  0  0.397904  0  0.898985  0  0.667831  0  0.366041  0  0.979837  0  0  0.37887  0  0.962521  0  0  0.296702  0.357034  0  0.989305  0
H  H23  1  0.75032061  0.70703253  0.60790529  1  0  0.397978  0  0.898787  0  0.667835  0  0.366056  0  0.979738  0  0  0.378884  0  0.96248  0  0  0.296699  0.357048  0  0.989206  0
H  H24  1  0.70703085  0.75031946  0.10790656  1  0  0.397909  0  0.89906  0  0.667835  0  0.366053  0  0.979889  0  0  0.378881  0  0.962518  0  0  0.296718  0.357045  0  0.989354  0
H  H25  1  0.24968054  0.29297050  0.39209412  1  0  0.397906  0  0.899054  0  0.667834  0  0.366051  0  0.979884  0  0  0.37888  0  0.962518  0  0  0.296718  0.357043  0  0.98935  0
H  H26  1  0.90399967  0.18659318  0.97551780  1  0  0.130813  0  0.938737  0  0.124948  0  0.135494  0  1.003459  0  0  0.140212  0  1.000551  0  0  0.110346  0.132114  0  1.005636  0
H  H27  1  0.81340725  0.09600039  0.52448239  1  0  0.130805  0  0.938759  0  0.124944  0  0.135486  0  1.003481  0  0  0.140204  0  1.000573  0  0  0.110347  0.132107  0  1.005659  0
H  H28  1  0.09599422  0.81340981  0.02448325  1  0  0.130744  0  0.938747  0  0.125019  0  0.13541  0  1.003477  0  0  0.140128  0  1.000567  0  0  0.110311  0.132031  0  1.005647  0
H  H29  1  0.18658877  0.90400767  0.47551634  1  0  0.13075  0  0.93877  0  0.12503  0  0.135421  0  1.003497  0  0  0.140139  0  1.000588  0  0  0.110322  0.132041  0  1.005669  0
C  C30  1  0.09353803  0.29101704  0.67575317  1  0  0.158949  0  3.656588  0  0.504028  0  0.123686  0  3.912796  0  0  0.132839  0  3.927996  0  0  0.064506  0.117798  0  3.902349  0
C  C31  1  0.70898535  0.90646294  0.82424770  1  0  0.158974  0  3.656678  0  0.53095  0  0.123733  0  3.912886  0  0  0.132886  0  3.928087  0  0  0.064522  0.117847  0  3.902436  0
C  C32  1  0.90646143  0.70898342  0.32424640  1  0  0.158957  0  3.656606  0  0.530763  0  0.123702  0  3.912798  0  0  0.132853  0  3.928  0  0  0.064509  0.117824  0  3.902342  0
C  C33  1  0.29101851  0.09353503  0.17575316  1  0  0.158979  0  3.656693  0  0.530831  0  0.123734  0  3.912868  0  0  0.132887  0  3.928071  0  0  0.064496  0.117847  0  3.902421  0
C  C34  1  0.26843768  0.22777967  0.65592382  1  0  -0.097193  0  3.694882  0  -0.007237  0  -0.111497  0  3.948783  0  0  -0.117991  0  3.968438  0  0  -0.076409  -0.107381  0  3.935552  0
C  C35  1  0.77222364  0.73156118  0.84407588  1  0  -0.097159  0  3.694861  0  -0.007431  0  -0.111508  0  3.948795  0  0  -0.118001  0  3.968449  0  0  -0.076396  -0.107388  0  3.93556  0
C  C36  1  0.73155898  0.77222203  0.34407512  1  0  -0.097152  0  3.694885  0  -0.007478  0  -0.11145  0  3.948812  0  0  -0.117944  0  3.96847  0  0  -0.076375  -0.107336  0  3.935585  0
C  C37  1  0.22778055  0.26843548  0.15592229  1  0  -0.097181  0  3.694883  0  -0.007358  0  -0.11147  0  3.948799  0  0  -0.117965  0  3.968456  0  0  -0.076366  -0.107353  0  3.935568  0
C  C38  1  0.34952387  0.05779209  0.67367524  1  0  -0.027583  0  3.62753  0  -0.090759  0  -0.051007  0  3.87237  0  0  -0.047705  0  3.887827  0  0  -0.051543  -0.052943  0  3.861863  0
C  C39  1  0.94220784  0.65047504  0.82632406  1  0  -0.027621  0  3.627567  0  -0.09055  0  -0.050995  0  3.87244  0  0  -0.047695  0  3.887897  0  0  -0.051548  -0.05294  0  3.861934  0
C  C40  1  0.65047474  0.94220709  0.32632373  1  0  -0.027631  0  3.627652  0  -0.090755  0  -0.05105  0  3.872499  0  0  -0.047749  0  3.887957  0  0  -0.051577  -0.052985  0  3.861982  0
C  C41  1  0.05779479  0.34952291  0.17367617  1  0  -0.027516  0  3.627494  0  -0.090611  0  -0.050942  0  3.872346  0  0  -0.047642  0  3.887805  0  0  -0.051518  -0.052874  0  3.861828  0
C  C42  1  0.25504110  0.94963204  0.71187720  1  0  0.034926  0  3.785696  0  -0.000703  0  0.050074  0  4.016465  0  0  0.047513  0  4.041436  0  0  0.004581  0.051618  0  3.99961  0
C  C43  1  0.05036957  0.74495908  0.78812273  1  0  0.035001  0  3.785632  0  -0.00066  0  0.050036  0  4.016511  0  0  0.047475  0  4.041482  0  0  0.004584  0.051589  0  3.999652  0
C  C44  1  0.74495628  0.05036711  0.28812044  1  0  0.034897  0  3.785802  0  -0.000435  0  0.049995  0  4.016643  0  0  0.047434  0  4.041616  0  0  0.004592  0.051546  0  3.999785  0
C  C45  1  0.94963270  0.25504016  0.21187815  1  0  0.03491  0  3.78577  0  -0.000769  0  0.049997  0  4.016599  0  0  0.047436  0  4.041571  0  0  0.004585  0.051541  0  3.999749  0
C  C46  1  0.32659745  0.77197916  0.73214999  1  0  -0.084982  0  3.706101  0  0.05679  0  -0.105902  0  3.955412  0  0  -0.109505  0  3.979118  0  0  -0.078247  -0.103356  0  3.93934  0
C  C47  1  0.22802200  0.67340046  0.76784883  1  0  -0.085065  0  3.706163  0  -0.005795  0  -0.105959  0  3.955516  0  0  -0.109562  0  3.979224  0  0  -0.078255  -0.103414  0  3.939442  0
C  C48  1  0.67340359  0.22802005  0.26784957  1  0  -0.084932  0  3.706093  0  0.056664  0  -0.105839  0  3.955421  0  0  -0.109442  0  3.979131  0  0  -0.078251  -0.103295  0  3.93935  0
C  C49  1  0.77198149  0.32659878  0.23215200  1  0  -0.0851  0  3.706127  0  -0.005727  0  -0.106008  0  3.955467  0  0  -0.109613  0  3.97918  0  0  -0.078267  -0.103464  0  3.939403  0
C  C50  1  0.07940661  0.02400843  0.73063674  1  0  0.122089  0  3.76977  0  0.531876  0  0.116534  0  4.000752  0  0  0.11986  0  4.024945  0  0  0.115296  0.114314  0  3.984458  0
C  C51  1  0.97599256  0.92059497  0.76936432  1  0  0.122075  0  3.769896  0  0.491765  0  0.11662  0  4.00084  0  0  0.119947  0  4.025033  0  0  0.115329  0.114397  0  3.984546  0
C  C52  1  0.92059324  0.97599079  0.26936491  1  0  0.12213  0  3.769782  0  0.532011  0  0.1166  0  4.000755  0  0  0.119927  0  4.024948  0  0  0.115281  0.114378  0  3.984463  0
C  C53  1  0.02400847  0.07940423  0.23063455  1  0  0.122132  0  3.769879  0  0.491712  0  0.116646  0  4.000823  0  0  0.119974  0  4.025016  0  0  0.115334  0.114423  0  3.984534  0
C  C54  1  0.53742827  0.36922691  0.89178811  1  0  0.680834  0  3.884205  0  1.578224  0  0.631787  0  4.174182  0  0  0.667036  0  4.165127  0  0  0.214121  0.607966  0  4.179482  0
C  C55  1  0.63077269  0.46257094  0.60821248  1  0  0.680929  0  3.884149  0  1.578248  0  0.631892  0  4.174113  0  0  0.667141  0  4.165056  0  0  0.214159  0.608061  0  4.179419  0
C  C56  1  0.46257108  0.63076974  0.10821161  1  0  0.680982  0  3.884092  0  1.578245  0  0.631959  0  4.174026  0  0  0.667209  0  4.164973  0  0  0.214154  0.608132  0  4.17933  0
C  C57  1  0.36922885  0.53743083  0.39178833  1  0  0.680976  0  3.884091  0  1.578187  0  0.63194  0  4.17405  0  0  0.667192  0  4.164995  0  0  0.214193  0.608121  0  4.179349  0
C  C58  1  0.45780523  0.46313068  0.97374817  1  0  -0.146002  0  3.634776  0  0.033303  0  -0.165484  0  3.888126  0  0  -0.170774  0  3.901682  0  0  -0.069553  -0.162035  0  3.879047  0
C  C59  1  0.53686788  0.54219518  0.52625162  1  0  -0.146068  0  3.634776  0  -0.068925  0  -0.165564  0  3.888134  0  0  -0.170853  0  3.901689  0  0  -0.069556  -0.162107  0  3.87906  0
C  C60  1  0.54219534  0.53686598  0.02625150  1  0  -0.146139  0  3.634914  0  -0.068924  0  -0.165665  0  3.888284  0  0  -0.170955  0  3.901839  0  0  -0.069586  -0.162205  0  3.879204  0
C  C61  1  0.46313280  0.45780530  0.47374791  1  0  -0.146103  0  3.634826  0  0.033342  0  -0.165601  0  3.888178  0  0  -0.170891  0  3.901732  0  0  -0.069567  -0.162154  0  3.879104  0
C  C62  1  0.18069138  0.08337955  0.94532060  1  0  0.668714  0  3.839075  0  1.575559  0  0.625103  0  4.139571  0  0  0.657402  0  4.131511  0  0  0.215402  0.603147  0  4.14454  0
C  C63  1  0.91661951  0.81930790  0.55467859  1  0  0.66874  0  3.839073  0  1.575569  0  0.625144  0  4.139544  0  0  0.657445  0  4.131483  0  0  0.215427  0.603195  0  4.144506  0
C  C64  1  0.81930286  0.91662216  0.05467980  1  0  0.668648  0  3.839328  0  1.575752  0  0.625062  0  4.139751  0  0  0.657362  0  4.131692  0  0  0.215409  0.603104  0  4.144718  0
C  C65  1  0.08337689  0.18069890  0.44532086  1  0  0.668631  0  3.839386  0  1.575742  0  0.625024  0  4.139858  0  0  0.657334  0  4.131781  0  0  0.215369  0.603054  0  4.144846  0
C  C66  1  0.01112990  0.07244666  0.98118940  1  0  -0.161576  0  3.643917  0  0.074995  0  -0.184496  0  3.90627  0  0  -0.19039  0  3.921572  0  0  -0.080387  -0.180543  0  3.896022  0
C  C67  1  0.92755323  0.98887104  0.51881165  1  0  -0.161606  0  3.643925  0  0.074985  0  -0.184525  0  3.906283  0  0  -0.190421  0  3.921586  0  0  -0.080391  -0.180565  0  3.896009  0
C  C68  1  0.98886689  0.92755889  0.01881145  1  0  -0.161547  0  3.643912  0  -0.210107  0  -0.1844  0  3.906195  0  0  -0.190297  0  3.921501  0  0  -0.080288  -0.18044  0  3.895942  0
C  C69  1  0.07243990  0.01113447  0.48118797  1  0  -0.161549  0  3.643905  0  -0.210073  0  -0.184411  0  3.906208  0  0  -0.190311  0  3.921511  0  0  -0.080313  -0.180449  0  3.895963  0
N  N70  1  0.00263403  0.19162081  0.71305414  1  0  -0.364202  0  3.318482  0  -1.307392  0  -0.28586  0  3.596392  0  0  -0.305739  0  3.611925  0  0  -0.330059  -0.27246  0  3.585727  0
N  N71  1  0.80838114  0.99736741  0.78694674  1  0  -0.364274  0  3.318616  0  -1.307399  0  -0.28596  0  3.596499  0  0  -0.305836  0  3.612028  0  0  -0.330109  -0.272562  0  3.585837  0
N  N72  1  0.99736857  0.80837710  0.28694336  1  0  -0.364226  0  3.318432  0  -1.307205  0  -0.285885  0  3.596328  0  0  -0.305766  0  3.611865  0  0  -0.330076  -0.272492  0  3.585669  0
N  N73  1  0.19162029  0.00263054  0.21305422  1  0  -0.364324  0  3.318607  0  -1.307214  0  -0.286001  0  3.596474  0  0  -0.305879  0  3.612006  0  0  -0.330093  -0.2726  0  3.585812  0
O  O74  1  0.68428495  0.38130450  0.86235948  1  0  -0.619064  0  2.032882  0  -1.184668  0  -0.540064  0  2.295132  0  0  -0.569247  0  2.280309  0  0  -0.310545  -0.519761  0  2.304658  0
O  O75  1  0.61869678  0.31571356  0.63764184  1  0  -0.619084  0  2.032867  0  -1.184685  0  -0.540103  0  2.295139  0  0  -0.569286  0  2.280313  0  0  -0.310572  -0.519799  0  2.304668  0
O  O76  1  0.31571403  0.61869341  0.13763952  1  0  -0.619127  0  2.032916  0  -1.184729  0  -0.540096  0  2.295111  0  0  -0.56928  0  2.280287  0  0  -0.310547  -0.519792  0  2.304635  0
O  O77  1  0.38130598  0.68428822  0.36235893  1  0  -0.619144  0  2.032911  0  -1.184688  0  -0.540108  0  2.295108  0  0  -0.569295  0  2.280284  0  0  -0.310583  -0.519808  0  2.304638  0
O  O78  1  0.45914743  0.28367285  0.85143441  1  0  -0.617995  0  1.993766  0  -1.202262  0  -0.561238  0  2.221562  0  0  -0.586248  0  2.210027  0  0  -0.298837  -0.54383  0  2.228423  0
O  O79  1  0.71632683  0.54085283  0.64856477  1  0  -0.61808  0  1.993759  0  -1.202226  0  -0.561296  0  2.22158  0  0  -0.586301  0  2.210047  0  0  -0.298849  -0.543887  0  2.228446  0
O  O80  1  0.54085509  0.71632128  0.14856528  1  0  -0.618046  0  1.993594  0  -1.202206  0  -0.561324  0  2.221428  0  0  -0.586316  0  2.209838  0  0  -0.298876  -0.543915  0  2.228286  0
O  O81  1  0.28367629  0.45914767  0.35143535  1  0  -0.618015  0  1.99364  0  -1.202191  0  -0.561293  0  2.221482  0  0  -0.58629  0  2.209902  0  0  -0.298859  -0.543885  0  2.228343  0
O  O82  1  0.30961633  0.96233118  0.94295032  1  0  -0.548971  0  1.870128  0  -1.160014  0  -0.50945  0  2.071168  0  0  -0.529191  0  2.065835  0  0  -0.298119  -0.495956  0  2.074604  0
O  O83  1  0.03766791  0.69038313  0.55704770  1  0  -0.548973  0  1.870121  0  -1.160003  0  -0.509448  0  2.071138  0  0  -0.529189  0  2.065804  0  0  -0.29812  -0.495963  0  2.074577  0
O  O84  1  0.69037876  0.03767181  0.05705000  1  0  -0.54897  0  1.870223  0  -1.160132  0  -0.509447  0  2.071219  0  0  -0.529188  0  2.065885  0  0  -0.298147  -0.495958  0  2.074663  0
O  O85  1  0.96233053  0.30962494  0.44295025  1  0  -0.54893  0  1.8703  0  -1.160171  0  -0.509398  0  2.071302  0  0  -0.529142  0  2.065963  0  0  -0.298102  -0.495901  0  2.074747  0
O  O86  1  0.17456145  0.24237716  0.91533194  1  0  -0.575441  0  2.061312  0  -1.205871  0  -0.526071  0  2.280237  0  0  -0.549466  0  2.263886  0  0  -0.345697  -0.509614  0  2.289033  0
O  O87  1  0.75762177  0.82544002  0.58466980  1  0  -0.57549  0  2.061198  0  -1.205897  0  -0.526086  0  2.280164  0  0  -0.54948  0  2.263856  0  0  -0.345717  -0.509633  0  2.28896  0
O  O88  1  0.82543366  0.75762584  0.08466975  1  0  -0.575416  0  2.061499  0  -1.205858  0  -0.526067  0  2.280416  0  0  -0.549463  0  2.264018  0  0  -0.345726  -0.50961  0  2.28921  0
O  O89  1  0.24237378  0.17456550  0.41532972  1  0  -0.575428  0  2.061471  0  -1.205845  0  -0.526062  0  2.280383  0  0  -0.549463  0  2.263986  0  0  -0.345721  -0.509603  0  2.289183  0
