# generated using pymatgen
data_Ag2H6C5(NO3)2
_symmetry_space_group_name_H-M   'P 1'
_cell_length_a   8.20273820
_cell_length_b   10.17322545
_cell_length_c   12.85122637
_cell_angle_alpha   108.97115078
_cell_angle_beta   90.00103352
_cell_angle_gamma   113.76721401
_symmetry_Int_Tables_number   1
_chemical_formula_structural   Ag2H6C5(NO3)2
_chemical_formula_sum   'Ag8 H24 C20 N8 O24'
_cell_volume   917.45170755
_cell_formula_units_Z   4
loop_
 _symmetry_equiv_pos_site_id
 _symmetry_equiv_pos_as_xyz
  1  'x, y, z'
loop_
 _atom_site_type_symbol
 _atom_site_label
 _atom_site_symmetry_multiplicity
 _atom_site_fract_x
 _atom_site_fract_y
 _atom_site_fract_z
 _atom_site_occupancy
 _atom_site_pbe_bader_spin_density
 _atom_site_pbe_cm5_charge
 _atom_site_pbe_ddec_charge
 _atom_site_pbe_ddec_spin_density
 _atom_site_pbe_ddec_sum_bond_order
 _atom_site_pbe_magmom
Ag  Ag0  1  0.93678439  0.11534079  0.19616925  1  0  0.42526  0.35959  0  2.080276  0
Ag  Ag1  1  0.82143350  0.88486056  0.30380927  1  0  0.425334  0.359322  0  2.07947  0
Ag  Ag2  1  0.06322437  0.88466530  0.80383289  1  0  0.425203  0.359431  0  2.080501  0
Ag  Ag3  1  0.17855907  0.11513753  0.69618534  1  0  0.425348  0.359397  0  2.079352  0
Ag  Ag4  1  0.40356271  0.40889105  0.66967202  1  0  0.430739  0.383948  0  1.887706  0
Ag  Ag5  1  0.99487232  0.59106791  0.83039100  1  0  0.430608  0.384111  0  1.887671  0
Ag  Ag6  1  0.59644072  0.59110927  0.33033173  1  0  0.430737  0.383943  0  1.887617  0
Ag  Ag7  1  0.00512619  0.40893476  0.16960637  1  0  0.430607  0.38409  0  1.88769  0
H  H8  1  0.62434276  0.23858264  0.29139065  1  0  0.289425  0.336603  0  1.024921  0
H  H9  1  0.38581230  0.76169586  0.20882771  1  0  0.289371  0.336562  0  1.024807  0
H  H10  1  0.37566657  0.76142459  0.70861413  1  0  0.289408  0.336549  0  1.025061  0
H  H11  1  0.61418156  0.23829994  0.79116630  1  0  0.289342  0.336539  0  1.024847  0
H  H12  1  0.70944438  0.97233913  0.00124211  1  0  0.285063  0.380832  0  0.96276  0
H  H13  1  0.73712427  0.02749713  0.49881395  1  0  0.284885  0.38019  0  0.963727  0
H  H14  1  0.29056315  0.02766695  0.99876236  1  0  0.285046  0.380843  0  0.962784  0
H  H15  1  0.26285587  0.97248830  0.50118047  1  0  0.284863  0.380079  0  0.963873  0
H  H16  1  0.61793098  0.05828784  0.10177262  1  0  0.29153  0.383207  0  0.950242  0
H  H17  1  0.55974231  0.94196828  0.39829597  1  0  0.291454  0.383217  0  0.950007  0
H  H18  1  0.38207784  0.94171592  0.89823203  1  0  0.29152  0.383218  0  0.950219  0
H  H19  1  0.44024611  0.05802639  0.60169463  1  0  0.291444  0.383224  0  0.950049  0
H  H20  1  0.43200057  0.55684763  0.88797975  1  0  0.287312  0.382851  0  0.960413  0
H  H21  1  0.87530681  0.44310735  0.61210435  1  0  0.286939  0.382051  0  0.961192  0
H  H22  1  0.56799915  0.44315500  0.11202305  1  0  0.287279  0.382821  0  0.960468  0
H  H23  1  0.12469807  0.55688609  0.38789527  1  0  0.286896  0.38197  0  0.961303  0
H  H24  1  0.53576872  0.44601475  0.86715880  1  0  0.288439  0.367081  0  0.978731  0
H  H25  1  0.08982284  0.55406062  0.63276588  1  0  0.288402  0.367175  0  0.978692  0
H  H26  1  0.46422862  0.55398557  0.13284495  1  0  0.288417  0.367042  0  0.978781  0
H  H27  1  0.91018190  0.44593743  0.36723417  1  0  0.288388  0.367169  0  0.978682  0
H  H28  1  0.03389081  0.27173816  0.47725891  1  0  0.13262  0.109132  0  0.989119  0
H  H29  1  0.76223250  0.72835345  0.02276024  1  0  0.132507  0.108586  0  0.990146  0
H  H30  1  0.96611666  0.72827022  0.52274384  1  0  0.132624  0.109177  0  0.989119  0
H  H31  1  0.23776834  0.27165386  0.97723366  1  0  0.132531  0.108634  0  0.990109  0
C  C32  1  0.36058468  0.15674912  0.20166097  1  0  0.217519  0.569707  0  4.188138  0
C  C33  1  0.20399952  0.84371687  0.29839716  1  0  0.217356  0.569582  0  4.187738  0
C  C34  1  0.63942337  0.84326042  0.79834208  1  0  0.21746  0.569631  0  4.188054  0
C  C35  1  0.79598535  0.15627313  0.70160157  1  0  0.217211  0.569366  0  4.187779  0
C  C36  1  0.31790089  0.21978700  0.31373824  1  0  0.07177  -0.017428  0  3.999629  0
C  C37  1  0.09821946  0.78049609  0.18633604  1  0  0.071425  -0.01903  0  3.999991  0
C  C38  1  0.68210672  0.78021677  0.68626564  1  0  0.071712  -0.017534  0  3.999205  0
C  C39  1  0.90177201  0.21949737  0.81366126  1  0  0.071449  -0.018911  0  3.999841  0
C  C40  1  0.42055477  0.28337788  0.41998588  1  0  0.064053  -0.040743  0  4.018794  0
C  C41  1  0.13720402  0.71666452  0.08012121  1  0  0.064267  -0.040269  0  4.020693  0
C  C42  1  0.57944945  0.71661669  0.58001715  1  0  0.064069  -0.040684  0  4.018745  0
C  C43  1  0.86279572  0.28333815  0.91987693  1  0  0.064294  -0.040215  0  4.020827  0
C  C44  1  0.61068035  0.32646193  0.45536904  1  0  0.224421  0.572603  0  4.161453  0
C  C45  1  0.28414013  0.67340949  0.04481180  1  0  0.223354  0.570218  0  4.163016  0
C  C46  1  0.38932622  0.67353490  0.54463848  1  0  0.224256  0.572298  0  4.161694  0
C  C47  1  0.71585659  0.32659203  0.95518682  1  0  0.223392  0.57027  0  4.163038  0
C  C48  1  0.15005891  0.26588352  0.43915672  1  0  0.137292  0.164678  0  3.937887  0
C  C49  1  0.88427492  0.73425650  0.06087855  1  0  0.138196  0.166615  0  3.938012  0
C  C50  1  0.84995049  0.73412140  0.56084746  1  0  0.137257  0.16453  0  3.937859  0
C  C51  1  0.11572361  0.26574621  0.93911493  1  0  0.138108  0.166441  0  3.93812  0
N  N52  1  0.14897464  0.21139095  0.32837890  1  0  -0.376967  -0.271517  0  3.670755  0
N  N53  1  0.93775983  0.78897555  0.17165969  1  0  -0.376633  -0.270544  0  3.669493  0
N  N54  1  0.85103527  0.78861744  0.67162384  1  0  -0.376871  -0.271327  0  3.670393  0
N  N55  1  0.06223273  0.21102252  0.82833725  1  0  -0.376638  -0.270594  0  3.669557  0
N  N56  1  0.31105078  0.31093566  0.49741638  1  0  -0.375162  -0.268293  0  3.649895  0
N  N57  1  0.00015335  0.68902789  0.00266817  1  0  -0.375512  -0.268848  0  3.650892  0
N  N58  1  0.68895459  0.68906120  0.50258803  1  0  -0.375158  -0.268195  0  3.649718  0
N  N59  1  0.99984511  0.31097711  0.99732591  1  0  -0.375472  -0.268774  0  3.651059  0
O  O60  1  0.23950363  0.09312254  0.11854367  1  0  -0.294496  -0.497338  0  2.251588  0
O  O61  1  0.14653859  0.90738174  0.38149635  1  0  -0.294746  -0.497181  0  2.252161  0
O  O62  1  0.76050672  0.90689161  0.88145903  1  0  -0.294499  -0.4973  0  2.251509  0
O  O63  1  0.85343759  0.09259332  0.61849848  1  0  -0.294647  -0.497063  0  2.252061  0
O  O64  1  0.52315331  0.16732016  0.19536455  1  0  -0.311503  -0.519177  0  2.308201  0
O  O65  1  0.35605558  0.83323704  0.30472046  1  0  -0.311038  -0.518737  0  2.309949  0
O  O66  1  0.47685532  0.83269054  0.80463725  1  0  -0.311445  -0.519109  0  2.308279  0
O  O67  1  0.64393217  0.16675873  0.69527744  1  0  -0.310999  -0.518687  0  2.309926  0
O  O68  1  0.67494076  0.38694827  0.55625745  1  0  -0.28725  -0.486625  0  2.292665  0
O  O69  1  0.28783181  0.61270950  0.94391786  1  0  -0.286771  -0.485963  0  2.293182  0
O  O70  1  0.32505937  0.61304056  0.44374409  1  0  -0.287185  -0.48648  0  2.292512  0
O  O71  1  0.71216549  0.38729319  0.05607796  1  0  -0.28677  -0.485961  0  2.29331  0
O  O72  1  0.71020988  0.30271866  0.37713310  1  0  -0.318751  -0.509431  0  2.397193  0
O  O73  1  0.40743028  0.69724823  0.12307607  1  0  -0.318243  -0.508305  0  2.397487  0
O  O74  1  0.28979778  0.69728280  0.62287173  1  0  -0.318649  -0.509266  0  2.397421  0
O  O75  1  0.59256408  0.30275100  0.87692040  1  0  -0.318264  -0.50837  0  2.397442  0
O  O76  1  0.69306995  0.00080713  0.08246871  1  0  -0.593924  -0.701983  0  2.259534  0
O  O77  1  0.69234346  0.99931187  0.41762114  1  0  -0.593569  -0.701003  0  2.25905  0
O  O78  1  0.30693529  0.99919434  0.91753457  1  0  -0.593862  -0.701948  0  2.25963  0
O  O79  1  0.30764431  0.00068392  0.58237287  1  0  -0.593545  -0.700959  0  2.259132  0
O  O80  1  0.51699456  0.52192443  0.84205350  1  0  -0.587788  -0.698024  0  2.24354  0
O  O81  1  0.99531958  0.47818097  0.65796891  1  0  -0.587188  -0.69742  0  2.244778  0
O  O82  1  0.48300572  0.47807933  0.15795271  1  0  -0.587716  -0.697943  0  2.243569  0
O  O83  1  0.00468524  0.52181479  0.34202976  1  0  -0.587143  -0.697339  0  2.244856  0
