# generated using pymatgen
data_SnH4C8O3
_symmetry_space_group_name_H-M   'P 1'
_cell_length_a   7.09570456
_cell_length_b   7.27646131
_cell_length_c   23.45149418
_cell_angle_alpha   81.33397167
_cell_angle_beta   85.19180240
_cell_angle_gamma   63.02143405
_symmetry_Int_Tables_number   1
_chemical_formula_structural   SnH4C8O3
_chemical_formula_sum   'Sn6 H24 C48 O18'
_cell_volume   1066.58698416
_cell_formula_units_Z   6
loop_
 _symmetry_equiv_pos_site_id
 _symmetry_equiv_pos_as_xyz
  1  'x, y, z'
loop_
 _atom_site_type_symbol
 _atom_site_label
 _atom_site_symmetry_multiplicity
 _atom_site_fract_x
 _atom_site_fract_y
 _atom_site_fract_z
 _atom_site_occupancy
 _atom_site_hle17_bader_spin_density
 _atom_site_hle17_ddec_charge
 _atom_site_hle17_ddec_spin_density
 _atom_site_hle17_ddec_sum_bond_order
 _atom_site_hle17_magmom
 _atom_site_hse06_10hf_bader_spin_density
 _atom_site_hse06_10hf_ddec_charge
 _atom_site_hse06_10hf_ddec_spin_density
 _atom_site_hse06_10hf_ddec_sum_bond_order
 _atom_site_hse06_10hf_magmom
 _atom_site_hse06_bader_spin_density
 _atom_site_hse06_ddec_charge
 _atom_site_hse06_ddec_spin_density
 _atom_site_hse06_ddec_sum_bond_order
 _atom_site_hse06_magmom
 _atom_site_pbe_bader_spin_density
 _atom_site_pbe_cm5_charge
 _atom_site_pbe_ddec_charge
 _atom_site_pbe_ddec_spin_density
 _atom_site_pbe_ddec_sum_bond_order
 _atom_site_pbe_magmom
Sn  Sn0  1  0.22520335  0.89485099  0.22993760  1  0  1.128335  0  1.866991  0  0  0.956403  0  2.298332  0  0  1.000757  0  2.26778  0  0  0.554241  0.92435  0  2.320118  0
Sn  Sn1  1  0.77479675  0.10514714  0.77006372  1  0  1.128355  0  1.866886  0  0  0.956465  0  2.298207  0  0  1.000816  0  2.267631  0  0  0.55425  0.924426  0  2.319988  0
Sn  Sn2  1  0.53729995  0.31032301  0.24299616  1  0  1.062989  0  1.900397  0  0  0.896304  0  2.314433  0  0  0.937219  0  2.289765  0  0  0.535193  0.866654  0  2.332155  0
Sn  Sn3  1  0.46270007  0.68967512  0.75700900  1  0  1.062911  0  1.900494  0  0  0.896304  0  2.314438  0  0  0.937153  0  2.289884  0  0  0.535146  0.866637  0  2.332196  0
Sn  Sn4  1  0.97709613  0.55132448  0.27145354  1  0  1.04547  0  1.901457  0  0  0.878423  0  2.321035  0  0  0.921764  0  2.296169  0  0  0.509806  0.847319  0  2.338539  0
Sn  Sn5  1  0.02288997  0.44869234  0.72854085  1  0  1.045462  0  1.901437  0  0  0.878446  0  2.320962  0  0  0.921746  0  2.296163  0  0  0.509811  0.847354  0  2.338466  0
H  H6  1  0.38187013  0.81163787  0.09951849  1  0  0.103806  0  0.959563  0  0  0.110755  0  1.029468  0  0  0.11465  0  1.026089  0  0  0.105247  0.107925  0  1.031947  0
H  H7  1  0.61813149  0.18836338  0.90047753  1  0  0.103886  0  0.959684  0  0  0.11084  0  1.029542  0  0  0.114737  0  1.026158  0  0  0.10529  0.10801  0  1.03202  0
H  H8  1  0.89475759  0.97658442  0.09177379  1  0  0.096257  0  0.953896  0  0  0.105696  0  1.019503  0  0  0.109087  0  1.017465  0  0  0.102839  0.103235  0  1.021077  0
H  H9  1  0.10524265  0.02341372  0.90822028  1  0  0.096266  0  0.953802  0  0  0.105701  0  1.019413  0  0  0.10909  0  1.017379  0  0  0.102859  0.103236  0  1.020993  0
H  H10  1  0.17019930  0.88937281  0.01225524  1  0  0.091656  0  0.973093  0  0  0.103621  0  1.035904  0  0  0.105878  0  1.035858  0  0  0.100974  0.102108  0  1.035835  0
H  H11  1  0.82980588  0.11062687  0.98773949  1  0  0.091658  0  0.973045  0  0  0.1036  0  1.035875  0  0  0.105856  0  1.03583  0  0  0.10096  0.102092  0  1.035806  0
H  H12  1  0.37293671  0.28084305  0.39967081  1  0  0.116378  0  0.944159  0  0  0.123498  0  1.009115  0  0  0.127654  0  1.00544  0  0  0.109008  0.120476  0  1.011824  0
H  H13  1  0.62705422  0.71916288  0.60032909  1  0  0.116415  0  0.944159  0  0  0.123524  0  1.009118  0  0  0.127681  0  1.005441  0  0  0.10903  0.120501  0  1.011828  0
H  H14  1  0.51097753  0.63759693  0.40882796  1  0  0.100078  0  0.944656  0  0  0.110562  0  1.00685  0  0  0.114034  0  1.004484  0  0  0.104717  0.108064  0  1.008604  0
H  H15  1  0.48902827  0.36240119  0.59117152  1  0  0.100076  0  0.94469  0  0  0.110559  0  1.006885  0  0  0.114032  0  1.004516  0  0  0.104711  0.108061  0  1.00864  0
H  H16  1  0.59356167  0.58089289  0.51334691  1  0  0.093022  0  0.965378  0  0  0.104551  0  1.02859  0  0  0.106864  0  1.028275  0  0  0.102464  0.102985  0  1.028751  0
H  H17  1  0.40643917  0.41910680  0.48665261  1  0  0.092964  0  0.965449  0  0  0.104521  0  1.028625  0  0  0.106834  0  1.02831  0  0  0.102446  0.102955  0  1.028785  0
H  H18  1  0.98627103  0.30210813  0.14979165  1  0  0.05742  0  1.025583  0  0  0.062422  0  1.106292  0  0  0.064003  0  1.108181  0  0  0.093432  0.061164  0  1.105333  0
H  H19  1  0.01373398  0.69788222  0.85021076  1  0  0.057385  0  1.025687  0  0  0.062381  0  1.106417  0  0  0.063998  0  1.108193  0  0  0.09344  0.061123  0  1.105453  0
H  H20  1  0.73156825  0.38236428  0.07321751  1  0  0.107876  0  0.983438  0  0  0.115804  0  1.047251  0  0  0.119223  0  1.045482  0  0  0.10123  0.113339  0  1.048582  0
H  H21  1  0.26843463  0.61762453  0.92678545  1  0  0.107841  0  0.98347  0  0  0.115801  0  1.047251  0  0  0.119216  0  1.045483  0  0  0.101238  0.113336  0  1.048581  0
H  H22  1  0.36889299  0.50460523  0.03053196  1  0  0.099021  0  0.959048  0  0  0.108183  0  1.026929  0  0  0.111338  0  1.024618  0  0  0.104695  0.105799  0  1.028883  0
H  H23  1  0.63110004  0.49540224  0.96946910  1  0  0.099114  0  0.958987  0  0  0.108285  0  1.026848  0  0  0.111436  0  1.024546  0  0  0.104766  0.1059  0  1.028803  0
H  H24  1  0.04408969  0.62494180  0.47094171  1  0  0.101296  0  0.955686  0  0  0.10991  0  1.023788  0  0  0.113232  0  1.021273  0  0  0.105388  0.107441  0  1.02579  0
H  H25  1  0.95591604  0.37504700  0.52906034  1  0  0.101331  0  0.955752  0  0  0.109935  0  1.023851  0  0  0.113279  0  1.021308  0  0  0.105414  0.107466  0  1.025852  0
H  H26  1  0.86303172  0.18066456  0.35025703  1  0  0.060339  0  1.011157  0  0  0.064395  0  1.094323  0  0  0.066594  0  1.09475  0  0  0.093134  0.062725  0  1.094346  0
H  H27  1  0.13697256  0.81933046  0.64974689  1  0  0.060318  0  1.011201  0  0  0.064338  0  1.094392  0  0  0.066546  0  1.094807  0  0  0.093127  0.062671  0  1.094409  0
H  H28  1  0.10922881  0.62961646  0.57367298  1  0  0.10651  0  0.974428  0  0  0.114673  0  1.038699  0  0  0.117914  0  1.037307  0  0  0.101632  0.112349  0  1.039711  0
H  H29  1  0.89078115  0.37037543  0.42633010  1  0  0.106571  0  0.974454  0  0  0.114698  0  1.038763  0  0  0.117941  0  1.037374  0  0  0.101628  0.112373  0  1.039771  0
C  C30  1  0.68409374  0.80741981  0.16464177  1  0  0.663833  0  3.831133  0  0  0.611665  0  4.117065  0  0  0.648116  0  4.107745  0  0  0.229187  0.586807  0  4.122588  0
C  C31  1  0.31590152  0.19259231  0.83535433  1  0  0.663928  0  3.831174  0  0  0.611917  0  4.116932  0  0  0.648361  0  4.107618  0  0  0.229299  0.587057  0  4.122449  0
C  C32  1  0.63828535  0.89022748  0.10239196  1  0  -0.065673  0  3.749349  0  0  -0.044707  0  3.987135  0  0  -0.053132  0  4.010135  0  0  -0.017367  -0.039225  0  3.971623  0
C  C33  1  0.36171838  0.10977220  0.89760451  1  0  -0.065779  0  3.749232  0  0  -0.044847  0  3.986965  0  0  -0.053275  0  4.009973  0  0  -0.017385  -0.039362  0  3.971446  0
C  C34  1  0.47523086  0.88317928  0.07549562  1  0  -0.091919  0  3.662804  0  0  -0.123537  0  3.913455  0  0  -0.122664  0  3.931447  0  0  -0.070998  -0.123912  0  3.901227  0
C  C35  1  0.52477360  0.11681885  0.92449963  1  0  -0.092105  0  3.663305  0  0  -0.123691  0  3.913971  0  0  -0.12282  0  3.931973  0  0  -0.071057  -0.124062  0  3.901736  0
C  C36  1  0.43489367  0.95807187  0.01626208  1  0  0.060064  0  3.774117  0  0  0.07808  0  3.996605  0  0  0.077483  0  4.020964  0  0  -0.001446  0.078472  0  3.980084  0
C  C37  1  0.56511365  0.04191693  0.98373097  1  0  0.060255  0  3.774288  0  0  0.078106  0  3.996893  0  0  0.077507  0  4.021259  0  0  -0.001492  0.078497  0  3.98037  0
C  C38  1  0.76718553  0.97283516  0.06998467  1  0  -0.065281  0  3.731288  0  0  -0.092772  0  3.987808  0  0  -0.092803  0  4.008005  0  0  -0.085362  -0.092617  0  3.974062  0
C  C39  1  0.23281609  0.02716298  0.93001065  1  0  -0.065052  0  3.730906  0  0  -0.09252  0  3.987384  0  0  -0.092549  0  4.007579  0  0  -0.085276  -0.092361  0  3.973635  0
C  C40  1  0.26909723  0.95314150  0.98760888  1  0  -0.110731  0  3.727182  0  0  -0.129498  0  3.977715  0  0  -0.132944  0  3.999431  0  0  -0.086232  -0.127141  0  3.962864  0
C  C41  1  0.73090863  0.04685041  0.01238662  1  0  -0.110565  0  3.727166  0  0  -0.129252  0  3.977713  0  0  -0.1327  0  3.999434  0  0  -0.086073  -0.1269  0  3.962866  0
C  C42  1  0.38891369  0.99848576  0.33630027  1  0  0.668473  0  3.835651  0  0  0.613702  0  4.123035  0  0  0.650499  0  4.113274  0  0  0.234714  0.58876  0  4.128799  0
C  C43  1  0.61108359  0.00151238  0.66370027  1  0  0.668533  0  3.835304  0  0  0.613748  0  4.122723  0  0  0.650549  0  4.112952  0  0  0.234751  0.58881  0  4.128485  0
C  C44  1  0.44079470  0.96284579  0.39830688  1  0  -0.072131  0  3.768624  0  0  -0.051965  0  4.009173  0  0  -0.061582  0  4.033228  0  0  -0.018674  -0.045688  0  3.992895  0
C  C45  1  0.55919837  0.03715236  0.60169162  1  0  -0.072149  0  3.768673  0  0  -0.051944  0  4.009173  0  0  -0.061561  0  4.033226  0  0  -0.018699  -0.045667  0  3.992894  0
C  C46  1  0.42545732  0.12757880  0.42460152  1  0  -0.083204  0  3.658099  0  0  -0.114691  0  3.907812  0  0  -0.11289  0  3.924774  0  0  -0.069093  -0.115626  0  3.896156  0
C  C47  1  0.57453431  0.87242247  0.57539858  1  0  -0.083182  0  3.658285  0  0  -0.114655  0  3.908008  0  0  -0.112851  0  3.924965  0  0  -0.069038  -0.115589  0  3.896351  0
C  C48  1  0.46886653  0.10071940  0.48371954  1  0  0.05949  0  3.779967  0  0  0.07709  0  4.003062  0  0  0.076574  0  4.02717  0  0  -0.000986  0.07741  0  3.986678  0
C  C49  1  0.53112935  0.89928185  0.51628004  1  0  0.059557  0  3.779995  0  0  0.077101  0  4.003135  0  0  0.076585  0  4.02725  0  0  -0.000954  0.077421  0  3.986754  0
C  C50  1  0.50161962  0.76364704  0.43057562  1  0  -0.069058  0  3.741979  0  0  -0.098642  0  4.003264  0  0  -0.09848  0  4.023902  0  0  -0.086049  -0.098637  0  3.989291  0
C  C51  1  0.49837697  0.23635576  0.56942429  1  0  -0.069026  0  3.741909  0  0  -0.098619  0  4.003183  0  0  -0.098455  0  4.023818  0  0  -0.086026  -0.098614  0  3.989213  0
C  C52  1  0.54675938  0.73308838  0.48812778  1  0  -0.11131  0  3.731354  0  0  -0.130796  0  3.986001  0  0  -0.134425  0  4.0079  0  0  -0.08676  -0.128361  0  3.971154  0
C  C53  1  0.45323508  0.26691287  0.51187268  1  0  -0.111253  0  3.731346  0  0  -0.130772  0  3.985973  0  0  -0.134399  0  4.00787  0  0  -0.08673  -0.128337  0  3.971127  0
C  C54  1  0.34074218  0.36004033  0.14032378  1  0  0.634173  0  3.870183  0  0  0.584154  0  4.153898  0  0  0.618921  0  4.146072  0  0  0.215219  0.56061  0  4.1582  0
C  C55  1  0.65925937  0.63996091  0.85967566  1  0  0.634145  0  3.870158  0  0  0.584085  0  4.153839  0  0  0.618857  0  4.14601  0  0  0.215201  0.560542  0  4.158133  0
C  C56  1  0.19367745  0.39831878  0.09390326  1  0  -0.055805  0  3.779564  0  0  -0.034903  0  4.015727  0  0  -0.042675  0  4.038812  0  0  -0.018416  -0.029847  0  4.000067  0
C  C57  1  0.80631764  0.60168402  0.90610095  1  0  -0.055867  0  3.779566  0  0  -0.034756  0  4.015452  0  0  -0.042529  0  4.038542  0  0  -0.018375  -0.0297  0  3.999791  0
C  C58  1  0.01410753  0.36052878  0.10595095  1  0  -0.074832  0  3.753861  0  0  -0.098929  0  4.004737  0  0  -0.100604  0  4.027426  0  0  -0.088596  -0.097627  0  3.989336  0
C  C59  1  0.98589328  0.63947401  0.89405014  1  0  -0.074813  0  3.753765  0  0  -0.098963  0  4.004569  0  0  -0.100619  0  4.027271  0  0  -0.088606  -0.097663  0  3.989176  0
C  C60  1  0.87379304  0.40324666  0.06316428  1  0  -0.10018  0  3.711293  0  0  -0.117309  0  3.955759  0  0  -0.120217  0  3.976496  0  0  -0.085366  -0.115244  0  3.941595  0
C  C61  1  0.12620775  0.59675613  0.93683809  1  0  -0.100079  0  3.71136  0  0  -0.117283  0  3.955834  0  0  -0.120193  0  3.976582  0  0  -0.085381  -0.115217  0  3.94166  0
C  C62  1  0.23037325  0.47621283  0.03885193  1  0  -0.103311  0  3.696696  0  0  -0.135721  0  3.946858  0  0  -0.135327  0  3.965744  0  0  -0.075321  -0.135776  0  3.93406  0
C  C63  1  0.76961547  0.52379464  0.96115221  1  0  -0.103481  0  3.696937  0  0  -0.135945  0  3.947094  0  0  -0.135554  0  3.965982  0  0  -0.075398  -0.136002  0  3.934304  0
C  C64  1  0.90883208  0.48156751  0.00624544  1  0  0.060135  0  3.78041  0  0  0.078136  0  4.002497  0  0  0.077544  0  4.026687  0  0  -0.002492  0.078491  0  3.986111  0
C  C65  1  0.09115745  0.51844463  0.99375421  1  0  0.060112  0  3.780406  0  0  0.078224  0  4.002375  0  0  0.077634  0  4.026567  0  0  -0.00239  0.078582  0  3.985987  0
C  C66  1  0.95353344  0.76869003  0.36117813  1  0  0.637751  0  3.851165  0  0  0.585867  0  4.136253  0  0  0.620937  0  4.12886  0  0  0.21566  0.562137  0  4.140277  0
C  C67  1  0.04647369  0.23129876  0.63882431  1  0  0.637752  0  3.851015  0  0  0.585922  0  4.136068  0  0  0.620993  0  4.128669  0  0  0.215686  0.562196  0  4.14009  0
C  C68  1  0.95396149  0.88997650  0.40669965  1  0  -0.059281  0  3.769674  0  0  -0.036263  0  4.003736  0  0  -0.044449  0  4.027415  0  0  -0.016705  -0.030929  0  3.987715  0
C  C69  1  0.04604212  0.11002317  0.59330280  1  0  -0.059415  0  3.769716  0  0  -0.036439  0  4.003809  0  0  -0.044629  0  4.027493  0  0  -0.016775  -0.031106  0  3.987788  0
C  C70  1  0.00905779  0.78848976  0.46211033  1  0  -0.09688  0  3.684261  0  0  -0.130608  0  3.934887  0  0  -0.12988  0  3.953568  0  0  -0.07295  -0.130933  0  3.922244  0
C  C71  1  0.99095076  0.21150524  0.53789264  1  0  -0.096911  0  3.684404  0  0  -0.13069  0  3.934979  0  0  -0.129983  0  3.953669  0  0  -0.073041  -0.131015  0  3.922336  0
C  C72  1  0.02224084  0.89276062  0.50662523  1  0  0.060805  0  3.776359  0  0  0.079398  0  3.996681  0  0  0.078862  0  4.020893  0  0  -0.001012  0.079736  0  3.980233  0
C  C73  1  0.97776415  0.10722973  0.49337846  1  0  0.06079  0  3.776318  0  0  0.079666  0  3.996377  0  0  0.079127  0  4.020593  0  0  -0.00096  0.080005  0  3.979927  0
C  C74  1  0.90618979  0.10336341  0.39410327  1  0  -0.070618  0  3.753673  0  0  -0.095307  0  4.005711  0  0  -0.096751  0  4.028193  0  0  -0.087665  -0.0942  0  3.990446  0
C  C75  1  0.09381877  0.89662849  0.60589899  1  0  -0.070518  0  3.753429  0  0  -0.095177  0  4.005497  0  0  -0.096621  0  4.027968  0  0  -0.087595  -0.09407  0  3.990232  0
C  C76  1  0.08081773  0.79109779  0.56357771  1  0  -0.101931  0  3.703133  0  0  -0.119989  0  3.949668  0  0  -0.123262  0  3.971102  0  0  -0.084677  -0.117619  0  3.934918  0
C  C77  1  0.91919081  0.20889100  0.43642512  1  0  -0.101971  0  3.703192  0  0  -0.120074  0  3.949684  0  0  -0.123352  0  3.971126  0  0  -0.084664  -0.117697  0  3.934928  0
O  O78  1  0.25935481  0.58712265  0.25199692  1  0  -0.885009  0  1.815478  0  0  -0.740723  0  2.068991  0  0  -0.776313  0  2.054486  0  0  -0.437496  -0.715222  0  2.078245  0
O  O79  1  0.74063399  0.41288173  0.74800310  1  0  -0.884983  0  1.815362  0  0  -0.740719  0  2.068864  0  0  -0.776296  0  2.054351  0  0  -0.437495  -0.715235  0  2.078144  0
O  O80  1  0.55981088  0.74520910  0.19562438  1  0  -0.65997  0  2.122234  0  0  -0.576098  0  2.375978  0  0  -0.604936  0  2.366909  0  0  -0.284981  -0.555561  0  2.381545  0
O  O81  1  0.44018506  0.25480768  0.80437363  1  0  -0.65997  0  2.122199  0  0  -0.576221  0  2.375941  0  0  -0.605041  0  2.366862  0  0  -0.285039  -0.555709  0  2.381574  0
O  O82  1  0.85124273  0.79416000  0.18517649  1  0  -0.612934  0  2.025916  0  0  -0.541159  0  2.267561  0  0  -0.569489  0  2.261429  0  0  -0.27334  -0.521448  0  2.271627  0
O  O83  1  0.14875251  0.20585212  0.81482089  1  0  -0.613011  0  2.026039  0  0  -0.541282  0  2.2676  0  0  -0.569601  0  2.261465  0  0  -0.273389  -0.521566  0  2.271666  0
O  O84  1  0.37776745  0.85073061  0.31512368  1  0  -0.591836  0  2.023484  0  0  -0.514496  0  2.264765  0  0  -0.541608  0  2.254676  0  0  -0.268979  -0.495498  0  2.27109  0
O  O85  1  0.62222988  0.14927375  0.68487487  1  0  -0.591889  0  2.023298  0  0  -0.514557  0  2.264564  0  0  -0.541666  0  2.254467  0  0  -0.269024  -0.495556  0  2.270886  0
O  O86  1  0.35341225  0.17437545  0.30742007  1  0  -0.646521  0  2.155879  0  0  -0.560244  0  2.404636  0  0  -0.587484  0  2.394984  0  0  -0.279785  -0.54121  0  2.410781  0
O  O87  1  0.64658573  0.82562114  0.69258052  1  0  -0.646511  0  2.155752  0  0  -0.560259  0  2.404537  0  0  -0.587486  0  2.394873  0  0  -0.279766  -0.541232  0  2.410689  0
O  O88  1  0.32934764  0.24882195  0.18828942  1  0  -0.65941  0  2.132617  0  0  -0.574772  0  2.375622  0  0  -0.604639  0  2.370676  0  0  -0.279367  -0.553667  0  2.378258  0
O  O89  1  0.67065531  0.75118239  0.81171070  1  0  -0.659353  0  2.132568  0  0  -0.574763  0  2.375629  0  0  -0.604638  0  2.370687  0  0  -0.279345  -0.553652  0  2.37826  0
O  O90  1  0.46934237  0.43764785  0.13494066  1  0  -0.585442  0  1.976798  0  0  -0.518901  0  2.202038  0  0  -0.544587  0  2.195864  0  0  -0.278634  -0.500876  0  2.205658  0
O  O91  1  0.53065774  0.56235339  0.86505967  1  0  -0.585373  0  1.976812  0  0  -0.518861  0  2.202094  0  0  -0.544542  0  2.19592  0  0  -0.278605  -0.500828  0  2.20571  0
O  O92  1  0.02446231  0.57271651  0.37197752  1  0  -0.588114  0  1.992631  0  0  -0.518626  0  2.221636  0  0  -0.545408  0  2.215719  0  0  -0.277613  -0.499912  0  2.225  0
O  O93  1  0.97553920  0.42727851  0.62802391  1  0  -0.588139  0  1.992348  0  0  -0.518672  0  2.221321  0  0  -0.545468  0  2.215442  0  0  -0.277658  -0.499953  0  2.224673  0
O  O94  1  0.88500570  0.86185104  0.31003074  1  0  -0.654032  0  2.041541  0  0  -0.572941  0  2.282509  0  0  -0.602899  0  2.278836  0  0  -0.282626  -0.55189  0  2.284515  0
O  O95  1  0.11499511  0.13814554  0.68997020  1  0  -0.653991  0  2.041639  0  0  -0.572904  0  2.282511  0  0  -0.602846  0  2.278833  0  0  -0.282608  -0.551853  0  2.284514  0
