# generated using pymatgen
data_AgH3C5(NO)2
_symmetry_space_group_name_H-M   'P 1'
_cell_length_a   6.95570317
_cell_length_b   6.87025904
_cell_length_c   11.52973812
_cell_angle_alpha   90.00010115
_cell_angle_beta   90.00001225
_cell_angle_gamma   90.00003950
_symmetry_Int_Tables_number   1
_chemical_formula_structural   AgH3C5(NO)2
_chemical_formula_sum   'Ag4 H12 C20 N8 O8'
_cell_volume   550.97715960
_cell_formula_units_Z   4
loop_
 _symmetry_equiv_pos_site_id
 _symmetry_equiv_pos_as_xyz
  1  'x, y, z'
loop_
 _atom_site_type_symbol
 _atom_site_label
 _atom_site_symmetry_multiplicity
 _atom_site_fract_x
 _atom_site_fract_y
 _atom_site_fract_z
 _atom_site_occupancy
 _atom_site_hle17_bader_spin_density
 _atom_site_hle17_ddec_charge
 _atom_site_hle17_ddec_spin_density
 _atom_site_hle17_ddec_sum_bond_order
 _atom_site_hle17_magmom
 _atom_site_hse06_10hf_bader_spin_density
 _atom_site_hse06_10hf_ddec_charge
 _atom_site_hse06_10hf_ddec_spin_density
 _atom_site_hse06_10hf_ddec_sum_bond_order
 _atom_site_hse06_10hf_magmom
 _atom_site_hse06_bader_spin_density
 _atom_site_hse06_ddec_charge
 _atom_site_hse06_ddec_spin_density
 _atom_site_hse06_ddec_sum_bond_order
 _atom_site_hse06_magmom
 _atom_site_pbe_bader_spin_density
 _atom_site_pbe_cm5_charge
 _atom_site_pbe_ddec_charge
 _atom_site_pbe_ddec_spin_density
 _atom_site_pbe_ddec_sum_bond_order
 _atom_site_pbe_magmom
Ag  Ag0  1  0.48665831  0.10177569  0.40577600  1  0  0.573657  0  1.453167  0  0  0.446273  0  1.896858  0  0  0.466376  0  1.854992  0  0  0.48982  0.43472  0  1.924829  0
Ag  Ag1  1  0.48665841  0.60177239  0.09422278  1  0  0.573682  0  1.45314  0  0  0.446255  0  1.896897  0  0  0.466358  0  1.855031  0  0  0.489809  0.434707  0  1.92487  0
Ag  Ag2  1  0.98665693  0.89822647  0.59422305  1  0  0.573687  0  1.453114  0  0  0.446267  0  1.896848  0  0  0.466371  0  1.854981  0  0  0.489808  0.434714  0  1.924813  0
Ag  Ag3  1  0.98665826  0.39822250  0.90577540  1  0  0.573675  0  1.453172  0  0  0.446279  0  1.896866  0  0  0.466381  0  1.855  0  0  0.489821  0.434731  0  1.924833  0
H  H4  1  0.55595554  0.30153593  0.84461435  1  0  0.101914  0  0.928935  0  0  0.110415  0  0.993112  0  0  0.113892  0  0.989993  0  0  0.12345  0.107769  0  0.995632  0
H  H5  1  0.55595423  0.80153427  0.65538568  1  0  0.101933  0  0.928993  0  0  0.110422  0  0.993172  0  0  0.113898  0  0.990053  0  0  0.123458  0.10778  0  0.995691  0
H  H6  1  0.05595577  0.69846154  0.15538552  1  0  0.10192  0  0.929028  0  0  0.110406  0  0.993217  0  0  0.113884  0  0.990097  0  0  0.123453  0.107757  0  0.995731  0
H  H7  1  0.05595421  0.19846321  0.34461331  1  0  0.10195  0  0.929039  0  0  0.110433  0  0.993215  0  0  0.113909  0  0.990097  0  0  0.12347  0.107784  0  0.995727  0
H  H8  1  0.02466635  0.46697316  0.64438349  1  0  0.105402  0  0.966722  0  0  0.108928  0  1.037305  0  0  0.11292  0  1.032891  0  0  0.118892  0.105923  0  1.040812  0
H  H9  1  0.02466511  0.96697063  0.85561665  1  0  0.105417  0  0.96673  0  0  0.108941  0  1.037308  0  0  0.112933  0  1.032895  0  0  0.1189  0.105938  0  1.040817  0
H  H10  1  0.52466897  0.53303157  0.35561637  1  0  0.105399  0  0.966704  0  0  0.108923  0  1.037296  0  0  0.112913  0  1.032884  0  0  0.118889  0.105918  0  1.040804  0
H  H11  1  0.52466734  0.03303410  0.14438408  1  0  0.105391  0  0.966706  0  0  0.108916  0  1.037296  0  0  0.112906  0  1.032884  0  0  0.118892  0.105913  0  1.040806  0
H  H12  1  0.83675097  0.37546718  0.46102460  1  0  0.104592  0  0.952112  0  0  0.111605  0  1.015723  0  0  0.114695  0  1.013774  0  0  0.119985  0.109356  0  1.017345  0
H  H13  1  0.83675106  0.87546954  0.03897712  1  0  0.104605  0  0.952109  0  0  0.111616  0  1.015724  0  0  0.114705  0  1.013776  0  0  0.119983  0.109369  0  1.01735  0
H  H14  1  0.33675273  0.62453487  0.53897530  1  0  0.104626  0  0.952065  0  0  0.111613  0  1.015701  0  0  0.114703  0  1.013752  0  0  0.119981  0.109362  0  1.017329  0
H  H15  1  0.33675409  0.12453396  0.96102452  1  0  0.104617  0  0.952066  0  0  0.111604  0  1.015707  0  0  0.114693  0  1.013758  0  0  0.119982  0.109356  0  1.017337  0
C  C16  1  0.51900165  0.26069876  0.66000302  1  0  0.060757  0  3.690226  0  0  0.06665  0  3.930136  0  0  0.064541  0  3.949022  0  0  0.113321  0.067289  0  3.918234  0
C  C17  1  0.51900184  0.76069764  0.83999783  1  0  0.060854  0  3.690099  0  0  0.06672  0  3.930016  0  0  0.06461  0  3.948905  0  0  0.113344  0.06736  0  3.918118  0
C  C18  1  0.01900484  0.73930160  0.33999684  1  0  0.060762  0  3.690182  0  0  0.066642  0  3.930094  0  0  0.064533  0  3.948978  0  0  0.113305  0.067285  0  3.918187  0
C  C19  1  0.01900322  0.23930126  0.16000203  1  0  0.060874  0  3.690144  0  0  0.06673  0  3.930056  0  0  0.06462  0  3.948944  0  0  0.11334  0.067371  0  3.918152  0
C  C20  1  0.62044937  0.31622960  0.75903306  1  0  0.075787  0  3.659026  0  0  0.036481  0  3.913554  0  0  0.040534  0  3.930208  0  0  0.053382  0.033612  0  3.902992  0
C  C21  1  0.62044953  0.81622673  0.74096613  1  0  0.075688  0  3.65908  0  0  0.036413  0  3.913585  0  0  0.040465  0  3.930242  0  0  0.053361  0.03354  0  3.90302  0
C  C22  1  0.12045106  0.68376792  0.24096595  1  0  0.075757  0  3.659142  0  0  0.036489  0  3.913641  0  0  0.040539  0  3.930301  0  0  0.053369  0.033628  0  3.903067  0
C  C23  1  0.12044947  0.18377079  0.25903374  1  0  0.075665  0  3.659127  0  0  0.036422  0  3.913606  0  0  0.040473  0  3.930265  0  0  0.053352  0.033564  0  3.903027  0
C  C24  1  0.87941241  0.40781560  0.64718930  1  0  0.078272  0  3.665624  0  0  0.043279  0  3.933451  0  0  0.0496  0  3.943939  0  0  0.049923  0.038206  0  3.92809  0
C  C25  1  0.87941261  0.90781597  0.85281088  1  0  0.078256  0  3.665639  0  0  0.043279  0  3.93346  0  0  0.049598  0  3.943949  0  0  0.04993  0.038206  0  3.928105  0
C  C26  1  0.37941121  0.59218357  0.35280974  1  0  0.078273  0  3.665654  0  0  0.043285  0  3.933484  0  0  0.049606  0  3.943973  0  0  0.049945  0.038223  0  3.928103  0
C  C27  1  0.37940958  0.09218466  0.14718989  1  0  0.078297  0  3.665614  0  0  0.043312  0  3.933451  0  0  0.049634  0  3.943939  0  0  0.049939  0.038245  0  3.928083  0
C  C28  1  0.77726886  0.35706042  0.54789907  1  0  0.077068  0  3.650441  0  0  0.048116  0  3.909127  0  0  0.051376  0  3.921097  0  0  0.050613  0.045154  0  3.902533  0
C  C29  1  0.77727053  0.85705671  0.95210105  1  0  0.077022  0  3.650485  0  0  0.048062  0  3.909178  0  0  0.051325  0  3.921143  0  0  0.050591  0.045096  0  3.902598  0
C  C30  1  0.27726916  0.64294014  0.45210083  1  0  0.077011  0  3.650449  0  0  0.048089  0  3.909119  0  0  0.051348  0  3.92109  0  0  0.05061  0.045123  0  3.902533  0
C  C31  1  0.27727037  0.14294238  0.04789884  1  0  0.077018  0  3.650441  0  0  0.048093  0  3.909114  0  0  0.051351  0  3.921089  0  0  0.0506  0.045126  0  3.902537  0
C  C32  1  0.32051558  0.16911264  0.67034925  1  0  0.608813  0  3.970984  0  0  0.55908  0  4.264314  0  0  0.591815  0  4.260006  0  0  0.192774  0.536966  0  4.266434  0
C  C33  1  0.32051576  0.66911294  0.82964801  1  0  0.608834  0  3.970908  0  0  0.559111  0  4.26424  0  0  0.591847  0  4.259932  0  0  0.192811  0.536996  0  4.266363  0
C  C34  1  0.82051693  0.83088941  0.32965065  1  0  0.608753  0  3.971051  0  0  0.55903  0  4.264374  0  0  0.591766  0  4.260069  0  0  0.19276  0.536915  0  4.266488  0
C  C35  1  0.82051819  0.33088619  0.17035188  1  0  0.608775  0  3.971018  0  0  0.559046  0  4.264355  0  0  0.591781  0  4.260052  0  0  0.192793  0.536931  0  4.266473  0
N  N36  1  0.59981877  0.28043152  0.55426689  1  0  -0.257632  0  3.262028  0  0  -0.192748  0  3.533002  0  0  -0.201172  0  3.544916  0  0  -0.31799  -0.187388  0  3.525653  0
N  N37  1  0.59982044  0.78043216  0.94573312  1  0  -0.257646  0  3.26206  0  0  -0.192748  0  3.533042  0  0  -0.20117  0  3.544955  0  0  -0.317987  -0.187389  0  3.525704  0
N  N38  1  0.09982055  0.71956890  0.44573297  1  0  -0.257647  0  3.262078  0  0  -0.192757  0  3.533048  0  0  -0.20118  0  3.544962  0  0  -0.318002  -0.187397  0  3.525701  0
N  N39  1  0.09982032  0.21956826  0.05426675  1  0  -0.257662  0  3.262064  0  0  -0.192762  0  3.533027  0  0  -0.201184  0  3.54494  0  0  -0.317992  -0.187404  0  3.525688  0
N  N40  1  0.80086106  0.38531876  0.75306593  1  0  -0.261794  0  3.3333  0  0  -0.188498  0  3.626733  0  0  -0.200653  0  3.63925  0  0  -0.335078  -0.180632  0  3.618648  0
N  N41  1  0.80085978  0.88531882  0.74693509  1  0  -0.261744  0  3.333292  0  0  -0.18846  0  3.626711  0  0  -0.200615  0  3.63923  0  0  -0.335065  -0.180591  0  3.618623  0
N  N42  1  0.30086414  0.61467890  0.24693397  1  0  -0.261729  0  3.333386  0  0  -0.188462  0  3.62685  0  0  -0.200617  0  3.639367  0  0  -0.335066  -0.180598  0  3.618765  0
N  N43  1  0.30086255  0.11468030  0.25306567  1  0  -0.261771  0  3.333322  0  0  -0.188526  0  3.626775  0  0  -0.200679  0  3.639292  0  0  -0.335102  -0.180658  0  3.618688  0
O  O44  1  0.25452514  0.14741052  0.77097597  1  0  -0.620068  0  1.965866  0  0  -0.574391  0  2.215474  0  0  -0.599109  0  2.206886  0  0  -0.319419  -0.556827  0  2.22071  0
O  O45  1  0.25452385  0.64741053  0.72902385  1  0  -0.620094  0  1.965918  0  0  -0.574428  0  2.215514  0  0  -0.599148  0  2.206927  0  0  -0.319452  -0.556851  0  2.220724  0
O  O46  1  0.75452791  0.85259002  0.22902305  1  0  -0.620016  0  1.965917  0  0  -0.574345  0  2.215508  0  0  -0.599063  0  2.206922  0  0  -0.319395  -0.556787  0  2.220765  0
O  O47  1  0.75452776  0.35259146  0.27097603  1  0  -0.620013  0  1.96597  0  0  -0.574337  0  2.215536  0  0  -0.599052  0  2.206948  0  0  -0.3194  -0.556788  0  2.220812  0
O  O48  1  0.24082123  0.11874173  0.57490299  1  0  -0.64678  0  2.094552  0  0  -0.57519  0  2.378444  0  0  -0.604812  0  2.36625  0  0  -0.339675  -0.554153  0  2.385722  0
O  O49  1  0.24082145  0.61873504  0.92509594  1  0  -0.646817  0  2.094523  0  0  -0.575193  0  2.37837  0  0  -0.604818  0  2.366184  0  0  -0.339684  -0.554166  0  2.38567  0
O  O50  1  0.74082121  0.88126025  0.42509603  1  0  -0.646771  0  2.094617  0  0  -0.575169  0  2.378486  0  0  -0.604792  0  2.366299  0  0  -0.339663  -0.554138  0  2.385778  0
O  O51  1  0.74081956  0.38125821  0.07490308  1  0  -0.646818  0  2.094538  0  0  -0.575209  0  2.378431  0  0  -0.604834  0  2.366242  0  0  -0.339686  -0.554164  0  2.385695  0
