# generated using pymatgen
data_CuH10C6(NO2)2
_symmetry_space_group_name_H-M   'P 1'
_cell_length_a   5.18949202
_cell_length_b   8.57977598
_cell_length_c   9.18172124
_cell_angle_alpha   89.99378965
_cell_angle_beta   94.91225613
_cell_angle_gamma   89.99988774
_symmetry_Int_Tables_number   1
_chemical_formula_structural   CuH10C6(NO2)2
_chemical_formula_sum   'Cu2 H20 C12 N4 O8'
_cell_volume   407.31161811
_cell_formula_units_Z   2
loop_
 _symmetry_equiv_pos_site_id
 _symmetry_equiv_pos_as_xyz
  1  'x, y, z'
loop_
 _atom_site_type_symbol
 _atom_site_label
 _atom_site_symmetry_multiplicity
 _atom_site_fract_x
 _atom_site_fract_y
 _atom_site_fract_z
 _atom_site_occupancy
 _atom_site_pbe_cm5_charge
 _atom_site_pbe_ddec_charge
 _atom_site_pbe_ddec_spin_density
 _atom_site_pbe_ddec_sum_bond_order
 _atom_site_pbe_magmom
Cu  Cu0  1  0.01802717  0.38038784  0.34812075  1  0.735198  0.77341  0.722012  2.268225  0.547
Cu  Cu1  1  0.98197583  0.88035647  0.65188755  1  0.735229  0.773199  -0.72201  2.268077  -0.547
H  H2  1  0.39143600  0.90635767  0.40553925  1  0.298313  0.338784  0.0001  0.976484  0.0
H  H3  1  0.60856555  0.40633904  0.59446773  1  0.29832  0.338751  -0.0001  0.976595  0.0
H  H4  1  0.10928740  0.10097268  0.25979716  1  0.299501  0.290357  0.001111  0.966702  0.001
H  H5  1  0.89076685  0.60092021  0.74020510  1  0.299385  0.290052  -0.001111  0.966842  -0.001
H  H6  1  0.95644756  0.21333502  0.13064938  1  0.303779  0.288517  0.000944  0.94254  0.0
H  H7  1  0.04357132  0.71325254  0.86935515  1  0.303706  0.288352  -0.000945  0.942614  0.0
H  H8  1  0.34624854  0.22609917  0.03401395  1  0.107811  0.099156  0.001373  1.016013  0.001
H  H9  1  0.65374714  0.72596342  0.96597954  1  0.107862  0.099362  -0.001374  1.015871  -0.001
H  H10  1  0.49822179  0.15670031  0.20095854  1  0.115562  0.119873  0.000265  0.986751  0.0
H  H11  1  0.50178763  0.65661857  0.79901994  1  0.115546  0.119937  -0.000265  0.986719  0.0
H  H12  1  0.58204337  0.63158237  0.38534125  1  0.116976  0.098487  0.00126  0.990075  0.001
H  H13  1  0.41796044  0.13155337  0.61465232  1  0.117047  0.098537  -0.001261  0.990194  -0.001
H  H14  1  0.46559198  0.74871638  0.14534247  1  0.104992  0.050913  -0.000398  0.981979  0.0
H  H15  1  0.53437348  0.24862944  0.85465373  1  0.104947  0.050868  0.000398  0.981821  0.0
H  H16  1  0.05376819  0.87870954  0.08205485  1  0.089185  0.13832  0.000388  1.006204  0.0
H  H17  1  0.94620634  0.37863259  0.91792392  1  0.089182  0.138214  -0.000388  1.006304  0.0
H  H18  1  0.94047717  0.83606204  0.25607538  1  0.088874  0.132621  6.2e-05  1.022646  0.0
H  H19  1  0.05948028  0.33599464  0.74391336  1  0.088865  0.132413  -6.2e-05  1.022832  0.0
H  H20  1  0.98239253  0.68197983  0.13179159  1  0.090382  0.135705  -9.7e-05  1.036431  0.0
H  H21  1  0.01759704  0.18190913  0.86822447  1  0.090536  0.13583  9.8e-05  1.036344  0.0
C  C22  1  0.35699521  0.24157951  0.15304047  1  -0.073448  -0.119218  0.001168  3.890505  -0.002
C  C23  1  0.64303061  0.74148622  0.84694836  1  -0.073238  -0.119677  -0.001169  3.891127  0.002
C  C24  1  0.45690884  0.40432058  0.19381195  1  0.210435  0.484476  0.001475  4.173331  0.001
C  C25  1  0.54308744  0.90423500  0.80619330  1  0.209889  0.483757  -0.001473  4.174075  -0.001
C  C26  1  0.37732607  0.63216470  0.34108741  1  -0.001683  -0.0701  2.7e-05  3.913194  -0.003
C  C27  1  0.62266552  0.13210627  0.65891188  1  -0.001815  -0.070632  -2.8e-05  3.914248  0.003
C  C28  1  0.34259713  0.77328897  0.23419486  1  -0.000224  0.253545  0.000425  3.835012  0.0
C  C29  1  0.65739381  0.27322713  0.76580726  1  -0.000171  0.253723  -0.000426  3.834795  0.0
C  C30  1  0.06296831  0.79404212  0.17209403  1  -0.260698  -0.463388  0.000383  3.897468  0.0
C  C31  1  0.93702400  0.29396690  0.82790961  1  -0.260836  -0.463196  -0.000382  3.897389  0.0
C  C32  1  0.20604581  0.65913556  0.46588456  1  0.220908  0.583596  0.002549  4.094498  0.004
C  C33  1  0.79395117  0.15912284  0.53412274  1  0.220894  0.583816  -0.002552  4.094026  -0.004
N  N34  1  0.10597724  0.20809619  0.21057248  1  -0.632772  -0.533504  0.078006  3.440844  0.095
N  N35  1  0.89405243  0.70802606  0.78943221  1  -0.632615  -0.532569  -0.078004  3.440554  -0.095
N  N36  1  0.30170261  0.48557799  0.27337372  1  -0.437702  -0.46249  0.08419  3.608892  0.105
N  N37  1  0.69828328  0.98553312  0.72662097  1  -0.437622  -0.46203  -0.084189  3.608996  -0.105
O  O38  1  0.67430424  0.44780732  0.15600466  1  -0.335607  -0.567023  0.01945  2.186242  0.025
O  O39  1  0.32568149  0.94769341  0.84401925  1  -0.335297  -0.566545  -0.019436  2.186526  -0.025
O  O40  1  0.02356848  0.56470225  0.48612790  1  -0.312823  -0.529447  0.049653  2.353464  0.067
O  O41  1  0.97642561  0.06469108  0.51387106  1  -0.312846  -0.529443  -0.049657  2.35323  -0.067
O  O42  1  0.24880853  0.78371320  0.54077557  1  -0.318026  -0.53067  -0.026597  2.431545  -0.037
O  O43  1  0.75120526  0.28372070  0.45922948  1  -0.318021  -0.53072  0.026587  2.431441  0.037
O  O44  1  0.44456103  0.91212661  0.30492576  1  -0.40894  -0.511953  0.002166  2.198747  0.003
O  O45  1  0.55543203  0.41207973  0.69507475  1  -0.408942  -0.511962  -0.002166  2.19884  -0.003
